@<TRIPOS>MOLECULE
SV1
   39    40     1     0     0
SMALL
bcc


@<TRIPOS>ATOM
      1 O1          0.2720   -1.9490   -0.3060 o         1 SV1     -0.534000
      2 C8          1.1350   -1.0970   -0.0860 c         1 SV1      0.633100
      3 C7          1.8870   -0.8720    1.1990 c3        1 SV1     -0.118100
      4 C6          0.9790   -0.4680    2.3090 ca        1 SV1      0.023700
      5 C5          0.9190    0.8900    2.6700 ca        1 SV1     -0.106000
      6 C4          0.1170    1.3240    3.7170 ca        1 SV1     -0.084000
      7 C3         -0.6400    0.3770    4.4320 ca        1 SV1     -0.086400
      8 N          -1.4910    0.8160    5.5380 n4        1 SV1     -0.699000
      9 C2         -0.5920   -0.9810    4.0920 ca        1 SV1     -0.055000
     10 C1          0.2110   -1.4000    3.0240 ca        1 SV1     -0.151600
     11 C           0.1990   -2.8510    2.6800 c         1 SV1      0.564500
     12 O          -0.1430   -3.6930    3.5080 o         1 SV1     -0.488100
     13 O2          1.5200   -0.2500   -1.0730 os        1 SV1     -0.429900
     14 C9          0.9010   -0.4380   -2.3670 c3        1 SV1      0.141400
     15 C10         1.5890    0.5490   -3.2960 c3        1 SV1     -0.038100
     16 C11         1.0570    0.4130   -4.6780 ca        1 SV1     -0.099300
     17 C16         0.2070    1.3890   -5.2090 ca        1 SV1     -0.123000
     18 C15        -0.2750    1.2650   -6.5120 ca        1 SV1     -0.124000
     19 C14         0.0880    0.1670   -7.2920 ca        1 SV1     -0.118000
     20 C13         0.9370   -0.8080   -6.7670 ca        1 SV1     -0.124000
     21 C12         1.4210   -0.6860   -5.4660 ca        1 SV1     -0.123000
     22 H           0.4860   -3.1000    1.6340 h4        1 SV1      0.070200
     23 H72         2.4160   -1.8320    1.4550 hc        1 SV1      0.108200
     24 H71         2.6740   -0.0850    1.0320 hc        1 SV1      0.108200
     25 H5          1.5190    1.6290    2.1090 ha        1 SV1      0.179000
     26 H4          0.0890    2.3960    3.9720 ha        1 SV1      0.161000
     27 HN1        -0.9840    1.4940    6.1180 hn        1 SV1      0.465467
     28 HN2        -1.7600    0.0110    6.1160 hn        1 SV1      0.465467
     29 H2         -1.1640   -1.7510    4.6440 ha        1 SV1      0.180000
     30 H91C       -0.1960   -0.2320   -2.2660 h1        1 SV1      0.065200
     31 H92C        1.0560   -1.4990   -2.6930 h1        1 SV1      0.065200
     32 H101        2.6950    0.3530   -3.2900 hc        1 SV1      0.062700
     33 H102        1.4340    1.5920   -2.9120 hc        1 SV1      0.062700
     34 H16        -0.0790    2.2600   -4.6010 ha        1 SV1      0.130000
     35 H12         2.0950   -1.4530   -5.0560 ha        1 SV1      0.130000
     36 H15        -0.9400    2.0380   -6.9250 ha        1 SV1      0.139000
     37 H14        -0.2920    0.0710   -8.3200 ha        1 SV1      0.140000
     38 H13         1.2270   -1.6730   -7.3810 ha        1 SV1      0.139000
     39 HN3        -2.3390    1.2600    5.1640 hn        1 SV1      0.465467
@<TRIPOS>BOND
     1    1    2 2   
     2    2    3 1   
     3    2   13 1   
     4    3    4 1   
     5    3   23 1   
     6    3   24 1   
     7    4    5 ar  
     8    4   10 ar  
     9    5    6 ar  
    10    5   25 1   
    11    6    7 ar  
    12    6   26 1   
    13    7    8 1   
    14    7    9 ar  
    15    8   27 1   
    16    8   28 1   
    17    8   39 1   
    18    9   10 ar  
    19    9   29 1   
    20   10   11 1   
    21   11   12 2   
    22   11   22 1   
    23   13   14 1   
    24   14   15 1   
    25   14   30 1   
    26   14   31 1   
    27   15   16 1   
    28   15   32 1   
    29   15   33 1   
    30   16   17 ar  
    31   16   21 ar  
    32   17   18 ar  
    33   17   34 1   
    34   18   19 ar  
    35   18   36 1   
    36   19   20 ar  
    37   19   37 1   
    38   20   21 ar  
    39   20   38 1   
    40   21   35 1   
@<TRIPOS>SUBSTRUCTURE
     1 SV1         1 TEMP              0 ****  ****    0 ROOT
