@<TRIPOS>MOLECULE
SV1
   38    39     1     0     0
SMALL
bcc


@<TRIPOS>ATOM
      1 O1          0.9550    1.5090   -0.6410 o         1 SV1     -0.535000
      2 C8          1.3790    0.4630   -0.1490 c         1 SV1      0.634100
      3 C7          2.0410    0.2590    1.1860 c3        1 SV1     -0.079100
      4 C6          1.0450    0.1530    2.2880 ca        1 SV1     -0.100300
      5 C5          0.6970    1.3100    2.9950 ca        1 SV1     -0.085000
      6 C4         -0.1900    1.2660    4.0620 ca        1 SV1     -0.171000
      7 C3         -0.7540    0.0360    4.4730 ca        1 SV1      0.145600
      8 N          -1.5630   -0.0400    5.6060 nh        1 SV1     -0.823200
      9 C2         -0.4080   -1.1300    3.7510 ca        1 SV1     -0.146000
     10 C1          0.4720   -1.0710    2.6700 ca        1 SV1     -0.136600
     11 C           0.7590   -2.3200    1.9310 c         1 SV1      0.563500
     12 O           0.5290   -3.4410    2.3900 o         1 SV1     -0.526100
     13 O2          1.2860   -0.6930   -0.8740 os        1 SV1     -0.449900
     14 C9          0.6710   -0.6300   -2.1680 c3        1 SV1      0.141400
     15 C10         1.6740   -0.1550   -3.2080 c3        1 SV1     -0.067100
     16 C11         1.0660   -0.1450   -4.5650 ca        1 SV1     -0.083300
     17 C16         0.1620    0.8640   -4.9210 ca        1 SV1     -0.125000
     18 C15        -0.4020    0.8840   -6.1940 ca        1 SV1     -0.128500
     19 C14        -0.0690   -0.1020   -7.1240 ca        1 SV1     -0.129000
     20 C13         0.8320   -1.1080   -6.7750 ca        1 SV1     -0.128500
     21 C12         1.3980   -1.1300   -5.5010 ca        1 SV1     -0.125000
     22 H           1.1820   -2.1870    0.9080 h4        1 SV1      0.023200
     23 H72         2.7110    1.1460    1.3590 hc        1 SV1      0.084200
     24 H71         2.6880   -0.6570    1.1450 hc        1 SV1      0.084200
     25 H5          1.1310    2.2780    2.6960 ha        1 SV1      0.142000
     26 H4         -0.4420    2.1960    4.5930 ha        1 SV1      0.138000
     27 HN1        -2.1420   -0.8470    5.6580 hn        1 SV1      0.398300
     28 HN2        -2.0250    0.8070    5.8510 hn        1 SV1      0.398300
     29 H2         -0.8230   -2.1110    4.0370 ha        1 SV1      0.156000
     30 H91C        0.3570   -1.6920   -2.3520 h1        1 SV1      0.069200
     31 H92C       -0.2230    0.0460   -2.1380 h1        1 SV1      0.069200
     32 H101        2.0120    0.8810   -2.9340 hc        1 SV1      0.063200
     33 H102        2.5760   -0.8220   -3.1850 hc        1 SV1      0.063200
     34 H16        -0.0980    1.6430   -4.1880 ha        1 SV1      0.135500
     35 H12         2.1100   -1.9250   -5.2320 ha        1 SV1      0.135500
     36 H15        -1.1110    1.6790   -6.4670 ha        1 SV1      0.131500
     37 H14        -0.5140   -0.0850   -8.1290 ha        1 SV1      0.131000
     38 H13         1.0980   -1.8850   -7.5060 ha        1 SV1      0.131500
@<TRIPOS>BOND
     1    1    2 2   
     2    2    3 1   
     3    2   13 1   
     4    3    4 1   
     5    3   23 1   
     6    3   24 1   
     7    4    5 ar  
     8    4   10 ar  
     9    5    6 ar  
    10    5   25 1   
    11    6    7 ar  
    12    6   26 1   
    13    7    8 1   
    14    7    9 ar  
    15    8   27 1   
    16    8   28 1   
    17    9   10 ar  
    18    9   29 1   
    19   10   11 1   
    20   11   12 2   
    21   11   22 1   
    22   13   14 1   
    23   14   15 1   
    24   14   30 1   
    25   14   31 1   
    26   15   16 1   
    27   15   32 1   
    28   15   33 1   
    29   16   17 ar  
    30   16   21 ar  
    31   17   18 ar  
    32   17   34 1   
    33   18   19 ar  
    34   18   36 1   
    35   19   20 ar  
    36   19   37 1   
    37   20   21 ar  
    38   20   38 1   
    39   21   35 1   
@<TRIPOS>SUBSTRUCTURE
     1 SV1         1 TEMP              0 ****  ****    0 ROOT
