@<TRIPOS>MOLECULE
SV1
   38    39     1     0     0
SMALL
bcc


@<TRIPOS>ATOM
      1 O1          0.5270   -2.3290   -0.3940 o         1 SV1     -0.545000
      2 C8          1.2820   -1.4090   -0.0760 c         1 SV1      0.636100
      3 C7          1.9720   -1.1800    1.2400 c3        1 SV1     -0.079100
      4 C6          1.0600   -0.5780    2.2510 ca        1 SV1     -0.103300
      5 C5          1.1180    0.8020    2.4780 ca        1 SV1     -0.087000
      6 C4          0.3260    1.4110    3.4410 ca        1 SV1     -0.175000
      7 C3         -0.5530    0.6380    4.2370 ca        1 SV1      0.146600
      8 N          -1.2760    1.2190    5.2780 nv        1 SV1     -0.824200
      9 C2         -0.6150   -0.7550    4.0000 ca        1 SV1     -0.147000
     10 C1          0.1730   -1.3520    3.0170 ca        1 SV1     -0.132600
     11 C           0.0280   -2.8070    2.7870 c         1 SV1      0.562500
     12 O          -0.4140   -3.5780    3.6410 o         1 SV1     -0.524100
     13 O2          1.5930   -0.4640   -1.0120 os        1 SV1     -0.441900
     14 C9          0.9720   -0.6090   -2.3030 c3        1 SV1      0.141400
     15 C10         1.4890    0.5510   -3.1390 c3        1 SV1     -0.041100
     16 C11         0.9670    0.4690   -4.5300 ca        1 SV1     -0.085300
     17 C16        -0.0080    1.3670   -4.9760 ca        1 SV1     -0.124000
     18 C15        -0.4830    1.2960   -6.2850 ca        1 SV1     -0.127500
     19 C14         0.0110    0.3260   -7.1570 ca        1 SV1     -0.128000
     20 C13         0.9840   -0.5730   -6.7180 ca        1 SV1     -0.127500
     21 C12         1.4610   -0.5020   -5.4100 ca        1 SV1     -0.124000
     22 H           0.3250   -3.1630    1.7730 h4        1 SV1      0.032200
     23 H72         2.3560   -2.1740    1.5970 hc        1 SV1      0.084200
     24 H71         2.8570   -0.5070    1.0730 hc        1 SV1      0.084200
     25 H5          1.8050    1.4210    1.8780 ha        1 SV1      0.138000
     26 H4          0.3960    2.4990    3.5910 ha        1 SV1      0.137000
     27 HN1        -1.4500    2.1930    5.1780 hn        1 SV1      0.398300
     28 HN2        -2.0630    0.6960    5.5880 hn        1 SV1      0.398300
     29 H2         -1.2820   -1.3960    4.6010 ha        1 SV1      0.155000
     30 H91C       -0.1400   -0.5720   -2.1750 h1        1 SV1      0.058200
     31 H92C        1.2640   -1.5990   -2.7380 h1        1 SV1      0.058200
     32 H101        1.1850    1.5180   -2.6580 hc        1 SV1      0.061200
     33 H102        2.6120    0.5250   -3.1510 hc        1 SV1      0.061200
     34 H16        -0.4000    2.1350   -4.2920 ha        1 SV1      0.132500
     35 H12         2.2280   -1.2100   -5.0650 ha        1 SV1      0.132500
     36 H15        -1.2490    2.0060   -6.6290 ha        1 SV1      0.132500
     37 H14        -0.3640    0.2700   -8.1890 ha        1 SV1      0.132000
     38 H13         1.3750   -1.3380   -7.4030 ha        1 SV1      0.132500
@<TRIPOS>BOND
     1    1    2 2   
     2    2    3 1   
     3    2   13 1   
     4    3    4 1   
     5    3   23 1   
     6    3   24 1   
     7    4    5 ar  
     8    4   10 ar  
     9    5    6 ar  
    10    5   25 1   
    11    6    7 ar  
    12    6   26 1   
    13    7    8 1   
    14    7    9 ar  
    15    8   27 1   
    16    8   28 1   
    17    9   10 ar  
    18    9   29 1   
    19   10   11 1   
    20   11   12 2   
    21   11   22 1   
    22   13   14 1   
    23   14   15 1   
    24   14   30 1   
    25   14   31 1   
    26   15   16 1   
    27   15   32 1   
    28   15   33 1   
    29   16   17 ar  
    30   16   21 ar  
    31   17   18 ar  
    32   17   34 1   
    33   18   19 ar  
    34   18   36 1   
    35   19   20 ar  
    36   19   37 1   
    37   20   21 ar  
    38   20   38 1   
    39   21   35 1   
@<TRIPOS>SUBSTRUCTURE
     1 SV1         1 TEMP              0 ****  ****    0 ROOT
