@<TRIPOS>MOLECULE
SV1
   38    39     1     0     0
SMALL
bcc


@<TRIPOS>ATOM
      1 O1         -0.3290    1.7460   -0.6340 o         1 SV1     -0.535000
      2 C8          0.1760    0.6750   -0.9740 c         1 SV1      0.634100
      3 C7          1.4600    0.4430   -1.7210 c3        1 SV1     -0.079100
      4 C6          2.6430    0.4980   -0.8190 ca        1 SV1     -0.100300
      5 C5          3.3220    1.7130   -0.6720 ca        1 SV1     -0.085000
      6 C4          4.4590    1.8170    0.1180 ca        1 SV1     -0.171000
      7 C3          4.9710    0.6800    0.7850 ca        1 SV1      0.145600
      8 N           6.1690    0.7450    1.4960 nh        1 SV1     -0.823200
      9 C2          4.2780   -0.5450    0.6430 ca        1 SV1     -0.146000
     10 C1          3.1280   -0.6330   -0.1410 ca        1 SV1     -0.136600
     11 C           2.4260   -1.9330   -0.2130 c         1 SV1      0.563500
     12 O           2.9540   -3.0000    0.1070 o         1 SV1     -0.526100
     13 O2         -0.4850   -0.4870   -0.6850 os        1 SV1     -0.449900
     14 C9         -1.7260   -0.3980    0.0290 c3        1 SV1      0.141400
     15 C10        -2.8650   -0.0860   -0.9290 c3        1 SV1     -0.067100
     16 C11        -4.1670   -0.0520   -0.2110 ca        1 SV1     -0.083300
     17 C16        -4.4940    1.0440    0.5970 ca        1 SV1     -0.125000
     18 C15        -5.7160    1.0850    1.2640 ca        1 SV1     -0.128500
     19 C14        -6.6230    0.0340    1.1290 ca        1 SV1     -0.129000
     20 C13        -6.3040   -1.0590    0.3240 ca        1 SV1     -0.128500
     21 C12        -5.0810   -1.1030   -0.3440 ca        1 SV1     -0.125000
     22 H           1.3680   -1.8900   -0.5600 h4        1 SV1      0.023200
     23 H72         1.4090   -0.5460   -2.2510 hc        1 SV1      0.084200
     24 H71         1.5360    1.2480   -2.5030 hc        1 SV1      0.084200
     25 H5          2.9440    2.6100   -1.1890 ha        1 SV1      0.142000
     26 H4          4.9650    2.7900    0.2120 ha        1 SV1      0.138000
     27 HN1         6.4100    1.6490    1.8320 hn        1 SV1      0.398300
     28 HN2         6.3050    0.0160    2.1600 hn        1 SV1      0.398300
     29 H2          4.6430   -1.4570    1.1440 ha        1 SV1      0.156000
     30 H91C       -1.8340   -1.4210    0.4790 h1        1 SV1      0.069200
     31 H92C       -1.6550    0.3810    0.8320 h1        1 SV1      0.069200
     32 H101       -2.6680    0.9110   -1.4090 hc        1 SV1      0.063200
     33 H102       -2.8850   -0.8560   -1.7450 hc        1 SV1      0.063200
     34 H16        -3.7790    1.8750    0.7000 ha        1 SV1      0.135500
     35 H12        -4.8350   -1.9670   -0.9790 ha        1 SV1      0.135500
     36 H15        -5.9660    1.9500    1.8970 ha        1 SV1      0.131500
     37 H14        -7.5880    0.0680    1.6550 ha        1 SV1      0.131000
     38 H13        -7.0180   -1.8890    0.2150 ha        1 SV1      0.131500
@<TRIPOS>BOND
     1    1    2 2   
     2    2    3 1   
     3    2   13 1   
     4    3    4 1   
     5    3   23 1   
     6    3   24 1   
     7    4    5 ar  
     8    4   10 ar  
     9    5    6 ar  
    10    5   25 1   
    11    6    7 ar  
    12    6   26 1   
    13    7    8 1   
    14    7    9 ar  
    15    8   27 1   
    16    8   28 1   
    17    9   10 ar  
    18    9   29 1   
    19   10   11 1   
    20   11   12 2   
    21   11   22 1   
    22   13   14 1   
    23   14   15 1   
    24   14   30 1   
    25   14   31 1   
    26   15   16 1   
    27   15   32 1   
    28   15   33 1   
    29   16   17 ar  
    30   16   21 ar  
    31   17   18 ar  
    32   17   34 1   
    33   18   19 ar  
    34   18   36 1   
    35   19   20 ar  
    36   19   37 1   
    37   20   21 ar  
    38   20   38 1   
    39   21   35 1   
@<TRIPOS>SUBSTRUCTURE
     1 SV1         1 TEMP              0 ****  ****    0 ROOT
