@<TRIPOS>MOLECULE
SV2
   42    43     1     0     0
SMALL
bcc


@<TRIPOS>ATOM
      1 OAE        -4.4550    3.6530    0.5050 o         1 SV2     -0.957167
      2 PAZ        -3.3160    4.3390    1.2200 p5        1 SV2      1.212700
      3 OAF        -3.1660    5.8020    0.8370 o         1 SV2     -0.957167
      4 OAC        -3.2270    4.1030    2.7080 o         1 SV2     -0.957167
      5 CAL        -1.7740    3.7040    0.4740 c3        1 SV2     -0.030800
      6 OAR        -1.6430    2.3250    0.7150 os        1 SV2     -0.359600
      7 CAJ        -0.4840    1.7940    0.0750 c3        1 SV2      0.117400
      8 CAX        -0.2750    0.3210    0.4270 c3        1 SV2     -0.073700
      9 CAK        -1.5970   -0.4290    0.2720 c3        1 SV2      0.132400
     10 OAS        -1.3900   -1.8310    0.4990 os        1 SV2     -0.431600
     11 CAM        -2.6070   -2.5430    0.6300 c3        1 SV2     -0.113800
     12 PBA        -2.2290   -4.2170    0.6310 p5        1 SV2      1.347600
     13 OAG        -0.7030   -4.2820    1.2210 oh        1 SV2     -0.787400
     14 OAH        -3.0990   -4.9050    1.6210 o         1 SV2     -0.883000
     15 OAD        -2.1640   -4.7210   -0.7650 o         1 SV2     -0.883000
     16 CAN         0.7750   -0.3390   -0.4880 c3        1 SV2      0.045300
     17 N9          2.0930    0.2340   -0.5250 na        1 SV2     -0.213900
     18 C8          2.4450    1.4800   -1.1040 cc        1 SV2      0.356400
     19 N7          3.7690    1.6550   -1.2540 nc        1 SV2     -0.649000
     20 C5          4.3530    0.4750   -0.7890 cd        1 SV2      0.107800
     21 C4          3.3170   -0.4420   -0.3440 cd        1 SV2     -0.020600
     22 N3          3.5540   -1.6920    0.1570 nc        1 SV2     -0.539300
     23 C2          4.9030   -2.0010    0.1990 cc        1 SV2      0.787200
     24 N2          5.2080   -3.3410    0.6440 nh        1 SV2     -0.861800
     25 N1          5.9740   -1.2260   -0.1490 nd        1 SV2     -0.839100
     26 C6          5.7420    0.0450   -0.6780 c         1 SV2      0.628000
     27 O6          6.7230    0.7610   -1.0280 o         1 SV2     -0.726100
     28 H3         -1.8170    3.9130   -0.6210 h1        1 SV2     -0.009300
     29 H4         -0.9150    4.2630    0.9140 h1        1 SV2     -0.009300
     30 H5         -0.5970    1.8990   -1.0410 h1        1 SV2     -0.003800
     31 H6          0.4200    2.3800    0.3960 h1        1 SV2     -0.003800
     32 H7          0.0600    0.2440    1.4950 hc        1 SV2      0.066700
     33 H8         -2.3390   -0.0180    1.0080 h1        1 SV2      0.051700
     34 H9         -2.0010   -0.2970   -0.7670 h1        1 SV2      0.051700
     35 H10        -3.1260   -2.2280    1.5700 h1        1 SV2      0.043700
     36 H11        -3.2910   -2.2950   -0.2220 h1        1 SV2      0.043700
     37 H14         0.8690   -1.4160   -0.1610 h1        1 SV2      0.059200
     38 H15         0.3640   -0.3270   -1.5410 h1        1 SV2      0.059200
     39 H16         1.6730    2.2140   -1.3560 h5        1 SV2      0.054100
     40 H17        -0.1000   -3.6910    0.7860 ho        1 SV2      0.434000
     41 H18         4.4400   -3.7400    1.1460 hn        1 SV2      0.355300
     42 H19         6.0310   -3.3490    1.2110 hn        1 SV2      0.355300
@<TRIPOS>BOND
     1    1    2 1   
     2    2    3 1   
     3    2    4 1   
     4    2    5 1   
     5    5    6 1   
     6    5   28 1   
     7    5   29 1   
     8    6    7 1   
     9    7    8 1   
    10    7   30 1   
    11    7   31 1   
    12    8    9 1   
    13    8   16 1   
    14    8   32 1   
    15    9   10 1   
    16    9   33 1   
    17    9   34 1   
    18   10   11 1   
    19   11   12 1   
    20   11   35 1   
    21   11   36 1   
    22   12   13 1   
    23   12   14 1   
    24   12   15 1   
    25   13   40 1   
    26   16   17 1   
    27   16   37 1   
    28   16   38 1   
    29   17   18 2   
    30   17   21 1   
    31   18   19 1   
    32   18   39 1   
    33   19   20 2   
    34   20   21 1   
    35   20   26 1   
    36   21   22 2   
    37   22   23 1   
    38   23   24 1   
    39   23   25 2   
    40   24   41 1   
    41   24   42 1   
    42   25   26 1   
    43   26   27 2   
@<TRIPOS>SUBSTRUCTURE
     1 SV2         1 TEMP              0 ****  ****    0 ROOT
