@<TRIPOS>MOLECULE
SV2
   43    44     1     0     0
SMALL
bcc


@<TRIPOS>ATOM
      1 OAE         0.0000    0.0000    0.0000 o         1 SV2     -0.595000
      2 PAZ         1.6090    0.0000    0.0000 p5        1 SV2      0.495700
      3 OAF         2.1460    0.0000    1.5190 o         1 SV2     -0.595000
      4 OAC         2.1030   -1.2080   -0.6970 o         1 SV2     -0.595000
      5 CAL         2.2180    1.4880   -0.8590 c3        1 SV2      0.200700
      6 OAR         1.7420    1.4880   -2.2060 os        1 SV2     -0.411100
      7 CAJ         0.3590    1.8260   -2.3330 c3        1 SV2      0.165900
      8 CAX        -0.0390    1.7950   -3.8120 c3        1 SV2     -0.071700
      9 CAK         0.0780    0.3650   -4.3410 c3        1 SV2      0.165900
     10 OAS        -0.1600    0.3570   -5.7500 os        1 SV2     -0.411100
     11 CAM         0.0060   -0.9230   -6.3600 c3        1 SV2      0.200700
     12 PBA        -1.4200   -1.9820   -5.9490 p5        1 SV2      0.495700
     13 OAG        -2.7830   -1.2310   -6.3620 o         1 SV2     -0.595000
     14 OAH        -1.3080   -3.3720   -6.7540 o         1 SV2     -0.595000
     15 OAD        -1.4290   -2.2540   -4.4940 o         1 SV2     -0.595000
     16 CAN        -1.4840    2.2770   -3.9600 c3        1 SV2     -0.057700
     17 N9         -1.5730    3.6830   -3.5570 na        1 SV2      0.296100
     18 C8         -1.9350    4.1470   -2.3270 cc        1 SV2      0.184400
     19 N7         -1.9000    5.4490   -2.3260 nd        1 SV2     -0.573000
     20 C5         -1.5150    5.8850   -3.5480 cd        1 SV2      0.167800
     21 C4         -1.3030    4.7640   -4.3400 cc        1 SV2     -0.300000
     22 N3         -0.8980    4.9360   -5.6390 na        1 SV2     -0.133600
     23 C2         -0.7100    6.1840   -6.1430 cc        1 SV2     -0.109900
     24 N2         -0.3050    6.3140   -7.4440 nz        1 SV2      0.314400
     25 N1         -0.9050    7.2720   -5.4290 nd        1 SV2     -0.803100
     26 C6         -1.2950    7.2050   -4.1460 c         1 SV2      0.666000
     27 O6         -1.4660    8.2220   -3.4930 o         1 SV2     -0.738100
     28 H3          1.8570    2.3730   -0.3480 h1        1 SV2     -0.006550
     29 H4          3.3010    1.4880   -0.8590 h1        1 SV2     -0.006550
     30 H5         -0.2400    1.1110   -1.7830 h1        1 SV2      0.039450
     31 H6          0.1920    2.8190   -1.9350 h1        1 SV2      0.039450
     32 H7          0.6190    2.4450   -4.3770 hc        1 SV2      0.010700
     33 H8          1.0730   -0.0140   -4.1400 h1        1 SV2      0.039450
     34 H9         -0.6540   -0.2640   -3.8480 h1        1 SV2      0.039450
     35 H10         0.0700   -0.8060   -7.4350 h1        1 SV2     -0.006550
     36 H11         0.9150   -1.3840   -5.9930 h1        1 SV2     -0.006550
     37 H14        -1.7940    2.1780   -4.9930 h1        1 SV2      0.055200
     38 H15        -2.1310    1.6790   -3.3300 h1        1 SV2      0.055200
     39 H16        -2.2130    3.5290   -1.4830 h5        1 SV2      0.031100
     40 H17        -0.7420    4.1370   -6.2210 hn        1 SV2      0.241800
     41 H18        -0.1870    7.2840   -7.6610 hn        1 SV2      0.099467
     42 H19        -0.9960    5.9180   -8.0500 hn        1 SV2      0.099467
     43 H23         0.5650    5.8360   -7.5720 hn        1 SV2      0.099467
@<TRIPOS>BOND
     1    1    2 1   
     2    2    3 1   
     3    2    4 1   
     4    2    5 1   
     5    5    6 1   
     6    5   28 1   
     7    5   29 1   
     8    6    7 1   
     9    7    8 1   
    10    7   30 1   
    11    7   31 1   
    12    8    9 1   
    13    8   16 1   
    14    8   32 1   
    15    9   10 1   
    16    9   33 1   
    17    9   34 1   
    18   10   11 1   
    19   11   12 1   
    20   11   35 1   
    21   11   36 1   
    22   12   13 1   
    23   12   14 1   
    24   12   15 1   
    25   16   17 1   
    26   16   37 1   
    27   16   38 1   
    28   17   18 1   
    29   17   21 1   
    30   18   19 2   
    31   18   39 1   
    32   19   20 1   
    33   20   21 2   
    34   20   26 1   
    35   21   22 1   
    36   22   23 1   
    37   22   40 1   
    38   23   24 1   
    39   23   25 2   
    40   24   41 1   
    41   24   42 1   
    42   24   43 1   
    43   25   26 1   
    44   26   27 2   
@<TRIPOS>SUBSTRUCTURE
     1 SV2         1 TEMP              0 ****  ****    0 ROOT
