@<TRIPOS>MOLECULE
SV2
   42    37     1     0     0
SMALL
bcc


@<TRIPOS>ATOM
      1 OAE        -1.3470   -5.2720   -2.4190 o         1 SV2     -1.077333
      2 PAZ        -1.4090   -4.5220   -1.1000 p3        1 SV2      2.637000
      3 OAF        -2.5060   -3.4900   -1.1600 o         1 SV2     -1.077333
      4 OAC        -1.6950   -5.4960    0.0210 o         1 SV2     -1.077333
      5 CAL         0.2030   -3.6880   -0.7930 c2        1 SV2     -0.673000
      6 OAR        -0.0230   -2.4380   -0.1160 os        1 SV2     -0.250000
      7 CAJ         1.1160   -1.5430   -0.1410 c3        1 SV2     -0.015000
      8 CAX         0.8440   -0.3340    0.7850 c3        1 SV2     -0.124000
      9 CAK         0.6810   -0.8250    2.2320 c3        1 SV2     -0.024000
     10 OAS         0.8720    0.2890    3.1480 os        1 SV2     -0.228000
     11 CAM         1.0460   -0.1060    4.5140 c3        1 SV2     -0.588000
     12 PBA         0.6850    1.3160    5.6140 p3        1 SV2      2.581000
     13 OAG        -0.6510    1.9060    5.2490 os        1 SV2     -1.271000
     14 OAH         1.7620    2.3680    5.4520 o         1 SV2     -1.282500
     15 OAD         0.6510    0.8450    7.0560 o         1 SV2     -1.282500
     16 CAN        -0.4510    0.3760    0.3380 c3        1 SV2     -0.004000
     17 N9         -0.1230    1.4690   -0.5600 n3        1 SV2     -0.186000
     18 C8          0.5170    2.4550    0.1190 c1        1 SV2     -0.147000
     19 N7          0.6760    3.5200   -0.7270 n2        1 SV2     -0.126000
     20 C5          0.1320    3.1870   -1.9280 c1        1 SV2     -0.327000
     21 C4         -0.3640    1.9180   -1.8280 c1        1 SV2      0.077000
     22 N3         -1.0520    1.3110   -2.9680 n2        1 SV2     -0.318000
     23 C2         -1.1820    2.0460   -4.2140 c2        1 SV2      0.154000
     24 N2         -1.7520    1.3990   -5.3810 n3        1 SV2     -0.315000
     25 N1         -0.6380    3.3600   -4.3250 n1        1 SV2     -0.423000
     26 C6          0.0620    3.9230   -3.2490 c1        1 SV2      0.339000
     27 O6          0.5220    5.0370   -3.3460 o         1 SV2     -0.506000
     28 H3          0.7660   -4.2620   -0.2380 h4        1 SV2      0.075000
     29 H4          0.6510   -3.5200   -1.6460 h4        1 SV2      0.075000
     30 H5          1.9120   -2.0190    0.1700 h1        1 SV2      0.056500
     31 H6          1.2630   -1.2260   -1.0570 h1        1 SV2      0.056500
     32 H7          1.5870    0.2860    0.7350 hc        1 SV2      0.117000
     33 H8          1.3480   -1.5210    2.4190 h1        1 SV2      0.044000
     34 H9         -0.2130   -1.1920    2.3490 h1        1 SV2      0.044000
     35 H10         0.4390   -0.8350    4.7200 h1        1 SV2      0.028500
     36 H11         1.9720   -0.4010    4.6550 h1        1 SV2      0.028500
     37 H14        -0.9160    0.7280    1.1220 h1        1 SV2      0.104500
     38 H15        -1.0310   -0.2640   -0.1240 h1        1 SV2      0.104500
     39 H16         0.8190    2.4090    1.0410 DU        1 SV2      0.183000
     40 H17        -1.3570    0.4560   -2.9120 hn        1 SV2      0.243000
     41 H18        -2.1930    0.5910   -5.2920 hn        1 SV2      0.187000
     42 H19        -1.6200    1.7600   -6.2130 hn        1 SV2      0.187000
@<TRIPOS>BOND
     1    1    2 1   
     2    2    3 1   
     3    2    4 1   
     4    5    6 1   
     5    5   28 1   
     6    5   29 1   
     7    6    7 1   
     8    7    8 1   
     9    7   30 1   
    10    7   31 1   
    11    8    9 1   
    12    8   16 1   
    13    8   32 1   
    14    9   10 1   
    15    9   33 1   
    16    9   34 1   
    17   10   11 1   
    18   11   12 1   
    19   11   35 1   
    20   11   36 1   
    21   12   14 1   
    22   12   15 1   
    23   16   17 1   
    24   16   37 1   
    25   16   38 1   
    26   17   18 1   
    27   17   21 1   
    28   18   19 1   
    29   19   20 1   
    30   20   21 1   
    31   22   23 1   
    32   22   40 1   
    33   23   24 1   
    34   23   25 1   
    35   24   41 1   
    36   24   42 1   
    37   26   27 1   
@<TRIPOS>SUBSTRUCTURE
     1 SV2         1 TEMP              0 ****  ****    0 ROOT
