@<TRIPOS>MOLECULE
SVB
   46    46     1     0     0
SMALL
bcc


@<TRIPOS>ATOM
      1 CL1         2.3820    3.2360    2.5470 cl        1 SVB     -0.107400
      2 C1          1.9390    1.7600    1.7120 c3        1 SVB      0.194000
      3 C2          2.8700    0.5740    2.1280 ce        1 SVB     -0.131200
      4 C3          2.7090    0.2820    3.5370 ce        1 SVB      0.054000
      5 C4          2.7960   -0.8970    4.1860 cd        1 SVB     -0.192600
      6 S5          3.2410   -2.4460    3.6360 ss        1 SVB      0.104200
      7 C6          2.8280   -3.2200    5.1260 cc        1 SVB      0.085400
      8 N7          2.4700   -2.3450    6.0950 n         1 SVB     -0.131600
      9 C8          2.1230   -2.6110    7.4190 c2        1 SVB     -0.428400
     10 C9          2.4330   -0.9630    5.6260 c         1 SVB      0.704700
     11 O10         2.1120   -0.0380    6.3680 o         1 SVB     -0.506500
     12 S11         2.9230   -4.8530    5.1230 sh        1 SVB      0.062000
     13 C12         3.6970   -0.0850    1.2630 c2        1 SVB      0.028200
     14 CL2         4.7010   -1.3560    1.7760 cl        1 SVB     -0.007400
     15 C13         3.8580    0.1710   -0.2650 c3        1 SVB      0.183000
     16 CL3         5.5000    0.6180   -0.6540 cl        1 SVB     -0.083400
     17 C14         2.8990    1.2260   -0.4660 c1        1 SVB     -0.108100
     18 C15         2.1660    1.8250    0.2940 c1        1 SVB     -0.108100
     19 H1          2.4210    1.1690    4.1540 ha        1 SVB      0.190000
     20 H3          2.7210   -5.1810    6.3970 hs        1 SVB      0.232800
     21 H4          1.2750   -1.9970    7.7710 h4        1 SVB      0.186000
     22 H6          3.6250   -0.7690   -0.8350 h1        1 SVB      0.129700
     23 H7          0.8790    1.5290    1.9960 h1        1 SVB      0.116700
     24 C5          2.8950   -3.3840    8.2820 c2        1 SVB      0.505300
     25 N1          2.4160   -3.3310    9.7540 n4        1 SVB     -0.452600
     26 H8          1.6210   -3.9790    9.8510 hn        1 SVB      0.465300
     27 N2          3.3280   -3.7030   10.7580 n3        1 SVB     -0.566000
     28 C11         4.2910   -2.6800   11.1550 c3        1 SVB      0.093100
     29 C7          2.8790    1.6510   10.2870 c2        1 SVB      0.048500
     30 N3          2.1230    0.5330   10.6760 nh        1 SVB     -0.647800
     31 C17         1.2450   -0.0580    9.7800 c2        1 SVB      0.048500
     32 C18         0.3390   -1.0060   10.1070 c2        1 SVB     -0.337500
     33 C10         3.4470    2.5170   11.1390 c2        1 SVB     -0.337500
     34 O1          3.8510   -4.1570    8.0720 o         1 SVB     -0.652300
     35 H2          3.7600   -1.7620   11.5220 h1        1 SVB      0.080033
     36 H5          4.8650   -3.1300   12.0110 h1        1 SVB      0.080033
     37 H9          5.0100   -2.3890   10.3430 h1        1 SVB      0.080033
     38 H10         3.0140    1.7450    9.1910 h4        1 SVB      0.152500
     39 H11         1.3870    0.2440    8.7180 h4        1 SVB      0.152500
     40 H12        -0.3090   -1.4410    9.3370 ha        1 SVB      0.131500
     41 H13         3.8440   -4.5150   10.4130 hn        1 SVB      0.412800
     42 H14         0.1110   -1.3010   11.1370 ha        1 SVB      0.131500
     43 H15         3.3330    2.4730   12.2290 ha        1 SVB      0.131500
     44 H16         1.8690    0.4930   11.6410 hn        1 SVB      0.421800
     45 H17         4.0760    3.3340   10.7640 ha        1 SVB      0.131500
     46 H121        2.0670   -2.3690    9.9520 hn        1 SVB      0.465300
@<TRIPOS>BOND
     1    1    2 1   
     2    2    3 1   
     3    2   18 1   
     4    2   23 1   
     5    3    4 1   
     6    3   13 2   
     7    4    5 2   
     8    4   19 1   
     9    5    6 1   
    10    5   10 1   
    11    6    7 1   
    12    7    8 2   
    13    7   12 1   
    14    8    9 1   
    15    8   10 1   
    16    9   21 1   
    17    9   24 2   
    18   10   11 2   
    19   12   20 1   
    20   13   14 1   
    21   13   15 1   
    22   15   16 1   
    23   15   17 1   
    24   15   22 1   
    25   17   18 3   
    26   24   25 1   
    27   24   34 1   
    28   25   26 1   
    29   25   27 1   
    30   25   46 1   
    31   27   28 1   
    32   27   41 1   
    33   28   35 1   
    34   28   36 1   
    35   28   37 1   
    36   29   30 1   
    37   29   33 2   
    38   29   38 1   
    39   30   31 1   
    40   30   44 1   
    41   31   32 2   
    42   31   39 1   
    43   32   40 1   
    44   32   42 1   
    45   33   43 1   
    46   33   45 1   
@<TRIPOS>SUBSTRUCTURE
     1 SVB         1 TEMP              0 ****  ****    0 ROOT
