@<TRIPOS>MOLECULE
SVB
   46    46     1     0     0
SMALL
bcc


@<TRIPOS>ATOM
      1 Cl1         0.0580    1.9630    1.5200 cl        1 SVB     -0.032000
      2 C1          0.4480    0.3550    0.9450 c3        1 SVB      0.103000
      3 C2          1.8530   -0.1040    1.4580 c2        1 SVB     -0.125000
      4 C3          1.8490   -0.2050    2.9020 c2        1 SVB      0.053000
      5 C4          2.5240   -1.0520    3.7060 c2        1 SVB     -0.413000
      6 S5          3.7140   -2.2180    3.3550 ss        1 SVB      0.568000
      7 C6          3.7410   -2.8430    4.9670 c2        1 SVB     -0.360000
      8 N7          2.9660   -2.1370    5.8230 n         1 SVB     -0.064000
      9 C8          2.7820   -2.3340    7.1910 c2        1 SVB     -0.424000
     10 C9          2.2280   -1.0600    5.1630 c2        1 SVB      0.336000
     11 O10         1.4720   -0.3230    5.7860 o         1 SVB     -0.213000
     12 S11         4.6750   -4.1680    5.1930 sh        1 SVB      0.451000
     13 C12         2.9110   -0.3780    0.6390 c2        1 SVB     -0.054000
     14 Cl2         4.4220   -0.8530    1.2550 cl        1 SVB      0.076000
     15 C13         2.9350   -0.3280   -0.9170 c3        1 SVB      0.093000
     16 Cl3         4.1140    0.8250   -1.4880 cl        1 SVB     -0.011000
     17 C14         1.5720    0.0390   -1.1980 c1        1 SVB     -0.137000
     18 C15         0.6250    0.2940   -0.4810 c1        1 SVB     -0.135000
     19 H1          1.1370    0.4960    3.4050 ha        1 SVB      0.192000
     20 H3          4.6610   -4.3390    6.5130 hs        1 SVB      0.059000
     21 H4          1.7330   -2.2050    7.5050 h4        1 SVB      0.184000
     22 H6          3.2280   -1.3330   -1.3260 h1        1 SVB      0.168000
     23 H7         -0.3440   -0.3350    1.3380 h1        1 SVB      0.157000
     24 C5          3.8270   -2.4520    8.1010 c2        1 SVB      0.237000
     25 N1          3.4180   -2.4670    9.5880 ny        1 SVB     -0.026000
     26 H8          2.6630   -3.1500    9.7250 hn        1 SVB      0.248500
     27 N2          3.0000   -1.2540   10.1960 n3        1 SVB     -0.225000
     28 C11         1.6380   -0.7950    9.8150 c3        1 SVB     -0.118000
     29 C7          0.8770    0.0360   10.7640 c1        1 SVB     -0.128000
     30 N3          1.0750    0.4060   11.9910 n7        1 SVB     -0.113000
     31 C17         2.1330    0.1360   12.8970 c2        1 SVB     -0.152000
     32 C18         3.9780   -0.1710   10.0530 c3        1 SVB     -0.171000
     33 C10         2.3710    0.8510   14.0050 c2        1 SVB     -0.203000
     34 O1          5.0530   -2.6240    7.9510 o         1 SVB     -0.384000
     35 H2          1.6690   -0.1980    8.8510 h1        1 SVB      0.136500
     36 H5          0.9610   -1.6880    9.6370 h1        1 SVB      0.136500
     37 H9          6.5590   -2.5070    9.8880 ha        1 SVB      0.002000
     38 H10         6.3440   -2.4280   10.5260 ha        1 SVB      0.002000
     39 H11         2.7490   -0.7450   12.6390 h4        1 SVB      0.153000
     40 H12         3.6270    0.6570   10.7250 h1        1 SVB      0.114667
     41 H13         4.9920   -0.5100   10.3970 h1        1 SVB      0.114667
     42 H14         4.0620    0.2180    9.0020 h1        1 SVB      0.114667
     43 H15         0.3500    0.9990   12.3650 hn        1 SVB      0.260000
     44 H16         1.7810    1.7240   14.3150 ha        1 SVB      0.139000
     45 H17         3.1960    0.5810   14.6790 ha        1 SVB      0.139000
     46 H121        4.2560   -2.7760   10.1160 hn        1 SVB      0.248500
@<TRIPOS>BOND
     1    1    2 1   
     2    2    3 1   
     3    2   18 1   
     4    2   23 1   
     5    3    4 1   
     6    3   13 1   
     7    4    5 1   
     8    4   19 1   
     9    5    6 1   
    10    5   10 1   
    11    6    7 1   
    12    7    8 1   
    13    7   12 1   
    14    8    9 1   
    15    8   10 1   
    16    9   21 1   
    17    9   24 1   
    18   10   11 1   
    19   12   20 1   
    20   13   14 1   
    21   13   15 1   
    22   15   16 1   
    23   15   17 1   
    24   15   22 1   
    25   17   18 1   
    26   24   25 1   
    27   24   34 1   
    28   25   26 1   
    29   25   27 1   
    30   25   46 1   
    31   27   28 1   
    32   27   32 1   
    33   28   29 1   
    34   28   35 1   
    35   28   36 1   
    36   29   30 1   
    37   30   31 1   
    38   30   43 1   
    39   31   33 1   
    40   31   39 1   
    41   32   40 1   
    42   32   41 1   
    43   32   42 1   
    44   33   44 1   
    45   33   45 1   
    46   37   38 1   
@<TRIPOS>SUBSTRUCTURE
     1 SVB         1 TEMP              0 ****  ****    0 ROOT
