@<TRIPOS>MOLECULE
SVC
   75    74     1     0     0
SMALL
bcc


@<TRIPOS>ATOM
      1 CAA        -0.2840    0.8180    0.1400 c         1 SVC      0.630100
      2 OAB         0.8350    0.5580   -0.2900 o         1 SVC     -0.522100
      3 CAC        -0.7080    1.6910    1.2560 c3        1 SVC     -0.204100
      4 N          -1.4010    0.0930   -0.6290 n4        1 SVC     -0.708800
      5 CA         -0.9930   -0.4310   -1.9780 c3        1 SVC      0.082500
      6 C           0.2190   -1.3700   -1.8200 c         1 SVC      0.537100
      7 O           0.2420   -2.3320   -1.0720 o         1 SVC     -0.368100
      8 CB         -0.8190    0.6760   -3.0200 c3        1 SVC     -0.132400
      9 CG         -2.0570    1.5640   -3.1870 c3        1 SVC     -0.070700
     10 CD1        -1.8250    2.4930   -4.3670 c3        1 SVC     -0.118100
     11 CD2        -3.3190    0.7570   -3.4000 c3        1 SVC     -0.118100
     12 NAL         1.4760   -1.1080   -2.6370 n4        1 SVC     -0.674800
     13 CAM         2.2920   -2.3530   -2.9150 c3        1 SVC      0.067500
     14 CAN         3.7950   -2.0130   -3.0150 c         1 SVC      0.524100
     15 OAO         4.2650   -0.8910   -2.8930 o         1 SVC     -0.384100
     16 CAP         1.8400   -3.0810   -4.1950 c3        1 SVC     -0.139400
     17 CAQ         1.7630   -4.5960   -3.9780 c3        1 SVC     -0.059700
     18 CAS         0.4320   -4.9930   -3.3760 c3        1 SVC     -0.115100
     19 CAR         1.9850   -5.3000   -5.3020 c3        1 SVC     -0.115100
     20 OAW         4.7950   -3.3050   -5.9750 oh        1 SVC     -0.651800
     21 NAT         4.7300   -3.1610   -3.2680 n4        1 SVC     -0.664800
     22 NBA        10.8490   -4.2420   -4.5000 n4        1 SVC     -0.791000
     23 NBC        11.5590   -6.6620   -4.4750 n2        1 SVC     -0.570100
     24 NBD        13.2430   -5.0340   -4.8290 n4        1 SVC     -0.820600
     25 CAU         6.0170   -2.7750   -3.9890 c3        1 SVC      0.131500
     26 CAX         7.0310   -3.9390   -3.9640 c3        1 SVC     -0.105400
     27 CAY         8.4580   -3.4500   -4.1990 c3        1 SVC     -0.103400
     28 CAZ         9.4150   -4.6520   -4.2660 c3        1 SVC      0.105800
     29 CBB        11.8090   -5.4250   -4.5840 c2        1 SVC      0.622100
     30 CAV         5.6970   -2.3530   -5.4470 c3        1 SVC      0.112400
     31 HAC1       -1.7820    1.5790    1.5560 hc        1 SVC      0.157700
     32 HAC2       -0.5230    2.7680    0.9690 hc        1 SVC      0.157700
     33 HAC3       -0.0580    1.4720    2.1550 hc        1 SVC      0.157700
     34 HN         -2.1900    0.7520   -0.7790 hn        1 SVC      0.504300
     35 HA         -1.8460   -1.1120   -2.3370 hx        1 SVC      0.188700
     36 HB1         0.0560    1.3300   -2.7610 hc        1 SVC      0.080700
     37 HB2        -0.6370    0.1820   -4.0150 hc        1 SVC      0.080700
     38 HG         -2.1750    2.2100   -2.2710 hc        1 SVC      0.052700
     39 HD11       -1.7770    1.9200   -5.3240 hc        1 SVC      0.070533
     40 HD12       -0.8810    3.0740   -4.2370 hc        1 SVC      0.070533
     41 HD13       -2.6750    3.2200   -4.4430 hc        1 SVC      0.070533
     42 HD21       -4.1700    1.4480   -3.6470 hc        1 SVC      0.070533
     43 HD22       -3.6060    0.1850   -2.4840 hc        1 SVC      0.070533
     44 HD23       -3.2080    0.0480   -4.2550 hc        1 SVC      0.070533
     45 HNAL        2.0380   -0.4210   -2.0980 hn        1 SVC      0.493800
     46 HAM         2.1520   -3.0440   -2.0160 hx        1 SVC      0.177700
     47 HAP1        2.5410   -2.8420   -5.0430 hc        1 SVC      0.104200
     48 HAP2        0.8220   -2.7350   -4.5260 hc        1 SVC      0.104200
     49 HAQ         2.5750   -4.9130   -3.2620 hc        1 SVC      0.010700
     50 HAS1        0.4310   -6.0880   -3.1390 hc        1 SVC      0.070700
     51 HAS2        0.2390   -4.4280   -2.4320 hc        1 SVC      0.070700
     52 HAS3       -0.4040   -4.8060   -4.0950 hc        1 SVC      0.070700
     53 HAR1        2.9830   -5.0320   -5.7290 hc        1 SVC      0.070700
     54 HAR2        1.9380   -6.4090   -5.1550 hc        1 SVC      0.070700
     55 HAR3        1.1920   -5.0220   -6.0400 hc        1 SVC      0.070700
     56 HOAW        4.8260   -3.2590   -6.9450 ho        1 SVC      0.488000
     57 HNAT        4.2430   -3.8650   -3.8610 hn        1 SVC      0.493800
     58 HNBA       11.1400   -3.6220   -3.7260 hn        1 SVC      0.485300
     59 HNBC       10.6730   -7.1010   -4.3130 hn        1 SVC      0.548400
     60 HBD1       13.6080   -4.4470   -4.0600 hn        1 SVC      0.525133
     61 HBD2       13.3480   -4.5460   -5.7350 hn        1 SVC      0.525133
     62 HAU         6.4430   -1.8790   -3.4420 hx        1 SVC      0.136700
     63 HAX1        6.7420   -4.6760   -4.7650 hc        1 SVC      0.093700
     64 HAX2        6.9990   -4.4730   -2.9750 hc        1 SVC      0.093700
     65 HAY1        8.5060   -2.8690   -5.1600 hc        1 SVC      0.093700
     66 HAY2        8.7590   -2.7610   -3.3630 hc        1 SVC      0.093700
     67 HAZ1        9.1040   -5.3280   -5.1170 hx        1 SVC      0.129200
     68 HAZ2        9.3720   -5.2190   -3.2910 hx        1 SVC      0.129200
     69 HAV1        5.2190   -1.3350   -5.4530 h1        1 SVC      0.086200
     70 HAV2        6.6530   -2.3140   -6.0320 h1        1 SVC      0.086200
     71 H2         -1.7470   -0.6850   -0.0440 hn        1 SVC      0.504300
     72 HAL2        1.2120   -0.6720   -3.5340 hn        1 SVC      0.493800
     73 HAT2        4.9660   -3.5930   -2.3630 hn        1 SVC      0.493800
     74 HBA2       10.8930   -3.7050   -5.3820 hn        1 SVC      0.485300
     75 HBD3       13.8340   -5.9030   -4.8700 hn        1 SVC      0.525133
@<TRIPOS>BOND
     1    1    2 2   
     2    1    3 1   
     3    1    4 1   
     4    3   31 1   
     5    3   32 1   
     6    3   33 1   
     7    4    5 1   
     8    4   34 1   
     9    4   71 1   
    10    5    6 1   
    11    5    8 1   
    12    5   35 1   
    13    6    7 2   
    14    6   12 1   
    15    8    9 1   
    16    8   36 1   
    17    8   37 1   
    18    9   10 1   
    19    9   11 1   
    20    9   38 1   
    21   10   39 1   
    22   10   40 1   
    23   10   41 1   
    24   11   42 1   
    25   11   43 1   
    26   11   44 1   
    27   12   13 1   
    28   12   45 1   
    29   12   72 1   
    30   13   14 1   
    31   13   16 1   
    32   13   46 1   
    33   14   15 2   
    34   14   21 1   
    35   16   17 1   
    36   16   47 1   
    37   16   48 1   
    38   17   18 1   
    39   17   19 1   
    40   17   49 1   
    41   18   50 1   
    42   18   51 1   
    43   18   52 1   
    44   19   53 1   
    45   19   54 1   
    46   19   55 1   
    47   20   30 1   
    48   20   56 1   
    49   21   25 1   
    50   21   57 1   
    51   21   73 1   
    52   22   28 1   
    53   22   29 1   
    54   22   58 1   
    55   22   74 1   
    56   23   29 2   
    57   23   59 1   
    58   24   29 1   
    59   24   60 1   
    60   24   61 1   
    61   24   75 1   
    62   25   26 1   
    63   25   30 1   
    64   25   62 1   
    65   26   27 1   
    66   26   63 1   
    67   26   64 1   
    68   27   28 1   
    69   27   65 1   
    70   27   66 1   
    71   28   67 1   
    72   28   68 1   
    73   30   69 1   
    74   30   70 1   
@<TRIPOS>SUBSTRUCTURE
     1 SVC         1 TEMP              0 ****  ****    0 ROOT
