@<TRIPOS>MOLECULE
SVC
   75    74     1     0     0
SMALL
bcc


@<TRIPOS>ATOM
      1 CAA        -0.3640    0.6490    0.1760 c         1 SVC      0.631100
      2 OAB         0.7620    0.3790   -0.2290 o         1 SVC     -0.524100
      3 CAC        -0.8040    1.4370    1.3470 c3        1 SVC     -0.204100
      4 N          -1.4710    0.0440   -0.7020 n4        1 SVC     -0.708800
      5 CA         -1.0250   -0.3690   -2.0770 c3        1 SVC      0.081500
      6 C           0.1470   -1.3630   -1.9610 c         1 SVC      0.537100
      7 O           0.1080   -2.3890   -1.3050 o         1 SVC     -0.370100
      8 CB         -0.7700    0.8230   -3.0030 c3        1 SVC     -0.133400
      9 CG         -1.9720    1.7660   -3.1360 c3        1 SVC     -0.070700
     10 CD1        -1.6590    2.7900   -4.2140 c3        1 SVC     -0.118100
     11 CD2        -3.2490    1.0290   -3.4710 c3        1 SVC     -0.118100
     12 NAL         1.4460   -1.0770   -2.6970 n4        1 SVC     -0.676800
     13 CAM         2.1890   -2.3340   -3.1190 c3        1 SVC      0.067500
     14 CAN         3.6790   -2.0090   -3.3540 c         1 SVC      0.522100
     15 OAO         4.1160   -0.8800   -3.5200 o         1 SVC     -0.384100
     16 CAP         1.5500   -2.9240   -4.3910 c3        1 SVC     -0.123400
     17 CAQ         1.8870   -4.3840   -4.6830 c3        1 SVC     -0.080700
     18 CAS         1.8210   -5.2720   -3.4610 c3        1 SVC     -0.114100
     19 CAR         0.9060   -4.8890   -5.7350 c3        1 SVC     -0.114100
     20 OAW         5.0440   -3.9740   -5.9800 oh        1 SVC     -0.646800
     21 NAT         4.6450   -3.1590   -3.3680 n4        1 SVC     -0.668800
     22 NBA        10.8320   -4.2910   -4.2280 n4        1 SVC     -0.791000
     23 NBC        11.5900   -6.6360   -3.6930 n2        1 SVC     -0.570100
     24 NBD        13.2380   -5.0920   -4.4090 n4        1 SVC     -0.820600
     25 CAU         5.9620   -2.8700   -4.0860 c3        1 SVC      0.136500
     26 CAX         7.0060   -3.9630   -3.7710 c3        1 SVC     -0.105400
     27 CAY         8.4240   -3.5020   -4.0950 c3        1 SVC     -0.102400
     28 CAZ         9.4050   -4.6710   -3.9060 c3        1 SVC      0.105800
     29 CBB        11.8140   -5.4470   -4.0680 c2        1 SVC      0.621100
     30 CAV         5.7100   -2.7820   -5.6120 c3        1 SVC      0.111400
     31 HAC1       -0.1980    1.1190    2.2460 hc        1 SVC      0.158033
     32 HAC2       -1.8920    1.3370    1.5960 hc        1 SVC      0.158033
     33 HAC3       -0.5750    2.5280    1.1610 hc        1 SVC      0.158033
     34 HN         -2.2290    0.7460   -0.8210 hn        1 SVC      0.504300
     35 HA         -1.8840   -0.9810   -2.5320 hx        1 SVC      0.188700
     36 HB1        -0.5630    0.4170   -4.0320 hc        1 SVC      0.082200
     37 HB2         0.1130    1.4190   -2.6500 hc        1 SVC      0.082200
     38 HG         -2.1070    2.3300   -2.1690 hc        1 SVC      0.052700
     39 HD11       -0.7030    3.3220   -3.9950 hc        1 SVC      0.070533
     40 HD12       -1.5900    2.3050   -5.2180 hc        1 SVC      0.070533
     41 HD13       -2.4810    3.5520   -4.2560 hc        1 SVC      0.070533
     42 HD21       -3.5930    0.3870   -2.6250 hc        1 SVC      0.070533
     43 HD22       -3.1250    0.3970   -4.3840 hc        1 SVC      0.070533
     44 HD23       -4.0650    1.7700   -3.6870 hc        1 SVC      0.070533
     45 HNAL        2.0310   -0.5080   -2.0590 hn        1 SVC      0.492300
     46 HAM         2.0910   -3.0790   -2.2630 hx        1 SVC      0.173700
     47 HAP1        1.8260   -2.2990   -5.2820 hc        1 SVC      0.099200
     48 HAP2        0.4280   -2.8710   -4.2720 hc        1 SVC      0.099200
     49 HAQ         2.9130   -4.4410   -5.1500 hc        1 SVC      0.049700
     50 HAS1        1.9040   -6.3480   -3.7700 hc        1 SVC      0.068200
     51 HAS2        2.6510   -5.0560   -2.7430 hc        1 SVC      0.068200
     52 HAS3        0.8440   -5.1580   -2.9290 hc        1 SVC      0.068200
     53 HAR1        1.2120   -5.9110   -6.0740 hc        1 SVC      0.068200
     54 HAR2       -0.1270   -4.9600   -5.3160 hc        1 SVC      0.068200
     55 HAR3        0.8930   -4.2140   -6.6240 hc        1 SVC      0.068200
     56 HOAW        5.0290   -4.0310   -6.9500 ho        1 SVC      0.486000
     57 HNAT        4.8450   -3.4260   -2.3940 hn        1 SVC      0.492800
     58 HNBA       11.1110   -3.5180   -3.6020 hn        1 SVC      0.485300
     59 HNBC       10.7140   -7.0440   -3.4290 hn        1 SVC      0.547400
     60 HBD1       13.5970   -4.3460   -3.7890 hn        1 SVC      0.525133
     61 HBD2       13.3260   -4.8090   -5.3990 hn        1 SVC      0.525133
     62 HAU         6.3260   -1.8630   -3.7190 hx        1 SVC      0.135700
     63 HAX1        6.7530   -4.8760   -4.3810 hc        1 SVC      0.094700
     64 HAX2        6.9660   -4.2470   -2.6840 hc        1 SVC      0.094700
     65 HAY1        8.7040   -2.6480   -3.4200 hc        1 SVC      0.093200
     66 HAY2        8.4710   -3.1340   -5.1560 hc        1 SVC      0.093200
     67 HAZ1        9.1100   -5.5200   -4.5910 hx        1 SVC      0.129200
     68 HAZ2        9.3740   -5.0170   -2.8310 hx        1 SVC      0.129200
     69 HAV1        6.6960   -2.6790   -6.1380 h1        1 SVC      0.084200
     70 HAV2        5.0740   -1.8870   -5.8520 h1        1 SVC      0.084200
     71 H2         -1.8710   -0.7700   -0.2070 hn        1 SVC      0.504300
     72 HAL2        1.2490   -0.5090   -3.5370 hn        1 SVC      0.492300
     73 HAT2        4.1980   -3.9670   -3.8480 hn        1 SVC      0.492800
     74 HBA2       10.8630   -3.9490   -5.2030 hn        1 SVC      0.485300
     75 HBD3       13.8460   -5.9380   -4.2680 hn        1 SVC      0.525133
@<TRIPOS>BOND
     1    1    2 2   
     2    1    3 1   
     3    1    4 1   
     4    3   31 1   
     5    3   32 1   
     6    3   33 1   
     7    4    5 1   
     8    4   34 1   
     9    4   71 1   
    10    5    6 1   
    11    5    8 1   
    12    5   35 1   
    13    6    7 2   
    14    6   12 1   
    15    8    9 1   
    16    8   36 1   
    17    8   37 1   
    18    9   10 1   
    19    9   11 1   
    20    9   38 1   
    21   10   39 1   
    22   10   40 1   
    23   10   41 1   
    24   11   42 1   
    25   11   43 1   
    26   11   44 1   
    27   12   13 1   
    28   12   45 1   
    29   12   72 1   
    30   13   14 1   
    31   13   16 1   
    32   13   46 1   
    33   14   15 2   
    34   14   21 1   
    35   16   17 1   
    36   16   47 1   
    37   16   48 1   
    38   17   18 1   
    39   17   19 1   
    40   17   49 1   
    41   18   50 1   
    42   18   51 1   
    43   18   52 1   
    44   19   53 1   
    45   19   54 1   
    46   19   55 1   
    47   20   30 1   
    48   20   56 1   
    49   21   25 1   
    50   21   57 1   
    51   21   73 1   
    52   22   28 1   
    53   22   29 1   
    54   22   58 1   
    55   22   74 1   
    56   23   29 2   
    57   23   59 1   
    58   24   29 1   
    59   24   60 1   
    60   24   61 1   
    61   24   75 1   
    62   25   26 1   
    63   25   30 1   
    64   25   62 1   
    65   26   27 1   
    66   26   63 1   
    67   26   64 1   
    68   27   28 1   
    69   27   65 1   
    70   27   66 1   
    71   28   67 1   
    72   28   68 1   
    73   30   69 1   
    74   30   70 1   
@<TRIPOS>SUBSTRUCTURE
     1 SVC         1 TEMP              0 ****  ****    0 ROOT
