@<TRIPOS>MOLECULE
SVC
   70    69     1     0     0
SMALL
bcc


@<TRIPOS>ATOM
      1 CAA         4.2310    2.3500   -1.5300 c         1 SVC      0.656100
      2 OAB         3.5340    3.1150   -0.8410 o         1 SVC     -0.587100
      3 CAC         4.8480    2.8230   -2.8280 c3        1 SVC     -0.180100
      4 N           4.5600    1.0500   -1.1300 n         1 SVC     -0.528900
      5 CA          3.8320    0.2960   -0.1400 c3        1 SVC      0.043700
      6 C           2.5800   -0.4040   -0.7440 c         1 SVC      0.621100
      7 O           2.1540   -0.1250   -1.8820 o         1 SVC     -0.611100
      8 CB          3.4070    1.0670    1.1160 c3        1 SVC     -0.078400
      9 CG          4.5680    1.7180    1.8530 c3        1 SVC     -0.062700
     10 CD1         4.0270    2.5150    3.0260 c3        1 SVC     -0.092100
     11 CD2         5.5790    0.7000    2.3360 c3        1 SVC     -0.092100
     12 NAL         2.0140   -1.4200    0.0030 n         1 SVC     -0.552900
     13 CAM         0.7690   -2.0450   -0.3770 c3        1 SVC      0.033700
     14 CAN        -0.3320   -1.7240    0.6690 c         1 SVC      0.628100
     15 OAO        -0.0910   -1.8160    1.8900 o         1 SVC     -0.618100
     16 CAP         0.8900   -3.5770   -0.4620 c3        1 SVC     -0.086400
     17 CAQ        -0.3280   -4.2350   -1.0940 c3        1 SVC     -0.074700
     18 CAS        -0.4620   -3.8850   -2.5610 c3        1 SVC     -0.091100
     19 CAR        -0.2230   -5.7390   -0.9270 c3        1 SVC     -0.091100
     20 OAW        -3.6960   -3.1920    0.0900 oh        1 SVC     -0.610800
     21 NAT        -1.5530   -1.2920    0.1910 n         1 SVC     -0.528900
     22 NBA        -4.1440    3.4160   -0.1660 nh        1 SVC     -0.791200
     23 NBC        -5.0530    5.3680    0.8380 n2        1 SVC     -0.872100
     24 NBD        -6.4040    4.1120   -0.7530 nh        1 SVC     -0.929800
     25 CAU        -2.7080   -1.2300    1.0600 c3        1 SVC      0.095700
     26 CAX        -3.8020   -0.3020    0.5130 c3        1 SVC     -0.080400
     27 CAY        -3.3380    1.1330    0.4090 c3        1 SVC     -0.092400
     28 CAZ        -4.5180    2.0250    0.0190 c3        1 SVC      0.170800
     29 CBB        -5.2190    4.3670    0.0090 c2        1 SVC      0.741100
     30 CAV        -3.3290   -2.6200    1.3350 c3        1 SVC      0.095400
     31 HAC1        4.6300    3.9120   -2.9520 hc        1 SVC      0.067700
     32 HAC2        5.9540    2.6710   -2.8250 hc        1 SVC      0.067700
     33 HAC3        4.4020    2.2630   -3.6850 hc        1 SVC      0.067700
     34 HN          4.9030    0.4720   -1.8690 hn        1 SVC      0.296500
     35 HA          4.5400   -0.5320    0.1840 h1        1 SVC      0.070700
     36 HB1         2.6640    1.8610    0.8340 hc        1 SVC      0.067200
     37 HB2         2.9000    0.3510    1.8160 hc        1 SVC      0.067200
     38 HG          5.0790    2.4350    1.1500 hc        1 SVC      0.066700
     39 HD11        3.3030    3.2860    2.6690 hc        1 SVC      0.034033
     40 HD12        3.5060    1.8450    3.7510 hc        1 SVC      0.034033
     41 HD13        4.8630    3.0310    3.5570 hc        1 SVC      0.034033
     42 HD21        6.1010    0.2200    1.4740 hc        1 SVC      0.034033
     43 HD22        6.3480    1.1970    2.9760 hc        1 SVC      0.034033
     44 HD23        5.0810   -0.0960    2.9400 hc        1 SVC      0.034033
     45 HNAL        2.2760   -1.5280    0.9570 hn        1 SVC      0.324500
     46 HAM         0.4800   -1.6450   -1.3970 h1        1 SVC      0.103700
     47 HAP1        1.7980   -3.8400   -1.0670 hc        1 SVC      0.059200
     48 HAP2        1.0370   -3.9880    0.5720 hc        1 SVC      0.059200
     49 HAQ        -1.2590   -3.8900   -0.5570 hc        1 SVC      0.055700
     50 HAS1        0.4850   -4.1090   -3.1090 hc        1 SVC      0.036200
     51 HAS2       -1.2870   -4.4800   -3.0230 hc        1 SVC      0.036200
     52 HAS3       -0.6990   -2.8020   -2.6920 hc        1 SVC      0.036200
     53 HAR1       -0.1590   -6.0100    0.1540 hc        1 SVC      0.036200
     54 HAR2       -1.1190   -6.2390   -1.3670 hc        1 SVC      0.036200
     55 HAR3        0.6870   -6.1280   -1.4440 hc        1 SVC      0.036200
     56 HOAW       -4.0540   -4.0670    0.2820 ho        1 SVC      0.405000
     57 HNAT       -1.7530   -1.4400   -0.7730 hn        1 SVC      0.313500
     58 HNBA       -3.3440    3.6660    0.3890 hn        1 SVC      0.406800
     59 HNBC       -5.7770    6.0530    0.8430 hn        1 SVC      0.390400
     60 HBD1       -6.2940    3.4630   -1.5010 hn        1 SVC      0.390800
     61 HBD2       -6.8730    4.9420   -1.0430 hn        1 SVC      0.390800
     62 HAU        -2.3550   -0.8340    2.0610 h1        1 SVC      0.088700
     63 HAX1       -4.1480   -0.6750   -0.4870 hc        1 SVC      0.055200
     64 HAX2       -4.6770   -0.3660    1.2130 hc        1 SVC      0.055200
     65 HAY1       -2.9130    1.4660    1.3920 hc        1 SVC      0.058200
     66 HAY2       -2.5230    1.2210   -0.3560 hc        1 SVC      0.058200
     67 HAZ1       -5.3270    1.9060    0.7960 h1        1 SVC      0.040700
     68 HAZ2       -4.9370    1.6580   -0.9620 h1        1 SVC      0.040700
     69 HAV1       -4.2340   -2.5020    1.9870 h1        1 SVC      0.037700
     70 HAV2       -2.5800   -3.2760    1.8540 h1        1 SVC      0.037700
@<TRIPOS>BOND
     1    1    2 2   
     2    1    3 1   
     3    1    4 1   
     4    3   31 1   
     5    3   32 1   
     6    3   33 1   
     7    4    5 1   
     8    4   34 1   
     9    5    6 1   
    10    5    8 1   
    11    5   35 1   
    12    6    7 2   
    13    6   12 1   
    14    8    9 1   
    15    8   36 1   
    16    8   37 1   
    17    9   10 1   
    18    9   11 1   
    19    9   38 1   
    20   10   39 1   
    21   10   40 1   
    22   10   41 1   
    23   11   42 1   
    24   11   43 1   
    25   11   44 1   
    26   12   13 1   
    27   12   45 1   
    28   13   14 1   
    29   13   16 1   
    30   13   46 1   
    31   14   15 2   
    32   14   21 1   
    33   16   17 1   
    34   16   47 1   
    35   16   48 1   
    36   17   18 1   
    37   17   19 1   
    38   17   49 1   
    39   18   50 1   
    40   18   51 1   
    41   18   52 1   
    42   19   53 1   
    43   19   54 1   
    44   19   55 1   
    45   20   30 1   
    46   20   56 1   
    47   21   25 1   
    48   21   57 1   
    49   22   28 1   
    50   22   29 1   
    51   22   58 1   
    52   23   29 2   
    53   23   59 1   
    54   24   29 1   
    55   24   60 1   
    56   24   61 1   
    57   25   26 1   
    58   25   30 1   
    59   25   62 1   
    60   26   27 1   
    61   26   63 1   
    62   26   64 1   
    63   27   28 1   
    64   27   65 1   
    65   27   66 1   
    66   28   67 1   
    67   28   68 1   
    68   30   69 1   
    69   30   70 1   
@<TRIPOS>SUBSTRUCTURE
     1 SVC         1 TEMP              0 ****  ****    0 ROOT
