@<TRIPOS>MOLECULE
SVC
   70    67     1     0     0
SMALL
bcc


@<TRIPOS>ATOM
      1 CAA         1.8240   -1.4030    5.4610 c1        1 SVC      0.304000
      2 OAB         3.0090   -1.4440    5.1460 o         1 SVC     -0.369000
      3 CAC         1.4250   -1.0740    6.9020 c3        1 SVC     -0.241000
      4 N           0.8040   -1.6160    4.4620 n2        1 SVC     -0.369000
      5 CA          1.1650   -1.9130    3.1400 c3        1 SVC      0.019000
      6 C           0.6790   -0.7880    2.2140 c2        1 SVC      0.278000
      7 O          -0.4720   -0.3960    2.2860 o         1 SVC     -0.400000
      8 CB          0.5220   -3.2230    2.7240 c3        1 SVC     -0.164000
      9 CG          1.5660   -4.3710    2.8370 c3        1 SVC     -0.104000
     10 CD1         1.2870   -5.1940    4.0890 c3        1 SVC     -0.209000
     11 CD2         1.4710   -5.2720    1.6010 c3        1 SVC     -0.209000
     12 NAL         1.5900   -0.2030    1.2350 n         1 SVC     -0.366000
     13 CAM         1.2720    1.0700    0.6140 c3        1 SVC      0.013000
     14 CAN         0.9870    0.8560   -0.8660 c2        1 SVC      0.285000
     15 OAO         1.7280    0.1690   -1.5310 o         1 SVC     -0.387000
     16 CAP         2.4240    2.0010    0.7650 c3        1 SVC     -0.162000
     17 CAQ         1.9070    3.3890    1.1420 c3        1 SVC     -0.104000
     18 CAS         2.0530    3.5940    2.6440 c3        1 SVC     -0.210500
     19 CAR         2.7120    4.4540    0.4010 c3        1 SVC     -0.210500
     20 OAW         1.1040    1.1630   -4.6670 oh        1 SVC     -0.336000
     21 NAT        -0.1410    1.4700   -1.4680 n         1 SVC     -0.378000
     22 NBA        -4.4610    0.1750   -5.5790 n3        1 SVC     -0.327000
     23 NBC        -5.8290    1.1220   -7.2630 n1        1 SVC     -0.344000
     24 NBD        -6.8950   -0.0630   -5.5050 n3        1 SVC     -0.320000
     25 CAU        -0.4580    1.1860   -2.8150 c3        1 SVC     -0.013000
     26 CAX        -1.9110    1.5230   -3.0790 c3        1 SVC     -0.165000
     27 CAY        -2.4200    0.6930   -4.3000 c3        1 SVC     -0.168000
     28 CAZ        -3.8680    1.1410   -4.6730 c3        1 SVC     -0.058000
     29 CBB        -5.7300    0.4270   -6.1430 c2        1 SVC      0.152000
     30 CAV         0.4410    2.0250   -3.7460 c3        1 SVC     -0.030000
     31 HAC1        1.0320   -1.8700    7.3230 hc        1 SVC      0.109333
     32 HAC2        0.7640   -0.3430    6.9000 hc        1 SVC      0.109333
     33 HAC3        2.2100   -0.7990    7.4000 hc        1 SVC      0.109333
     34 HN         -0.0880   -1.5590    4.6930 hn        1 SVC      0.235000
     35 HA          2.1730   -1.9940    3.0740 h1        1 SVC      0.139000
     36 HB1         0.2110   -3.1550    1.7970 hc        1 SVC      0.097000
     37 HB2        -0.2280   -3.4110    3.3020 hc        1 SVC      0.097000
     38 HG          2.4630   -3.9890    2.8930 hc        1 SVC      0.097000
     39 HD11        0.3300   -5.1770    4.2840 hc        1 SVC      0.075167
     40 HD12        1.5740   -6.1210    3.9420 hc        1 SVC      0.075167
     41 HD13        1.7800   -4.8160    4.8450 hc        1 SVC      0.075167
     42 HD21        0.5840   -5.6980    1.5720 hc        1 SVC      0.075167
     43 HD22        1.6020   -4.7290    0.7890 hc        1 SVC      0.075167
     44 HD23        2.1710   -5.9710    1.6460 hc        1 SVC      0.075167
     45 HNAL        2.3880   -0.6210    1.0430 hn        1 SVC      0.241000
     46 HAM         0.4690    1.4620    1.0530 h1        1 SVC      0.128000
     47 HAP1        2.9090    2.0540   -0.0770 hc        1 SVC      0.103000
     48 HAP2        3.0170    1.6750    1.4610 hc        1 SVC      0.103000
     49 HAQ         0.9520    3.4640    0.8890 hc        1 SVC      0.097000
     50 HAS1        1.9670    4.5520    2.8530 hc        1 SVC      0.075667
     51 HAS2        1.3520    3.0930    3.1120 hc        1 SVC      0.075667
     52 HAS3        2.9310    3.2740    2.9350 hc        1 SVC      0.075667
     53 HAR1        2.2500    5.3270    0.4730 hc        1 SVC      0.075667
     54 HAR2        3.6140    4.5260    0.8020 hc        1 SVC      0.075667
     55 HAR3        2.7940    4.2020   -0.5540 hc        1 SVC      0.075667
     56 HOAW        1.4800    1.6460   -5.3070 ho        1 SVC      0.226000
     57 HNAT       -0.6200    2.0840   -1.0100 hn        1 SVC      0.253000
     58 HNBA       -4.0030   -0.5640   -5.8140 hn        1 SVC      0.196000
     59 HNBC       -5.0750    1.4390   -7.6740 DU        1 SVC      0.148000
     60 HBD1       -7.6880   -0.0490   -5.9380 hn        1 SVC      0.187000
     61 HBD2       -6.8440   -0.4000   -4.6560 hn        1 SVC      0.187000
     62 HAU        -0.3050    0.2100   -2.9940 h1        1 SVC      0.119000
     63 HAX1       -2.4500    1.3030   -2.2830 hc        1 SVC      0.091000
     64 HAX2       -1.9940    2.4780   -3.2760 hc        1 SVC      0.091000
     65 HAY1       -1.8330    0.8410   -5.0560 hc        1 SVC      0.096500
     66 HAY2       -2.4220   -0.2630   -4.0670 hc        1 SVC      0.096500
     67 HAZ1       -3.8360    2.0150   -5.1070 h1        1 SVC      0.079000
     68 HAZ2       -4.4190    1.2010   -3.8500 h1        1 SVC      0.079000
     69 HAV1       -0.1120    2.6720   -4.2420 h1        1 SVC      0.086000
     70 HAV2        1.1130    2.5110   -3.2070 h1        1 SVC      0.086000
@<TRIPOS>BOND
     1    1    2 1   
     2    1    3 1   
     3    3   31 1   
     4    3   32 1   
     5    3   33 1   
     6    4    5 1   
     7    4   34 1   
     8    5    6 1   
     9    5    8 1   
    10    5   35 1   
    11    6    7 1   
    12    6   12 1   
    13    8    9 1   
    14    8   36 1   
    15    8   37 1   
    16    9   10 1   
    17    9   11 1   
    18    9   38 1   
    19   10   39 1   
    20   10   40 1   
    21   10   41 1   
    22   11   42 1   
    23   11   43 1   
    24   11   44 1   
    25   12   13 1   
    26   12   45 1   
    27   13   14 1   
    28   13   16 1   
    29   13   46 1   
    30   14   15 1   
    31   14   21 1   
    32   16   17 1   
    33   16   47 1   
    34   16   48 1   
    35   17   18 1   
    36   17   19 1   
    37   17   49 1   
    38   18   50 1   
    39   18   51 1   
    40   18   52 1   
    41   19   53 1   
    42   19   54 1   
    43   19   55 1   
    44   20   30 1   
    45   20   56 1   
    46   21   25 1   
    47   21   57 1   
    48   22   28 1   
    49   22   29 1   
    50   22   58 1   
    51   23   29 1   
    52   24   29 1   
    53   24   60 1   
    54   24   61 1   
    55   25   26 1   
    56   25   30 1   
    57   25   62 1   
    58   26   27 1   
    59   26   63 1   
    60   26   64 1   
    61   27   28 1   
    62   27   65 1   
    63   27   66 1   
    64   28   67 1   
    65   28   68 1   
    66   30   69 1   
    67   30   70 1   
@<TRIPOS>SUBSTRUCTURE
     1 SVC         1 TEMP              0 ****  ****    0 ROOT
