@<TRIPOS>MOLECULE
SVC
   75    74     1     0     0
SMALL
bcc


@<TRIPOS>ATOM
      1 CAA        -0.3440    0.6330    0.2090 c         1 SVC      0.631100
      2 OAB         0.7800    0.3610   -0.2000 o         1 SVC     -0.524100
      3 CAC        -0.7780    1.4120    1.3890 c3        1 SVC     -0.204100
      4 N          -1.4560    0.0430   -0.6730 ny        1 SVC     -0.708800
      5 CA         -1.0130   -0.3590   -2.0530 c3        1 SVC      0.081500
      6 C           0.1530   -1.3600   -1.9480 c         1 SVC      0.537100
      7 O           0.1090   -2.3930   -1.3020 o         1 SVC     -0.370100
      8 CB         -0.7530    0.8410   -2.9680 c3        1 SVC     -0.133400
      9 CG         -1.9500    1.7920   -3.0890 c3        1 SVC     -0.070700
     10 CD1        -1.6330    2.8250   -4.1580 c3        1 SVC     -0.118100
     11 CD2        -3.2310    1.0650   -3.4300 c3        1 SVC     -0.118100
     12 NAL         1.4530   -1.0750   -2.6840 ny        1 SVC     -0.676800
     13 CAM         2.1880   -2.3310   -3.1180 c3        1 SVC      0.067500
     14 CAN         3.6790   -2.0120   -3.3540 c         1 SVC      0.522100
     15 OAO         4.1210   -0.8830   -3.5120 o         1 SVC     -0.384100
     16 CAP         1.5430   -2.9080   -4.3920 c3        1 SVC     -0.123400
     17 CAQ         1.8720   -4.3680   -4.6970 c3        1 SVC     -0.080700
     18 CAS         1.8050   -5.2650   -3.4820 c3        1 SVC     -0.114100
     19 CAR         0.8860   -4.8600   -5.7500 c3        1 SVC     -0.114100
     20 OAW         5.0280   -3.9620   -6.0000 oh        1 SVC     -0.646800
     21 NAT         4.6390   -3.1660   -3.3800 ny        1 SVC     -0.668800
     22 NBA        10.8190   -4.3200   -4.2660 ny        1 SVC     -0.791000
     23 NBC        11.5680   -6.6710   -3.7510 n2        1 SVC     -0.570100
     24 NBD        13.2200   -5.1300   -4.4600 nz        1 SVC     -0.820600
     25 CAU         5.9560   -2.8780   -4.1000 c3        1 SVC      0.136500
     26 CAX         6.9960   -3.9780   -3.7960 c3        1 SVC     -0.105400
     27 CAY         8.4150   -3.5200   -4.1210 c3        1 SVC     -0.102400
     28 CAZ         9.3920   -4.6950   -3.9430 c3        1 SVC      0.105800
     29 CBB        11.7960   -5.4810   -4.1170 c2        1 SVC      0.621100
     30 CAV         5.7000   -2.7770   -5.6230 c3        1 SVC      0.111400
     31 HAC1       -1.8660    1.3160    1.6380 hc        1 SVC      0.158033
     32 HAC2       -0.1720    1.0820    2.2840 hc        1 SVC      0.158033
     33 HAC3       -0.5420    2.5040    1.2130 hc        1 SVC      0.158033
     34 HN         -2.2100    0.7500   -0.7840 hn        1 SVC      0.504300
     35 HA         -1.8770   -0.9610   -2.5120 hx        1 SVC      0.188700
     36 HB1        -0.5500    0.4440   -4.0010 hc        1 SVC      0.082200
     37 HB2         0.1330    1.4280   -2.6090 hc        1 SVC      0.082200
     38 HG         -2.0800    2.3470   -2.1160 hc        1 SVC      0.052700
     39 HD11       -2.4500    3.5910   -4.1900 hc        1 SVC      0.070533
     40 HD12       -1.5680    2.3500   -5.1660 hc        1 SVC      0.070533
     41 HD13       -0.6730    3.3490   -3.9340 hc        1 SVC      0.070533
     42 HD21       -4.0440    1.8130   -3.6370 hc        1 SVC      0.070533
     43 HD22       -3.5780    0.4170   -2.5890 hc        1 SVC      0.070533
     44 HD23       -3.1130    0.4420   -4.3490 hc        1 SVC      0.070533
     45 HNAL        2.0410   -0.5140   -2.0410 hn        1 SVC      0.492300
     46 HAM         2.0880   -3.0840   -2.2680 hx        1 SVC      0.173700
     47 HAP1        0.4220   -2.8510   -4.2700 hc        1 SVC      0.099200
     48 HAP2        1.8200   -2.2770   -5.2790 hc        1 SVC      0.099200
     49 HAQ         2.8970   -4.4260   -5.1670 hc        1 SVC      0.049700
     50 HAS1        2.6380   -5.0590   -2.7650 hc        1 SVC      0.068200
     51 HAS2        1.8820   -6.3390   -3.7990 hc        1 SVC      0.068200
     52 HAS3        0.8310   -5.1510   -2.9460 hc        1 SVC      0.068200
     53 HAR1       -0.1470   -4.9290   -5.3290 hc        1 SVC      0.068200
     54 HAR2        0.8740   -4.1780   -6.6330 hc        1 SVC      0.068200
     55 HAR3        1.1860   -5.8810   -6.0970 hc        1 SVC      0.068200
     56 HOAW        5.0090   -4.0120   -6.9700 ho        1 SVC      0.486000
     57 HNAT        4.1880   -3.9690   -3.8650 hn        1 SVC      0.492800
     58 HNBA       10.8490   -3.9710   -5.2390 hn        1 SVC      0.485300
     59 HNBC       10.6910   -7.0780   -3.4880 hn        1 SVC      0.547400
     60 HBD1       13.5850   -4.3900   -3.8360 hn        1 SVC      0.525133
     61 HBD2       13.8250   -5.9790   -4.3270 hn        1 SVC      0.525133
     62 HAU         6.3250   -1.8750   -3.7260 hx        1 SVC      0.135700
     63 HAX1        6.7370   -4.8850   -4.4120 hc        1 SVC      0.094700
     64 HAX2        6.9580   -4.2700   -2.7110 hc        1 SVC      0.094700
     65 HAY1        8.4610   -3.1440   -5.1790 hc        1 SVC      0.093200
     66 HAY2        8.7000   -2.6730   -3.4400 hc        1 SVC      0.093200
     67 HAZ1        9.3620   -5.0490   -2.8710 hx        1 SVC      0.129200
     68 HAZ2        9.0900   -5.5380   -4.6340 hx        1 SVC      0.129200
     69 HAV1        5.0670   -1.8760   -5.8560 h1        1 SVC      0.084200
     70 HAV2        6.6850   -2.6740   -6.1520 h1        1 SVC      0.084200
     71 H2         -1.8600   -0.7730   -0.1860 hn        1 SVC      0.504300
     72 HAL2        1.2570   -0.4990   -3.5180 hn        1 SVC      0.492300
     73 HAT2        4.8410   -3.4420   -2.4090 hn        1 SVC      0.492800
     74 HBA2       11.1030   -3.5530   -3.6350 hn        1 SVC      0.485300
     75 HBD3       13.3070   -4.8410   -5.4490 hn        1 SVC      0.525133
@<TRIPOS>BOND
     1    1    2 2   
     2    1    3 1   
     3    1    4 1   
     4    3   31 1   
     5    3   32 1   
     6    3   33 1   
     7    4    5 1   
     8    4   34 1   
     9    4   71 1   
    10    5    6 1   
    11    5    8 1   
    12    5   35 1   
    13    6    7 2   
    14    6   12 1   
    15    8    9 1   
    16    8   36 1   
    17    8   37 1   
    18    9   10 1   
    19    9   11 1   
    20    9   38 1   
    21   10   39 1   
    22   10   40 1   
    23   10   41 1   
    24   11   42 1   
    25   11   43 1   
    26   11   44 1   
    27   12   13 1   
    28   12   45 1   
    29   12   72 1   
    30   13   14 1   
    31   13   16 1   
    32   13   46 1   
    33   14   15 2   
    34   14   21 1   
    35   16   17 1   
    36   16   47 1   
    37   16   48 1   
    38   17   18 1   
    39   17   19 1   
    40   17   49 1   
    41   18   50 1   
    42   18   51 1   
    43   18   52 1   
    44   19   53 1   
    45   19   54 1   
    46   19   55 1   
    47   20   30 1   
    48   20   56 1   
    49   21   25 1   
    50   21   57 1   
    51   21   73 1   
    52   22   28 1   
    53   22   29 1   
    54   22   58 1   
    55   22   74 1   
    56   23   29 2   
    57   23   59 1   
    58   24   29 1   
    59   24   60 1   
    60   24   61 1   
    61   24   75 1   
    62   25   26 1   
    63   25   30 1   
    64   25   62 1   
    65   26   27 1   
    66   26   63 1   
    67   26   64 1   
    68   27   28 1   
    69   27   65 1   
    70   27   66 1   
    71   28   67 1   
    72   28   68 1   
    73   30   69 1   
    74   30   70 1   
@<TRIPOS>SUBSTRUCTURE
     1 SVC         1 TEMP              0 ****  ****    0 ROOT
