@<TRIPOS>MOLECULE
SVE
   89    94     1     0     0
SMALL
bcc


@<TRIPOS>ATOM
      1 C1          0.1140    0.1350   -0.6460 c3        1 SVE     -0.019100
      2 C2          1.6320    0.0310   -0.6770 c3        1 SVE     -0.029100
      3 C3         -0.3500    0.9490    0.4790 cc        1 SVE     -0.123600
      4 C4          0.4050    1.1420    1.6620 cd        1 SVE     -0.242800
      5 N5         -0.3750    1.9350    2.5220 na        1 SVE      0.158400
      6 N6         -1.5370    2.2460    1.9600 nd        1 SVE     -0.463800
      7 C7         -1.5750    1.6680    0.7120 cc        1 SVE      0.249800
      8 C8         -2.6850    1.7700   -0.2730 c         1 SVE      0.601600
      9 N9         -3.8000    2.4990    0.0980 n         1 SVE     -0.457100
     10 O10        -2.5550    1.2400   -1.3940 o         1 SVE     -0.594100
     11 C11         0.0250    2.3720    3.8430 c3        1 SVE      0.035600
     12 C12         1.7210    0.5610    1.8250 ca        1 SVE      0.574800
     13 C13         2.2860   -0.0330    0.6540 ca        1 SVE     -0.285900
     14 C14         3.5420   -0.6410    0.8190 ca        1 SVE      0.448200
     15 N15         4.2090   -0.6730    1.9890 nb        1 SVE     -0.733000
     16 C16         3.5900   -0.0610    3.0570 ca        1 SVE      0.851900
     17 N17         2.3530    0.5620    3.0200 nb        1 SVE     -0.723000
     18 N18         4.2110   -0.0770    4.3390 nh        1 SVE     -0.697300
     19 C19         5.5200   -0.3400    4.6300 ca        1 SVE      0.297600
     20 C20         5.8970   -0.5750    5.9990 ca        1 SVE     -0.017900
     21 C21         7.2070   -0.8400    6.3730 ca        1 SVE      0.016000
     22 C22         8.2200   -0.8940    5.3990 ca        1 SVE     -0.275600
     23 C23         7.8830   -0.6280    4.0560 ca        1 SVE     -0.045000
     24 C24         6.5860   -0.3540    3.6800 ca        1 SVE     -0.170000
     25 O25         4.8990   -0.6910    6.9620 os        1 SVE     -0.366900
     26 C26         9.5610   -1.1920    5.8640 c         1 SVE      0.581700
     27 N27        10.5410   -1.6930    4.8130 n4        1 SVE     -0.678800
     28 O28        10.0070   -1.1010    7.0030 o         1 SVE     -0.444100
     29 C29        11.5330   -2.6990    5.3440 c3        1 SVE      0.121500
     30 C30        12.7290   -2.8300    4.3970 c3        1 SVE     -0.101900
     31 C31        13.7080   -3.8650    4.9590 c3        1 SVE      0.170800
     32 N32        13.0770   -5.1550    5.1900 n3        1 SVE     -0.739600
     33 C33        11.9270   -5.0550    6.0750 c3        1 SVE      0.170800
     34 C34        10.8790   -4.0670    5.5590 c3        1 SVE     -0.101900
     35 C35        14.0160   -6.1780    5.5970 c3        1 SVE      0.155100
     36 C36         4.6290    0.4400    7.7660 c3        1 SVE      0.814700
     37 F37         4.0620    1.4180    7.0150 f         1 SVE     -0.203633
     38 F38         3.7490    0.0010    8.6910 f         1 SVE     -0.203633
     39 F39         5.7440    0.9160    8.3670 f         1 SVE     -0.203633
     40 C40        -4.9870    2.5660   -0.6770 ca        1 SVE      0.029600
     41 C41        -5.0100    3.2640   -1.9130 ca        1 SVE     -0.065800
     42 C42        -6.2100    3.3350   -2.6260 ca        1 SVE     -0.127000
     43 C43        -7.3740    2.7520   -2.1360 ca        1 SVE     -0.121000
     44 C44        -7.3570    2.0820   -0.9180 ca        1 SVE     -0.127000
     45 C45        -6.1760    1.9760   -0.1790 ca        1 SVE     -0.065800
     46 C46        -6.2150    1.2400    1.1180 c3        1 SVE     -0.045600
     47 C47        -6.4380    2.1630    2.2930 c3        1 SVE     -0.091600
     48 C48        -3.7680    3.9020   -2.4320 c3        1 SVE     -0.045600
     49 C49        -3.9460    4.7510   -3.6640 c3        1 SVE     -0.091600
     50 H10        -0.3410   -0.8920   -0.5600 hc        1 SVE      0.090200
     51 H11        -0.2590    0.5700   -1.6160 hc        1 SVE      0.090200
     52 H20         2.0470    0.9310   -1.2140 hc        1 SVE      0.066700
     53 H21         1.9170   -0.8730   -1.2800 hc        1 SVE      0.066700
     54 H111        1.0060    2.9100    3.7640 h1        1 SVE      0.073033
     55 H112       -0.7470    3.0600    4.2800 h1        1 SVE      0.073033
     56 H113        0.1410    1.4710    4.5030 h1        1 SVE      0.073033
     57 H9         -3.9170    2.7390    1.0580 hn        1 SVE      0.328500
     58 H14         4.0520   -1.1380   -0.0280 h4        1 SVE      0.042100
     59 H18         3.5900    0.0500    5.1200 hn        1 SVE      0.484800
     60 H24         6.3860   -0.1300    2.6180 ha        1 SVE      0.191000
     61 H22         7.4430   -1.0080    7.4400 ha        1 SVE      0.183000
     62 H23         8.6560   -0.5970    3.2720 ha        1 SVE      0.127000
     63 H27        11.0590   -0.8880    4.4480 hn        1 SVE      0.452300
     64 H29        11.8920   -2.3000    6.3430 hx        1 SVE      0.124700
     65 H301       12.3900   -3.1510    3.3770 hc        1 SVE      0.068950
     66 H302       13.2700   -1.8530    4.3020 hc        1 SVE      0.068950
     67 H341       10.0590   -3.9910    6.3190 hc        1 SVE      0.068950
     68 H342       10.4420   -4.4500    4.5990 hc        1 SVE      0.068950
     69 H311       14.5320   -4.0130    4.2050 h1        1 SVE      0.057200
     70 H312       14.1720   -3.4440    5.9000 h1        1 SVE      0.057200
     71 H331       12.2220   -4.7510    7.1220 h1        1 SVE      0.057200
     72 H332       11.4470   -6.0740    6.1350 h1        1 SVE      0.057200
     73 H351       13.4740   -7.1580    5.6600 h1        1 SVE      0.049033
     74 H352       14.8180   -6.2590    4.8170 h1        1 SVE      0.049033
     75 H353       14.4970   -5.9650    6.5910 h1        1 SVE      0.049033
     76 H42        -6.2440    3.8630   -3.5910 ha        1 SVE      0.137500
     77 H481       -3.3240    4.5420   -1.6200 hc        1 SVE      0.055950
     78 H482       -3.0220    3.0860   -2.6550 hc        1 SVE      0.055950
     79 H43        -8.3080    2.8210   -2.7140 ha        1 SVE      0.137000
     80 H44        -8.2800    1.6240   -0.5300 ha        1 SVE      0.137500
     81 H461       -7.0500    0.4870    1.0860 hc        1 SVE      0.055950
     82 H462       -5.2700    0.6530    1.2690 hc        1 SVE      0.055950
     83 H471       -6.4820    1.5710    3.2390 hc        1 SVE      0.036200
     84 H472       -7.4010    2.7180    2.1770 hc        1 SVE      0.036200
     85 H473       -5.6150    2.9120    2.3830 hc        1 SVE      0.036200
     86 H491       -4.7010    5.5570   -3.4930 hc        1 SVE      0.036200
     87 H492       -4.2740    4.1340   -4.5350 hc        1 SVE      0.036200
     88 H493       -2.9730    5.2340   -3.9280 hc        1 SVE      0.036200
     89 H272       10.0160   -2.1220    4.0450 hn        1 SVE      0.452300
@<TRIPOS>BOND
     1    1    2 1   
     2    1    3 1   
     3    1   50 1   
     4    1   51 1   
     5    2   13 1   
     6    2   52 1   
     7    2   53 1   
     8    3    4 2   
     9    3    7 1   
    10    4    5 1   
    11    4   12 1   
    12    5    6 1   
    13    5   11 1   
    14    6    7 2   
    15    7    8 1   
    16    8    9 1   
    17    8   10 2   
    18    9   40 1   
    19    9   57 1   
    20   11   54 1   
    21   11   55 1   
    22   11   56 1   
    23   12   13 ar  
    24   12   17 ar  
    25   13   14 ar  
    26   14   15 ar  
    27   14   58 1   
    28   15   16 ar  
    29   16   17 ar  
    30   16   18 1   
    31   18   19 1   
    32   18   59 1   
    33   19   20 ar  
    34   19   24 ar  
    35   20   21 ar  
    36   20   25 1   
    37   21   22 ar  
    38   21   61 1   
    39   22   23 ar  
    40   22   26 1   
    41   23   24 ar  
    42   23   62 1   
    43   24   60 1   
    44   25   36 1   
    45   26   27 1   
    46   26   28 2   
    47   27   29 1   
    48   27   63 1   
    49   27   89 1   
    50   29   30 1   
    51   29   34 1   
    52   29   64 1   
    53   30   31 1   
    54   30   65 1   
    55   30   66 1   
    56   31   32 1   
    57   31   69 1   
    58   31   70 1   
    59   32   33 1   
    60   32   35 1   
    61   33   34 1   
    62   33   71 1   
    63   33   72 1   
    64   34   67 1   
    65   34   68 1   
    66   35   73 1   
    67   35   74 1   
    68   35   75 1   
    69   36   37 1   
    70   36   38 1   
    71   36   39 1   
    72   40   41 ar  
    73   40   45 ar  
    74   41   42 ar  
    75   41   48 1   
    76   42   43 ar  
    77   42   76 1   
    78   43   44 ar  
    79   43   79 1   
    80   44   45 ar  
    81   44   80 1   
    82   45   46 1   
    83   46   47 1   
    84   46   81 1   
    85   46   82 1   
    86   47   83 1   
    87   47   84 1   
    88   47   85 1   
    89   48   49 1   
    90   48   77 1   
    91   48   78 1   
    92   49   86 1   
    93   49   87 1   
    94   49   88 1   
@<TRIPOS>SUBSTRUCTURE
     1 SVE         1 TEMP              0 ****  ****    0 ROOT
