@<TRIPOS>MOLECULE
SVE
   91    96     1     0     0
SMALL
bcc


@<TRIPOS>ATOM
      1 C1          0.7110    0.5360   -0.4280 c3        1 SVE     -0.034100
      2 C2          2.2090    0.7760   -0.5490 c3        1 SVE     -0.049100
      3 C3          0.1060    1.3850    0.6010 cc        1 SVE     -0.075600
      4 C4          0.8310    1.9240    1.6960 cd        1 SVE     -0.243800
      5 N5         -0.0870    2.6450    2.4860 na        1 SVE      0.209400
      6 N6         -1.2970    2.5990    1.9700 nd        1 SVE     -0.447800
      7 C7         -1.2420    1.8390    0.8120 cc        1 SVE      0.185800
      8 C8         -2.3730    1.5590   -0.0680 c         1 SVE      0.479600
      9 N9         -3.6900    2.1640    0.3570 n4        1 SVE     -0.518200
     10 O10        -2.3220    0.8930   -1.0910 o         1 SVE     -0.386100
     11 C11         0.2410    3.3630    3.7090 c3        1 SVE      0.019600
     12 C12         2.2560    1.6990    1.8390 ca        1 SVE      0.560800
     13 C13         2.9070    1.0830    0.7230 ca        1 SVE     -0.212900
     14 C14         4.2890    0.8310    0.8620 ca        1 SVE      0.455200
     15 N15         4.9910    1.1550    1.9670 nb        1 SVE     -0.661000
     16 C16         4.2690    1.7520    2.9640 ca        1 SVE      0.701900
     17 N17         2.9270    2.0390    2.9700 nb        1 SVE     -0.678000
     18 N18         5.0260    2.1820    4.1910 n4        1 SVE     -0.605100
     19 C19         6.0830    1.2560    4.6080 ca        1 SVE     -0.011400
     20 C20         5.8750    0.3790    5.7070 ca        1 SVE      0.196100
     21 C21         6.9180   -0.4430    6.1540 ca        1 SVE     -0.108000
     22 C22         8.1600   -0.4060    5.5090 ca        1 SVE     -0.097600
     23 C23         8.3610    0.4360    4.4100 ca        1 SVE     -0.110000
     24 C24         7.3300    1.2590    3.9590 ca        1 SVE     -0.038000
     25 O25         4.6240    0.4330    6.2720 os        1 SVE     -0.422900
     26 C26         9.2310   -1.2450    6.1040 c         1 SVE      0.543700
     27 N27        10.3680   -1.6570    5.2180 n4        1 SVE     -0.673800
     28 O28         9.2540   -1.6170    7.2690 o         1 SVE     -0.369100
     29 C29        10.9510   -3.0220    5.5670 c3        1 SVE      0.129500
     30 C30        12.3270   -3.1810    4.9130 c3        1 SVE     -0.106900
     31 C31        12.8800   -4.5740    5.2430 c3        1 SVE      0.172300
     32 N32        11.9710   -5.6310    4.8340 n3        1 SVE     -0.743600
     33 C33        10.6670   -5.4990    5.4600 c3        1 SVE      0.172300
     34 C34        10.0120   -4.1490    5.1370 c3        1 SVE     -0.106900
     35 C35        12.5380   -6.9560    4.9620 c3        1 SVE      0.153100
     36 C36         4.2730   -0.3440    7.4220 c3        1 SVE      0.854700
     37 F37         5.0660   -0.0140    8.4620 f         1 SVE     -0.172300
     38 F38         2.9930    0.0180    7.6360 f         1 SVE     -0.172300
     39 F39         4.3740   -1.6580    7.1330 f         1 SVE     -0.172300
     40 C40        -4.8080    1.8990   -0.5540 ca        1 SVE     -0.072400
     41 C41        -5.0410    2.7790   -1.6410 ca        1 SVE     -0.031800
     42 C42        -6.1420    2.5280   -2.4630 ca        1 SVE     -0.108500
     43 C43        -6.9810    1.4390   -2.2290 ca        1 SVE     -0.055000
     44 C44        -6.7320    0.5750   -1.1660 ca        1 SVE     -0.108500
     45 C45        -5.6430    0.7840   -0.3140 ca        1 SVE     -0.031800
     46 C46        -5.4150   -0.1740    0.8060 c3        1 SVE     -0.059600
     47 C47        -5.9920    0.3140    2.1140 c3        1 SVE     -0.100600
     48 C48        -4.1390    3.9410   -1.8830 c3        1 SVE     -0.059600
     49 C49        -4.4100    4.7060   -3.1540 c3        1 SVE     -0.100600
     50 H10         0.2220    0.7190   -1.4280 hc        1 SVE      0.105200
     51 H11         0.5120   -0.5440   -0.1690 hc        1 SVE      0.105200
     52 H20         2.3880    1.6450   -1.2480 hc        1 SVE      0.099700
     53 H21         2.6750   -0.1280   -1.0320 hc        1 SVE      0.099700
     54 H111        0.5990    2.6200    4.4720 h1        1 SVE      0.092700
     55 H112       -0.6630    3.9020    4.1050 h1        1 SVE      0.092700
     56 H113        1.0490    4.1060    3.4780 h1        1 SVE      0.092700
     57 H9         -3.9300    1.7900    1.2890 hn        1 SVE      0.473300
     58 H14         4.8750    0.3510    0.0490 h4        1 SVE      0.081100
     59 H18         4.3530    2.2910    4.9730 hn        1 SVE      0.492300
     60 H24         7.5110    1.9140    3.0860 ha        1 SVE      0.194000
     61 H22         6.7650   -1.1040    7.0310 ha        1 SVE      0.209000
     62 H23         9.3310    0.4980    3.8900 ha        1 SVE      0.168000
     63 H27        11.1210   -0.9620    5.3110 hn        1 SVE      0.463300
     64 H29        11.0680   -3.0380    6.6950 hx        1 SVE      0.129700
     65 H301       13.0470   -2.4180    5.3080 hc        1 SVE      0.069450
     66 H302       12.2530   -3.0670    3.8000 hc        1 SVE      0.069450
     67 H341        9.0420   -4.0850    5.6950 hc        1 SVE      0.069450
     68 H342        9.8030   -4.0940    4.0370 hc        1 SVE      0.069450
     69 H311       13.8480   -4.7050    4.6780 h1        1 SVE      0.066950
     70 H312       13.1160   -4.6130    6.3480 h1        1 SVE      0.066950
     71 H331       10.7140   -5.6130    6.5840 h1        1 SVE      0.066950
     72 H332       10.0010   -6.3140    5.0580 h1        1 SVE      0.066950
     73 H351       11.8160   -7.6990    4.5320 h1        1 SVE      0.057367
     74 H352       12.7590   -7.2390    6.0270 h1        1 SVE      0.057367
     75 H353       13.4900   -6.9970    4.3700 h1        1 SVE      0.057367
     76 H42        -6.3590    3.1980   -3.3130 ha        1 SVE      0.175000
     77 H481       -3.0750    3.5720   -1.9170 hc        1 SVE      0.052450
     78 H482       -4.2290    4.6560   -1.0160 hc        1 SVE      0.052450
     79 H43        -7.8460    1.2610   -2.8930 ha        1 SVE      0.177000
     80 H44        -7.3990   -0.2870   -0.9910 ha        1 SVE      0.175000
     81 H461       -5.9030   -1.1570    0.5480 hc        1 SVE      0.052450
     82 H462       -4.3210   -0.3990    0.9190 hc        1 SVE      0.052450
     83 H471       -7.0930    0.4860    2.0170 hc        1 SVE      0.055033
     84 H472       -5.8290   -0.4540    2.9100 hc        1 SVE      0.055033
     85 H473       -5.5240    1.2710    2.4480 hc        1 SVE      0.055033
     86 H491       -3.6470    5.5140   -3.2730 hc        1 SVE      0.055033
     87 H492       -4.3530    4.0360   -4.0460 hc        1 SVE      0.055033
     88 H493       -5.4190    5.1860   -3.1280 hc        1 SVE      0.055033
     89 H92        -3.5670    3.1830    0.4370 hn        1 SVE      0.473300
     90 H182        5.4520    3.0990    3.9800 hn        1 SVE      0.492300
     91 H272       10.0570   -1.6780    4.2410 hn        1 SVE      0.463300
@<TRIPOS>BOND
     1    1    2 1   
     2    1    3 1   
     3    1   50 1   
     4    1   51 1   
     5    2   13 1   
     6    2   52 1   
     7    2   53 1   
     8    3    4 2   
     9    3    7 1   
    10    4    5 1   
    11    4   12 1   
    12    5    6 1   
    13    5   11 1   
    14    6    7 2   
    15    7    8 1   
    16    8    9 1   
    17    8   10 2   
    18    9   40 1   
    19    9   57 1   
    20    9   89 1   
    21   11   54 1   
    22   11   55 1   
    23   11   56 1   
    24   12   13 ar  
    25   12   17 ar  
    26   13   14 ar  
    27   14   15 ar  
    28   14   58 1   
    29   15   16 ar  
    30   16   17 ar  
    31   16   18 1   
    32   18   19 1   
    33   18   59 1   
    34   18   90 1   
    35   19   20 ar  
    36   19   24 ar  
    37   20   21 ar  
    38   20   25 1   
    39   21   22 ar  
    40   21   61 1   
    41   22   23 ar  
    42   22   26 1   
    43   23   24 ar  
    44   23   62 1   
    45   24   60 1   
    46   25   36 1   
    47   26   27 1   
    48   26   28 2   
    49   27   29 1   
    50   27   63 1   
    51   27   91 1   
    52   29   30 1   
    53   29   34 1   
    54   29   64 1   
    55   30   31 1   
    56   30   65 1   
    57   30   66 1   
    58   31   32 1   
    59   31   69 1   
    60   31   70 1   
    61   32   33 1   
    62   32   35 1   
    63   33   34 1   
    64   33   71 1   
    65   33   72 1   
    66   34   67 1   
    67   34   68 1   
    68   35   73 1   
    69   35   74 1   
    70   35   75 1   
    71   36   37 1   
    72   36   38 1   
    73   36   39 1   
    74   40   41 ar  
    75   40   45 ar  
    76   41   42 ar  
    77   41   48 1   
    78   42   43 ar  
    79   42   76 1   
    80   43   44 ar  
    81   43   79 1   
    82   44   45 ar  
    83   44   80 1   
    84   45   46 1   
    85   46   47 1   
    86   46   81 1   
    87   46   82 1   
    88   47   83 1   
    89   47   84 1   
    90   47   85 1   
    91   48   49 1   
    92   48   77 1   
    93   48   78 1   
    94   49   86 1   
    95   49   87 1   
    96   49   88 1   
@<TRIPOS>SUBSTRUCTURE
     1 SVE         1 TEMP              0 ****  ****    0 ROOT
