@<TRIPOS>MOLECULE
SVE
   88    93     1     0     0
SMALL
bcc


@<TRIPOS>ATOM
      1 C1          3.8160   -2.3720   -0.6060 c3        1 SVE     -0.014100
      2 C2          2.5210   -2.9830   -0.0890 c3        1 SVE     -0.019100
      3 C3          4.1060   -1.0900    0.0420 cc        1 SVE     -0.138600
      4 C4          3.1040   -0.2720    0.6180 cd        1 SVE     -0.216800
      5 N5          3.7420    0.8820    1.1000 na        1 SVE      0.158400
      6 N6          5.0500    0.8360    0.8710 nd        1 SVE     -0.483800
      7 C7          5.3250   -0.3480    0.2260 cc        1 SVE      0.242800
      8 C8          6.6670   -0.8150   -0.2060 c         1 SVE      0.603600
      9 N9          7.7450    0.0170    0.0540 n         1 SVE     -0.464100
     10 O10         6.7920   -1.9330   -0.7450 o         1 SVE     -0.596100
     11 C11         3.0760    1.9820    1.7640 c3        1 SVE      0.035600
     12 C12         1.7080   -0.6710    0.6350 ca        1 SVE      0.563800
     13 C13         1.4460   -2.0100    0.2240 ca        1 SVE     -0.326900
     14 C14         0.0880   -2.3790    0.1840 ca        1 SVE      0.459200
     15 N15        -0.9200   -1.5620    0.5220 nb        1 SVE     -0.731000
     16 C16        -0.5680   -0.2870    0.9380 ca        1 SVE      0.869900
     17 N17         0.7350    0.1950    0.9880 nb        1 SVE     -0.746000
     18 N18        -1.5670    0.6050    1.3960 nh        1 SVE     -0.701300
     19 C19        -2.9340    0.4010    1.1350 ca        1 SVE      0.177600
     20 C20        -3.7240    1.4450    0.5760 ca        1 SVE      0.021100
     21 C21        -5.1020    1.3130    0.3940 ca        1 SVE     -0.053000
     22 C22        -5.7260    0.1140    0.7420 ca        1 SVE     -0.150600
     23 C23        -4.9730   -0.9230    1.3010 ca        1 SVE     -0.082000
     24 C24        -3.6040   -0.7850    1.5050 ca        1 SVE     -0.121000
     25 O25        -3.0850    2.5810    0.0780 os        1 SVE     -0.369900
     26 C26        -7.2000    0.0040    0.5290 c         1 SVE      0.675700
     27 N27        -7.6840   -1.2160    0.1080 n         1 SVE     -0.565900
     28 O28        -7.9540    0.9800    0.7250 o         1 SVE     -0.601100
     29 C29        -9.0810   -1.4440   -0.1890 c3        1 SVE      0.097700
     30 C30        -9.6540   -2.6290    0.6050 c3        1 SVE     -0.092900
     31 C31       -11.1370   -2.8030    0.2900 c3        1 SVE      0.170300
     32 N32       -11.4100   -2.9630   -1.1320 n3        1 SVE     -0.734600
     33 C33       -10.8240   -1.9010   -1.9390 c3        1 SVE      0.170300
     34 C34        -9.3330   -1.7010   -1.6840 c3        1 SVE     -0.092900
     35 C35       -12.8170   -3.1470   -1.4040 c3        1 SVE      0.158100
     36 C36        -3.0950    3.7380    0.8780 c3        1 SVE      0.812700
     37 F37        -2.3480    3.5560    1.9980 f         1 SVE     -0.213633
     38 F38        -2.5180    4.6950    0.1120 f         1 SVE     -0.213633
     39 F39        -4.3430    4.1280    1.2280 f         1 SVE     -0.213633
     40 C40         9.0570   -0.2230   -0.4230 ca        1 SVE      0.038600
     41 C41         9.8300   -1.3020    0.0800 ca        1 SVE     -0.067800
     42 C42        11.1330   -1.4800   -0.3940 ca        1 SVE     -0.128000
     43 C43        11.6850   -0.6100   -1.3280 ca        1 SVE     -0.128000
     44 C44        10.9370    0.4580   -1.8090 ca        1 SVE     -0.128000
     45 C45         9.6250    0.6640   -1.3730 ca        1 SVE     -0.067800
     46 C46         8.8670    1.8210   -1.9310 c3        1 SVE     -0.046100
     47 C47         8.9660    3.0470   -1.0530 c3        1 SVE     -0.090600
     48 C48         9.2480   -2.2270    1.0920 c3        1 SVE     -0.046100
     49 C49        10.2120   -3.2220    1.6870 c3        1 SVE     -0.090600
     50 H10         4.6690   -3.0870   -0.4410 hc        1 SVE      0.079700
     51 H11         3.7450   -2.2050   -1.7170 hc        1 SVE      0.079700
     52 H20         2.1480   -3.7230   -0.8490 hc        1 SVE      0.057200
     53 H21         2.7430   -3.5610    0.8520 hc        1 SVE      0.057200
     54 H111        2.4990    1.5810    2.6390 h1        1 SVE      0.072700
     55 H112        3.8250    2.7380    2.1210 h1        1 SVE      0.072700
     56 H113        2.3680    2.4670    1.0400 h1        1 SVE      0.072700
     57 H9          7.5620    0.9640    0.3070 hn        1 SVE      0.327500
     58 H14        -0.2140   -3.3930   -0.1410 h4        1 SVE      0.033100
     59 H18        -1.2920    1.5710    1.3910 hn        1 SVE      0.449800
     60 H24        -3.0470   -1.6160    1.9660 ha        1 SVE      0.167000
     61 H22        -5.6890    2.1540   -0.0120 ha        1 SVE      0.177000
     62 H23        -5.4610   -1.8610    1.6130 ha        1 SVE      0.145000
     63 H27        -7.0480   -1.9410   -0.1210 hn        1 SVE      0.310500
     64 H29        -9.6500   -0.5100    0.1100 h1        1 SVE      0.090700
     65 H301       -9.0980   -3.5680    0.3520 hc        1 SVE      0.052200
     66 H302       -9.5470   -2.4480    1.7050 hc        1 SVE      0.052200
     67 H341       -8.9860   -0.8270   -2.2920 hc        1 SVE      0.052200
     68 H342       -8.7640   -2.6060   -2.0200 hc        1 SVE      0.052200
     69 H311      -11.5070   -3.7310    0.8110 h1        1 SVE      0.034450
     70 H312      -11.7000   -1.9220    0.7230 h1        1 SVE      0.034450
     71 H331      -10.9680   -2.1820   -3.0200 h1        1 SVE      0.034450
     72 H332      -11.3510   -0.9140   -1.7700 h1        1 SVE      0.034450
     73 H351      -13.4460   -2.2550   -1.1310 h1        1 SVE      0.033033
     74 H352      -12.9490   -3.3540   -2.4980 h1        1 SVE      0.033033
     75 H353      -13.1850   -4.0330   -0.8230 h1        1 SVE      0.033033
     76 H42        11.7410   -2.3200   -0.0240 ha        1 SVE      0.134500
     77 H481        8.8050   -1.6170    1.9280 hc        1 SVE      0.058200
     78 H482        8.3970   -2.7870    0.6060 hc        1 SVE      0.058200
     79 H43        12.7130   -0.7680   -1.6860 ha        1 SVE      0.132000
     80 H44        11.3750    1.1490   -2.5460 ha        1 SVE      0.134500
     81 H461        9.2770    2.0710   -2.9480 hc        1 SVE      0.058200
     82 H462        7.7890    1.5510   -2.0850 hc        1 SVE      0.058200
     83 H471        8.4010    3.8930   -1.5150 hc        1 SVE      0.034700
     84 H472        8.5430    2.8550   -0.0380 hc        1 SVE      0.034700
     85 H473       10.0320    3.3570   -0.9320 hc        1 SVE      0.034700
     86 H491       10.5830   -3.9360    0.9120 hc        1 SVE      0.034700
     87 H492       11.0890   -2.7070    2.1470 hc        1 SVE      0.034700
     88 H493        9.6940   -3.8120    2.4820 hc        1 SVE      0.034700
@<TRIPOS>BOND
     1    1    2 1   
     2    1    3 1   
     3    1   50 1   
     4    1   51 1   
     5    2   13 1   
     6    2   52 1   
     7    2   53 1   
     8    3    4 2   
     9    3    7 1   
    10    4    5 1   
    11    4   12 1   
    12    5    6 1   
    13    5   11 1   
    14    6    7 2   
    15    7    8 1   
    16    8    9 1   
    17    8   10 2   
    18    9   40 1   
    19    9   57 1   
    20   11   54 1   
    21   11   55 1   
    22   11   56 1   
    23   12   13 ar  
    24   12   17 ar  
    25   13   14 ar  
    26   14   15 ar  
    27   14   58 1   
    28   15   16 ar  
    29   16   17 ar  
    30   16   18 1   
    31   18   19 1   
    32   18   59 1   
    33   19   20 ar  
    34   19   24 ar  
    35   20   21 ar  
    36   20   25 1   
    37   21   22 ar  
    38   21   61 1   
    39   22   23 ar  
    40   22   26 1   
    41   23   24 ar  
    42   23   62 1   
    43   24   60 1   
    44   25   36 1   
    45   26   27 1   
    46   26   28 2   
    47   27   29 1   
    48   27   63 1   
    49   29   30 1   
    50   29   34 1   
    51   29   64 1   
    52   30   31 1   
    53   30   65 1   
    54   30   66 1   
    55   31   32 1   
    56   31   69 1   
    57   31   70 1   
    58   32   33 1   
    59   32   35 1   
    60   33   34 1   
    61   33   71 1   
    62   33   72 1   
    63   34   67 1   
    64   34   68 1   
    65   35   73 1   
    66   35   74 1   
    67   35   75 1   
    68   36   37 1   
    69   36   38 1   
    70   36   39 1   
    71   40   41 ar  
    72   40   45 ar  
    73   41   42 ar  
    74   41   48 1   
    75   42   43 ar  
    76   42   76 1   
    77   43   44 ar  
    78   43   79 1   
    79   44   45 ar  
    80   44   80 1   
    81   45   46 1   
    82   46   47 1   
    83   46   81 1   
    84   46   82 1   
    85   47   83 1   
    86   47   84 1   
    87   47   85 1   
    88   48   49 1   
    89   48   77 1   
    90   48   78 1   
    91   49   86 1   
    92   49   87 1   
    93   49   88 1   
@<TRIPOS>SUBSTRUCTURE
     1 SVE         1 TEMP              0 ****  ****    0 ROOT
