@<TRIPOS>MOLECULE
SVE
   89    94     1     0     0
SMALL
bcc


@<TRIPOS>ATOM
      1 C1          0.1370    0.1640   -0.6600 c3        1 SVE     -0.019100
      2 C2          1.6560    0.0740   -0.6850 c3        1 SVE     -0.029100
      3 C3         -0.3390    0.9590    0.4740 cc        1 SVE     -0.123600
      4 C4          0.4090    1.1450    1.6620 cd        1 SVE     -0.242800
      5 N5         -0.3820    1.9200    2.5290 na        1 SVE      0.158400
      6 N6         -1.5440    2.2270    1.9640 nd        1 SVE     -0.463800
      7 C7         -1.5710    1.6640    0.7100 cc        1 SVE      0.249800
      8 C8         -2.6790    1.7690   -0.2780 c         1 SVE      0.601600
      9 N9         -3.8020    2.4820    0.0970 ns        1 SVE     -0.457100
     10 O10        -2.5390    1.2530   -1.4050 o         1 SVE     -0.594100
     11 C11         0.0090    2.3440    3.8560 c3        1 SVE      0.035600
     12 C12         1.7290    0.5740    1.8240 ca        1 SVE      0.574800
     13 C13         2.3050   -0.0020    0.6480 ca        1 SVE     -0.285900
     14 C14         3.5660   -0.6000    0.8120 ca        1 SVE      0.448200
     15 N15         4.2280   -0.6410    1.9840 nb        1 SVE     -0.733000
     16 C16         3.5990   -0.0470    3.0560 ca        1 SVE      0.851900
     17 N17         2.3560    0.5650    3.0220 nb        1 SVE     -0.723000
     18 N18         4.2130   -0.0740    4.3410 nu        1 SVE     -0.697300
     19 C19         5.5230   -0.3330    4.6350 ca        1 SVE      0.296600
     20 C20         5.8940   -0.5810    6.0030 ca        1 SVE     -0.017900
     21 C21         7.2040   -0.8430    6.3810 ca        1 SVE      0.016000
     22 C22         8.2220   -0.8800    5.4110 ca        1 SVE     -0.275600
     23 C23         7.8900   -0.6010    4.0700 ca        1 SVE     -0.045000
     24 C24         6.5940   -0.3300    3.6900 ca        1 SVE     -0.170000
     25 O25         4.8930   -0.7140    6.9600 os        1 SVE     -0.366900
     26 C26         9.5630   -1.1770    5.8800 c         1 SVE      0.581700
     27 N27        10.5490   -1.6640    4.8290 ny        1 SVE     -0.678800
     28 O28        10.0030   -1.0930    7.0200 o         1 SVE     -0.444100
     29 C29        11.5340   -2.6810    5.3530 c3        1 SVE      0.121500
     30 C30        12.7380   -2.8010    4.4140 c3        1 SVE     -0.101900
     31 C31        13.7090   -3.8470    4.9690 c3        1 SVE      0.170800
     32 N32        13.0730   -5.1380    5.1760 n3        1 SVE     -0.739600
     33 C33        11.9160   -5.0480    6.0520 c3        1 SVE      0.170800
     34 C34        10.8750   -4.0490    5.5420 c3        1 SVE     -0.101900
     35 C35        14.0060   -6.1690    5.5750 c3        1 SVE      0.155100
     36 C36         4.6120    0.4070    7.7750 c3        1 SVE      0.814700
     37 F37         4.0440    1.3910    7.0330 f         1 SVE     -0.203633
     38 F38         3.7290   -0.0480    8.6910 f         1 SVE     -0.203633
     39 F39         5.7220    0.8820    8.3880 f         1 SVE     -0.203633
     40 C40        -4.9860    2.5490   -0.6820 ca        1 SVE      0.029600
     41 C41        -5.0100    3.2620   -1.9100 ca        1 SVE     -0.065800
     42 C42        -6.2080    3.3310   -2.6260 ca        1 SVE     -0.127000
     43 C43        -7.3690    2.7320   -2.1490 ca        1 SVE     -0.121000
     44 C44        -7.3510    2.0470   -0.9390 ca        1 SVE     -0.127000
     45 C45        -6.1710    1.9430   -0.1960 ca        1 SVE     -0.065800
     46 C46        -6.2090    1.1910    1.0910 c3        1 SVE     -0.045600
     47 C47        -6.4440    2.0970    2.2770 c3        1 SVE     -0.091600
     48 C48        -3.7720    3.9160   -2.4170 c3        1 SVE     -0.045600
     49 C49        -3.9530    4.7790   -3.6390 c3        1 SVE     -0.091600
     50 H10        -0.3090   -0.8680   -0.5880 hc        1 SVE      0.090200
     51 H11        -0.2360    0.6070   -1.6260 hc        1 SVE      0.090200
     52 H20         2.0650    0.9840   -1.2090 hc        1 SVE      0.066700
     53 H21         1.9520   -0.8200   -1.2980 hc        1 SVE      0.066700
     54 H111        0.9850    2.8930    3.7880 h1        1 SVE      0.073033
     55 H112        0.1300    1.4370    4.5060 h1        1 SVE      0.073033
     56 H113       -0.7710    3.0200    4.2980 h1        1 SVE      0.073033
     57 H9         -3.9240    2.7100    1.0590 hn        1 SVE      0.328500
     58 H14         4.0830   -1.0820   -0.0400 h4        1 SVE      0.042100
     59 H18         3.5880    0.0410    5.1200 hn        1 SVE      0.484800
     60 H24         6.3970   -0.0940    2.6310 ha        1 SVE      0.191000
     61 H22         7.4360   -1.0220    7.4470 ha        1 SVE      0.183000
     62 H23         8.6670   -0.5560    3.2900 ha        1 SVE      0.127000
     63 H27        10.0300   -2.0810    4.0500 hn        1 SVE      0.452300
     64 H29        11.8860   -2.2970    6.3600 hx        1 SVE      0.124700
     65 H301       13.2820   -1.8240    4.3370 hc        1 SVE      0.068950
     66 H302       12.4070   -3.1060    3.3870 hc        1 SVE      0.068950
     67 H341       10.4450   -4.4170    4.5740 hc        1 SVE      0.068950
     68 H342       10.0490   -3.9830    6.2970 hc        1 SVE      0.068950
     69 H311       14.5390   -3.9850    4.2190 h1        1 SVE      0.057200
     70 H312       14.1670   -3.4410    5.9190 h1        1 SVE      0.057200
     71 H331       11.4330   -6.0660    6.0930 h1        1 SVE      0.057200
     72 H332       12.2030   -4.7600    7.1070 h1        1 SVE      0.057200
     73 H351       13.4610   -7.1490    5.6190 h1        1 SVE      0.049033
     74 H352       14.4790   -5.9730    6.5760 h1        1 SVE      0.049033
     75 H353       14.8150   -6.2420    4.8010 h1        1 SVE      0.049033
     76 H42        -6.2440    3.8700   -3.5860 ha        1 SVE      0.137500
     77 H481       -3.3360    4.5500   -1.5950 hc        1 SVE      0.055950
     78 H482       -3.0190    3.1080   -2.6470 hc        1 SVE      0.055950
     79 H43        -8.3020    2.8000   -2.7290 ha        1 SVE      0.137000
     80 H44        -8.2710    1.5770   -0.5600 ha        1 SVE      0.137500
     81 H461       -7.0380    0.4310    1.0470 hc        1 SVE      0.055950
     82 H462       -5.2600    0.6100    1.2390 hc        1 SVE      0.055950
     83 H471       -7.4110    2.6460    2.1640 hc        1 SVE      0.036200
     84 H472       -6.4870    1.4940    3.2160 hc        1 SVE      0.036200
     85 H473       -5.6280    2.8520    2.3800 hc        1 SVE      0.036200
     86 H491       -4.7150    5.5750   -3.4610 hc        1 SVE      0.036200
     87 H492       -2.9830    5.2730   -3.8940 hc        1 SVE      0.036200
     88 H493       -4.2720    4.1690   -4.5190 hc        1 SVE      0.036200
     89 H272       11.0720   -0.8550    4.4790 hn        1 SVE      0.452300
@<TRIPOS>BOND
     1    1    2 1   
     2    1    3 1   
     3    1   50 1   
     4    1   51 1   
     5    2   13 1   
     6    2   52 1   
     7    2   53 1   
     8    3    4 2   
     9    3    7 1   
    10    4    5 1   
    11    4   12 1   
    12    5    6 1   
    13    5   11 1   
    14    6    7 2   
    15    7    8 1   
    16    8    9 1   
    17    8   10 2   
    18    9   40 1   
    19    9   57 1   
    20   11   54 1   
    21   11   55 1   
    22   11   56 1   
    23   12   13 ar  
    24   12   17 ar  
    25   13   14 ar  
    26   14   15 ar  
    27   14   58 1   
    28   15   16 ar  
    29   16   17 ar  
    30   16   18 1   
    31   18   19 1   
    32   18   59 1   
    33   19   20 ar  
    34   19   24 ar  
    35   20   21 ar  
    36   20   25 1   
    37   21   22 ar  
    38   21   61 1   
    39   22   23 ar  
    40   22   26 1   
    41   23   24 ar  
    42   23   62 1   
    43   24   60 1   
    44   25   36 1   
    45   26   27 1   
    46   26   28 2   
    47   27   29 1   
    48   27   63 1   
    49   27   89 1   
    50   29   30 1   
    51   29   34 1   
    52   29   64 1   
    53   30   31 1   
    54   30   65 1   
    55   30   66 1   
    56   31   32 1   
    57   31   69 1   
    58   31   70 1   
    59   32   33 1   
    60   32   35 1   
    61   33   34 1   
    62   33   71 1   
    63   33   72 1   
    64   34   67 1   
    65   34   68 1   
    66   35   73 1   
    67   35   74 1   
    68   35   75 1   
    69   36   37 1   
    70   36   38 1   
    71   36   39 1   
    72   40   41 ar  
    73   40   45 ar  
    74   41   42 ar  
    75   41   48 1   
    76   42   43 ar  
    77   42   76 1   
    78   43   44 ar  
    79   43   79 1   
    80   44   45 ar  
    81   44   80 1   
    82   45   46 1   
    83   46   47 1   
    84   46   81 1   
    85   46   82 1   
    86   47   83 1   
    87   47   84 1   
    88   47   85 1   
    89   48   49 1   
    90   48   77 1   
    91   48   78 1   
    92   49   86 1   
    93   49   87 1   
    94   49   88 1   
@<TRIPOS>SUBSTRUCTURE
     1 SVE         1 TEMP              0 ****  ****    0 ROOT
