@<TRIPOS>MOLECULE
SVN
   15    16     1     0     0
SMALL
bcc


@<TRIPOS>ATOM
      1 CAD         0.0590   -0.0910    0.0140 cc        1 SVN     -0.278400
      2 SAG         1.7320   -0.1280    0.0580 ss        1 SVN      0.040100
      3 CAI         1.7970   -0.0370    1.7350 ca        1 SVN      0.281300
      4 NAE         2.9130   -0.0230    2.5200 nb        1 SVN     -0.599000
      5 CAB         2.6930    0.0470    3.8320 ca        1 SVN      0.297900
      6 CAC         1.3710    0.1000    4.3990 ca        1 SVN      0.272900
      7 NAF         0.2670    0.0890    3.6520 nb        1 SVN     -0.596000
      8 CAJ         0.4730    0.0250    2.3070 ca        1 SVN      0.270800
      9 CAH        -0.5460    0.0040    1.2560 cd        1 SVN      0.052200
     10 NAA        -1.8950    0.1600    1.5070 nh        1 SVN     -0.797600
     11 H1         -0.4730   -0.1260   -0.9370 h4        1 SVN      0.177000
     12 H2          3.5810    0.0620    4.4860 h4        1 SVN      0.035100
     13 H3          1.2350    0.1520    5.4920 h4        1 SVN      0.034100
     14 H4         -2.1770   -0.0400    2.4410 hn        1 SVN      0.405300
     15 H5         -2.4940   -0.2190    0.8080 hn        1 SVN      0.405300
@<TRIPOS>BOND
     1    1    2 1   
     2    1    9 2   
     3    1   11 1   
     4    2    3 1   
     5    3    4 ar  
     6    3    8 ar  
     7    4    5 ar  
     8    5    6 ar  
     9    5   12 1   
    10    6    7 ar  
    11    6   13 1   
    12    7    8 ar  
    13    8    9 1   
    14    9   10 1   
    15   10   14 1   
    16   10   15 1   
@<TRIPOS>SUBSTRUCTURE
     1 SVN         1 TEMP              0 ****  ****    0 ROOT
