@<TRIPOS>MOLECULE
SVN
   16    17     1     0     0
SMALL
bcc


@<TRIPOS>ATOM
      1 CAD         0.1130    0.0070   -0.0280 cc        1 SVN     -0.171400
      2 SAG         1.7560    0.0030    0.0430 ss        1 SVN      0.292100
      3 CAI         1.8090   -0.0030    1.7240 ca        1 SVN      0.232300
      4 NAE         2.9170   -0.0080    2.5270 nb        1 SVN     -0.555000
      5 CAB         2.6810   -0.0130    3.8340 ca        1 SVN      0.320900
      6 CAC         1.3420   -0.0120    4.3920 ca        1 SVN      0.346900
      7 NAF         0.2510   -0.0070    3.6340 nb        1 SVN     -0.638000
      8 CAJ         0.4850   -0.0020    2.2840 ca        1 SVN      0.312800
      9 CAH        -0.4920    0.0040    1.2230 cd        1 SVN     -0.225800
     10 NAA        -1.9050    0.0060    1.5040 n4        1 SVN     -0.659400
     11 H1         -0.4230    0.0120   -0.9840 h4        1 SVN      0.204000
     12 H2          3.5620   -0.0170    4.5050 h4        1 SVN      0.071100
     13 H3          1.1960   -0.0150    5.4890 h4        1 SVN      0.065100
     14 H4         -2.1370    0.8400    2.0600 hn        1 SVN      0.468133
     15 H5         -2.1400   -0.8310    2.0540 hn        1 SVN      0.468133
     16 HAA3       -2.4430    0.0100    0.6320 hn        1 SVN      0.468133
@<TRIPOS>BOND
     1    1    2 1   
     2    1    9 2   
     3    1   11 1   
     4    2    3 1   
     5    3    4 ar  
     6    3    8 ar  
     7    4    5 ar  
     8    5    6 ar  
     9    5   12 1   
    10    6    7 ar  
    11    6   13 1   
    12    7    8 ar  
    13    8    9 1   
    14    9   10 1   
    15   10   14 1   
    16   10   15 1   
    17   10   16 1   
@<TRIPOS>SUBSTRUCTURE
     1 SVN         1 TEMP              0 ****  ****    0 ROOT
