@<TRIPOS>MOLECULE
SVN
   15    16     1     0     0
SMALL
bcc


@<TRIPOS>ATOM
      1 CAD         0.0700   -0.0800    0.0110 cc        1 SVN     -0.278400
      2 SAG         1.7430   -0.1090    0.0630 ss        1 SVN      0.040100
      3 CAI         1.8000   -0.0280    1.7400 ca        1 SVN      0.281300
      4 NAE         2.9110   -0.0130    2.5300 nb        1 SVN     -0.599000
      5 CAB         2.6850    0.0480    3.8420 ca        1 SVN      0.297900
      6 CAC         1.3610    0.0910    4.4030 ca        1 SVN      0.272900
      7 NAF         0.2600    0.0790    3.6510 nb        1 SVN     -0.596000
      8 CAJ         0.4720    0.0240    2.3060 ca        1 SVN      0.270800
      9 CAH        -0.5410    0.0040    1.2500 cd        1 SVN      0.052200
     10 NAA        -1.8930    0.1520    1.4960 nv        1 SVN     -0.797600
     11 H1         -0.4570   -0.1130   -0.9430 h4        1 SVN      0.177000
     12 H2          3.5700    0.0640    4.5000 h4        1 SVN      0.035100
     13 H3          1.2190    0.1360    5.4960 h4        1 SVN      0.034100
     14 H4         -2.1780   -0.0550    2.4270 hn        1 SVN      0.405300
     15 H5         -2.4860   -0.2270    0.7910 hn        1 SVN      0.405300
@<TRIPOS>BOND
     1    1    2 1   
     2    1    9 2   
     3    1   11 1   
     4    2    3 1   
     5    3    4 ar  
     6    3    8 ar  
     7    4    5 ar  
     8    5    6 ar  
     9    5   12 1   
    10    6    7 ar  
    11    6   13 1   
    12    7    8 ar  
    13    8    9 1   
    14    9   10 1   
    15   10   14 1   
    16   10   15 1   
@<TRIPOS>SUBSTRUCTURE
     1 SVN         1 TEMP              0 ****  ****    0 ROOT
