@<TRIPOS>MOLECULE
SVQ
   44    46     1     0     0
SMALL
bcc


@<TRIPOS>ATOM
      1 Cl2        -0.1730   -0.2250    0.4170 cl        1 SVQ     -0.114400
      2 C25         1.5300   -0.3020    0.3420 ca        1 SVQ      0.027400
      3 C24         2.2010   -0.5390    1.5510 ca        1 SVQ     -0.147000
      4 C23         3.5860   -0.6650    1.5660 ca        1 SVQ     -0.139000
      5 C22         4.3030   -0.5700    0.3730 ca        1 SVQ     -0.141000
      6 C21         3.6380   -0.3250   -0.8230 ca        1 SVQ     -0.103000
      7 C20         2.2400   -0.1610   -0.8550 ca        1 SVQ     -0.064300
      8 C14         1.6390    0.1100   -2.2250 c3        1 SVQ      0.147000
      9 C13         1.3060   -1.2450   -2.8790 c3        1 SVQ     -0.195700
     10 C17         2.5480   -1.8200   -3.6240 c         1 SVQ      0.920600
     11 O19         3.5620   -1.0810   -3.7870 o         1 SVQ     -0.833800
     12 O18         2.4600   -3.0100   -4.0290 o         1 SVQ     -0.833800
     13 C12         0.1610   -1.1500   -3.8620 c3        1 SVQ     -0.061400
     14 C11        -1.0410   -0.5080   -3.2120 c3        1 SVQ     -0.145400
     15 C10        -0.6990    0.8720   -2.6950 c         1 SVQ      0.705500
     16 O15        -1.5510    1.7920   -2.7120 o         1 SVQ     -0.700500
     17 N9          0.5720    1.1010   -2.1980 n         1 SVQ     -0.456800
     18 C8          0.9520    2.4410   -1.8180 c3        1 SVQ      0.102000
     19 C7          1.4870    3.2990   -2.9760 c3        1 SVQ     -0.074100
     20 C2          1.7880    4.6770   -2.5080 ca        1 SVQ     -0.056300
     21 C3          3.1110    5.1150   -2.3790 ca        1 SVQ     -0.121000
     22 C4          3.3920    6.4120   -1.9530 ca        1 SVQ     -0.128000
     23 C5          2.3380    7.2790   -1.6530 ca        1 SVQ      0.006400
     24 Cl1         2.6750    8.8690   -1.1330 cl        1 SVQ     -0.123400
     25 C6          1.0120    6.8570   -1.7750 ca        1 SVQ     -0.128000
     26 C1          0.7430    5.5590   -2.2020 ca        1 SVQ     -0.121000
     27 H24         1.6290   -0.6350    2.4860 ha        1 SVQ      0.129000
     28 H23         4.1090   -0.8510    2.5140 ha        1 SVQ      0.118000
     29 H22         5.3950   -0.7000    0.3740 ha        1 SVQ      0.126000
     30 H21         4.1890   -0.3030   -1.7860 ha        1 SVQ      0.197000
     31 H14         2.4700    0.5700   -2.8620 h1        1 SVQ      0.099700
     32 H13         1.0320   -1.9810   -2.0760 hc        1 SVQ      0.054700
     33 H121        0.4760   -0.5540   -4.7580 hc        1 SVQ      0.056700
     34 H122       -0.0910   -2.1830   -4.2190 hc        1 SVQ      0.056700
     35 H111       -1.8880   -0.4080   -3.9380 hc        1 SVQ      0.060700
     36 H112       -1.3950   -1.1250   -2.3450 hc        1 SVQ      0.060700
     37 H81C        1.7450    2.3730   -1.0210 h1        1 SVQ      0.057700
     38 H82C        0.0490    2.9590   -1.3820 h1        1 SVQ      0.057700
     39 H71C        2.4060    2.8220   -3.4080 hc        1 SVQ      0.066200
     40 H72C        0.7130    3.3430   -3.7890 hc        1 SVQ      0.066200
     41 H3          3.9390    4.4280   -2.6150 ha        1 SVQ      0.147500
     42 H1         -0.3000    5.2160   -2.3000 ha        1 SVQ      0.147500
     43 H4          4.4350    6.7470   -1.8540 ha        1 SVQ      0.139000
     44 H6          0.1850    7.5420   -1.5360 ha        1 SVQ      0.139000
@<TRIPOS>BOND
     1    1    2 1   
     2    2    3 ar  
     3    2    7 ar  
     4    3    4 ar  
     5    3   27 1   
     6    4    5 ar  
     7    4   28 1   
     8    5    6 ar  
     9    5   29 1   
    10    6    7 ar  
    11    6   30 1   
    12    7    8 1   
    13    8    9 1   
    14    8   17 1   
    15    8   31 1   
    16    9   10 1   
    17    9   13 1   
    18    9   32 1   
    19   10   11 1   
    20   10   12 1   
    21   13   14 1   
    22   13   33 1   
    23   13   34 1   
    24   14   15 1   
    25   14   35 1   
    26   14   36 1   
    27   15   16 2   
    28   15   17 1   
    29   17   18 1   
    30   18   19 1   
    31   18   37 1   
    32   18   38 1   
    33   19   20 1   
    34   19   39 1   
    35   19   40 1   
    36   20   21 ar  
    37   20   26 ar  
    38   21   22 ar  
    39   21   41 1   
    40   22   23 ar  
    41   22   43 1   
    42   23   24 1   
    43   23   25 ar  
    44   25   26 ar  
    45   25   44 1   
    46   26   42 1   
@<TRIPOS>SUBSTRUCTURE
     1 SVQ         1 TEMP              0 ****  ****    0 ROOT
