@<TRIPOS>MOLECULE
SVS
   54    57     1     0     0
SMALL
bcc


@<TRIPOS>ATOM
      1 S          -1.5470   -0.2390    0.1960 s6        1 SVS      1.395900
      2 N1         -1.8300   -6.7830    2.7850 nb        1 SVS     -0.776000
      3 C2         -1.1110   -7.0100    1.6600 ca        1 SVS      0.703900
      4 N3         -1.3030   -6.5560    0.3930 nb        1 SVS     -0.738000
      5 C4         -2.4040   -5.7610    0.2870 ca        1 SVS      0.473800
      6 C5         -3.2650   -5.4060    1.4080 ca        1 SVS     -0.257200
      7 C6         -2.9380   -5.9680    2.6900 ca        1 SVS      0.765200
      8 N6         -3.6840   -5.6570    3.7950 nh        1 SVS     -0.935500
      9 N7         -4.3040   -4.5700    0.9710 nc        1 SVS     -0.509100
     10 C8         -4.1030   -4.4120   -0.3410 cd        1 SVS      0.366700
     11 N9         -2.9700   -5.1220   -0.8350 na        1 SVS     -0.311000
     12 C1'        -2.4100   -5.1150   -2.1550 c3        1 SVS      0.251800
     13 C14         1.1200   -1.4200    3.7760 ca        1 SVS      0.128100
     14 O14         1.7930   -1.2120    2.5890 oh        1 SVS     -0.534100
     15 C15         1.7120   -2.0810    4.8610 ca        1 SVS     -0.195000
     16 C16         0.9700   -2.2880    6.0200 ca        1 SVS     -0.066000
     17 C17        -0.3520   -1.8430    6.0980 ca        1 SVS     -0.148000
     18 C18        -0.9340   -1.1840    5.0190 ca        1 SVS     -0.080000
     19 C19        -0.2090   -0.9570    3.8440 ca        1 SVS     -0.142300
     20 O1P        -0.7270    0.8040   -0.1820 o         1 SVS     -0.559800
     21 C2'        -3.4600   -4.9000   -3.2890 c3        1 SVS      0.083100
     22 O2'        -3.0730   -5.7590   -4.3400 oh        1 SVS     -0.578800
     23 C21        -0.8070   -0.2060    2.7130 c3        1 SVS      0.018900
     24 C22        -1.0200   -1.1140    1.4930 c3        1 SVS     -0.422600
     25 O2P        -2.9190   -0.1300    0.1110 o         1 SVS     -0.559800
     26 C3'        -3.2860   -3.4240   -3.7290 c3        1 SVS      0.103100
     27 O3'        -3.1850   -3.2860   -5.1200 oh        1 SVS     -0.566800
     28 C4'        -1.9990   -2.9460   -3.0200 c3        1 SVS      0.071100
     29 O4'        -1.4510   -4.0390   -2.2890 os        1 SVS     -0.436600
     30 C5'        -2.2850   -1.7850   -2.0540 c3        1 SVS      0.087800
     31 N5'        -1.1410   -1.4970   -1.1590 n4        1 SVS     -0.707900
     32 HN6        -4.5640   -5.2200    3.6580 hn        1 SVS      0.452300
     33 HN6A       -3.5210   -6.1370    4.6490 hn        1 SVS      0.452300
     34 H1'        -1.8000   -6.0580   -2.3140 h2        1 SVS      0.163700
     35 HO14        2.7310   -1.4100    2.7380 ho        1 SVS      0.441000
     36 H15         2.7550   -2.4260    4.7960 ha        1 SVS      0.150000
     37 H16         1.4290   -2.8040    6.8780 ha        1 SVS      0.154000
     38 H17        -0.9330   -2.0090    7.0180 ha        1 SVS      0.152000
     39 H18        -1.9740   -0.8270    5.0940 ha        1 SVS      0.142000
     40 H2'        -4.5100   -5.1090   -2.9580 h1        1 SVS      0.088700
     41 HO2'       -3.8580   -5.9280   -4.8800 ho        1 SVS      0.438000
     42 H21        -1.7920    0.2370    3.0230 hc        1 SVS      0.078200
     43 H22        -1.7320   -1.9290    1.8170 h1        1 SVS      0.175700
     44 H3'        -4.1770   -2.8010   -3.4420 h1        1 SVS      0.099700
     45 HO3'       -2.5500   -3.9450   -5.4490 ho        1 SVS      0.435000
     46 H4'        -1.2140   -2.6500   -3.7720 h1        1 SVS      0.107700
     47 H5'        -3.1720   -2.0420   -1.4030 hx        1 SVS      0.113700
     48 H5'A       -2.5280   -0.8600   -2.6510 hx        1 SVS      0.113700
     49 HN5'       -0.8240   -2.3950   -0.7770 hn        1 SVS      0.461800
     50 H211       -0.1060    0.6280    2.4240 hc        1 SVS      0.078200
     51 H221       -0.0290   -1.6460    1.3580 h1        1 SVS      0.175700
     52 H2         -0.2300   -7.6780    1.7940 h5        1 SVS      0.069100
     53 H5'2       -0.3690   -1.1400   -1.7280 hn        1 SVS      0.461800
     54 H8         -4.7570   -3.8420   -1.0120 h5        1 SVS      0.070800
@<TRIPOS>BOND
     1    1   20 2   
     2    1   24 1   
     3    1   25 2   
     4    1   31 1   
     5    2    3 ar  
     6    2    7 ar  
     7    3    4 ar  
     8    3   52 1   
     9    4    5 ar  
    10    5    6 ar  
    11    5   11 1   
    12    6    7 ar  
    13    6    9 1   
    14    7    8 1   
    15    8   32 1   
    16    8   33 1   
    17    9   10 2   
    18   10   11 1   
    19   10   54 1   
    20   11   12 1   
    21   12   21 1   
    22   12   29 1   
    23   12   34 1   
    24   13   14 1   
    25   13   15 ar  
    26   13   19 ar  
    27   14   35 1   
    28   15   16 ar  
    29   15   36 1   
    30   16   17 ar  
    31   16   37 1   
    32   17   18 ar  
    33   17   38 1   
    34   18   19 ar  
    35   18   39 1   
    36   19   23 1   
    37   21   22 1   
    38   21   26 1   
    39   21   40 1   
    40   22   41 1   
    41   23   24 1   
    42   23   42 1   
    43   23   50 1   
    44   24   43 1   
    45   24   51 1   
    46   26   27 1   
    47   26   28 1   
    48   26   44 1   
    49   27   45 1   
    50   28   29 1   
    51   28   30 1   
    52   28   46 1   
    53   30   31 1   
    54   30   47 1   
    55   30   48 1   
    56   31   49 1   
    57   31   53 1   
@<TRIPOS>SUBSTRUCTURE
     1 SVS         1 TEMP              0 ****  ****    0 ROOT
