@<TRIPOS>MOLECULE
SVS
   55    57     1     0     0
SMALL
bcc


@<TRIPOS>ATOM
      1 S          -2.7110   -1.2810    2.5660 s4        1 SVS      1.601500
      2 N1         -2.6620  -10.9270   -0.7110 nb        1 SVS     -0.667000
      3 C2         -1.4660  -10.2770   -0.8280 ca        1 SVS      0.687900
      4 N3         -1.2390   -8.9550   -1.0420 nb        1 SVS     -0.621000
      5 C4         -2.3670   -8.2100   -1.1430 ca        1 SVS      0.469800
      6 C5         -3.7260   -8.7820   -1.0240 ca        1 SVS     -0.140200
      7 C6         -3.7840  -10.1720   -0.8150 ca        1 SVS      0.537200
      8 N6         -5.1030  -10.8240   -0.7190 n4        1 SVS     -0.818300
      9 N7         -4.6850   -7.7720   -1.1660 nc        1 SVS     -0.564100
     10 C8         -3.9780   -6.6470   -1.3710 cd        1 SVS      0.500700
     11 N9         -2.5750   -6.8390   -1.3810 na        1 SVS     -0.260000
     12 C1'        -1.5340   -5.8680   -1.6090 c3        1 SVS      0.216800
     13 C14        -0.0820    2.4420    3.1890 ca        1 SVS      0.128100
     14 O14        -0.3900    2.1600    1.8730 oh        1 SVS     -0.544100
     15 C15         0.9530    3.3190    3.5410 ca        1 SVS     -0.191000
     16 C16         1.2360    3.5320    4.8870 ca        1 SVS     -0.057000
     17 C17         0.4980    2.8750    5.8750 ca        1 SVS     -0.142000
     18 C18        -0.5320    2.0090    5.5210 ca        1 SVS     -0.078000
     19 C19        -0.8430    1.7830    4.1750 ca        1 SVS     -0.159300
     20 O1P        -3.4560   -0.8100    1.5310 o         1 SVS     -0.427400
     21 C2'        -1.7400   -4.9760   -2.8810 c3        1 SVS      0.085100
     22 O2'        -0.8960   -5.3930   -3.9160 oh        1 SVS     -0.554800
     23 C21        -1.9810    0.9140    3.7920 c3        1 SVS      0.028900
     24 C22        -1.4850   -0.3730    3.0970 c3        1 SVS     -0.508100
     25 O2P        -3.1600   -2.2580    3.3990 o         1 SVS     -0.427400
     26 C3'        -1.4460   -3.5350   -2.4070 c3        1 SVS      0.089100
     27 O3'        -0.2990   -3.0240   -3.0530 oh        1 SVS     -0.585800
     28 C4'        -1.0890   -3.6610   -0.9130 c3        1 SVS      0.109100
     29 O4'        -1.4520   -4.9750   -0.4720 os        1 SVS     -0.441600
     30 C5'        -1.8390   -2.6410   -0.0510 c3        1 SVS      0.116800
     31 N5'        -1.4440   -2.6420    1.3570 n3        1 SVS     -1.013800
     32 HN6        -5.5450  -10.8090   -1.6470 hn        1 SVS      0.483800
     33 HN6A       -5.6860  -10.2950   -0.0580 hn        1 SVS      0.483800
     34 H1'        -0.5460   -6.4200   -1.6690 h2        1 SVS      0.130700
     35 HO14        0.0500    2.8200    1.3140 ho        1 SVS      0.447000
     36 H15         1.5280    3.8390    2.7600 ha        1 SVS      0.155000
     37 H16         2.0450    4.2250    5.1730 ha        1 SVS      0.162000
     38 H17         0.7270    3.0500    6.9390 ha        1 SVS      0.161000
     39 H18        -1.1180    1.5080    6.3080 ha        1 SVS      0.143000
     40 H2'        -2.7780   -5.0660   -3.3040 h1        1 SVS      0.109700
     41 HO2'        0.0180   -5.1520   -3.6920 ho        1 SVS      0.434000
     42 H21        -2.6380    1.4780    3.0720 hc        1 SVS      0.078200
     43 H22        -0.7980   -0.8790    3.8400 h1        1 SVS      0.195200
     44 H3'        -2.3320   -2.8680   -2.5740 h1        1 SVS      0.079700
     45 HO3'       -0.5370   -2.8500   -3.9770 ho        1 SVS      0.448000
     46 H4'         0.0280   -3.5580   -0.7820 h1        1 SVS      0.101700
     47 H5'        -1.6490   -1.6150   -0.4820 h1        1 SVS      0.102700
     48 H5'A       -2.9470   -2.8480   -0.1000 h1        1 SVS      0.102700
     49 HN5'       -0.4670   -2.3990    1.4420 hn        1 SVS      0.422300
     50 H211       -2.5770    0.6360    4.7020 hc        1 SVS      0.078200
     51 H221       -0.7760    0.0090    2.2920 h1        1 SVS      0.195200
     52 H2         -0.5610  -10.9260   -0.7380 h5        1 SVS      0.111100
     53 H63        -5.0140  -11.8000   -0.4000 hn        1 SVS      0.483800
     54 H5'2       -1.5670   -3.5720    1.7400 hn        1 SVS      0.422300
     55 H8         -4.4240   -5.6520   -1.5270 h5        1 SVS      0.099800
@<TRIPOS>BOND
     1    1   20 1   
     2    1   24 1   
     3    1   25 1   
     4    2    3 ar  
     5    2    7 ar  
     6    3    4 ar  
     7    3   52 1   
     8    4    5 ar  
     9    5    6 ar  
    10    5   11 1   
    11    6    7 ar  
    12    6    9 1   
    13    7    8 1   
    14    8   32 1   
    15    8   33 1   
    16    8   53 1   
    17    9   10 2   
    18   10   11 1   
    19   10   55 1   
    20   11   12 1   
    21   12   21 1   
    22   12   29 1   
    23   12   34 1   
    24   13   14 1   
    25   13   15 ar  
    26   13   19 ar  
    27   14   35 1   
    28   15   16 ar  
    29   15   36 1   
    30   16   17 ar  
    31   16   37 1   
    32   17   18 ar  
    33   17   38 1   
    34   18   19 ar  
    35   18   39 1   
    36   19   23 1   
    37   21   22 1   
    38   21   26 1   
    39   21   40 1   
    40   22   41 1   
    41   23   24 1   
    42   23   42 1   
    43   23   50 1   
    44   24   43 1   
    45   24   51 1   
    46   26   27 1   
    47   26   28 1   
    48   26   44 1   
    49   27   45 1   
    50   28   29 1   
    51   28   30 1   
    52   28   46 1   
    53   30   31 1   
    54   30   47 1   
    55   30   48 1   
    56   31   49 1   
    57   31   54 1   
@<TRIPOS>SUBSTRUCTURE
     1 SVS         1 TEMP              0 ****  ****    0 ROOT
