@<TRIPOS>MOLECULE
SVS
   53    56     1     0     0
SMALL
bcc


@<TRIPOS>ATOM
      1 S          -2.8000   -1.7260   -0.3920 s6        1 SVS      1.456900
      2 N1          5.8790    2.4960    0.8430 nb        1 SVS     -0.794000
      3 C2          6.1200    1.1590    0.8220 ca        1 SVS      0.693900
      4 N3          5.3140    0.1310    0.4650 nb        1 SVS     -0.760000
      5 C4          4.0760    0.5530    0.0680 ca        1 SVS      0.453800
      6 C5          3.6630    1.9500    0.0360 ca        1 SVS     -0.230200
      7 C6          4.6310    2.9270    0.4510 ca        1 SVS      0.768200
      8 N6          4.3070    4.2560    0.4680 nh        1 SVS     -0.956500
      9 N7          2.3410    2.0500   -0.4240 nc        1 SVS     -0.542100
     10 C8          1.9560    0.7880   -0.6620 cd        1 SVS      0.418700
     11 N9          2.9580   -0.1710   -0.3750 na        1 SVS     -0.295000
     12 C1'         2.9330   -1.5990   -0.5990 c3        1 SVS      0.228800
     13 C14        -5.2960    2.2630   -0.5670 ca        1 SVS      0.130100
     14 O14        -4.9120    1.9770   -1.8580 oh        1 SVS     -0.503100
     15 C15        -5.7340    3.5820   -0.3470 ca        1 SVS     -0.155000
     16 C16        -6.1160    3.9680    0.9320 ca        1 SVS     -0.097000
     17 C17        -6.0710    3.0550    1.9870 ca        1 SVS     -0.163000
     18 C18        -5.6370    1.7520    1.7640 ca        1 SVS     -0.089000
     19 C19        -5.2390    1.3340    0.4880 ca        1 SVS     -0.158300
     20 O1P        -3.3850   -1.9800   -1.6500 o         1 SVS     -0.650300
     21 C2'         3.2450   -2.4380    0.6850 c3        1 SVS      0.082100
     22 O2'         4.1910   -3.4320    0.3560 oh        1 SVS     -0.592800
     23 C21        -4.7770   -0.0630    0.2760 c3        1 SVS     -0.007100
     24 C22        -3.2750   -0.1370    0.0740 c3        1 SVS     -0.326600
     25 O2P        -3.1090   -2.6070    0.6640 o         1 SVS     -0.650300
     26 C3'         1.9140   -3.1320    1.0480 c3        1 SVS      0.132100
     27 O3'         2.0220   -4.5220    1.2060 oh        1 SVS     -0.570800
     28 C4'         0.9370   -2.7610   -0.0880 c3        1 SVS      0.078100
     29 O4'         1.6510   -2.0080   -1.0810 os        1 SVS     -0.413600
     30 C5'        -0.2410   -1.9250    0.4420 c3        1 SVS      0.207800
     31 N5'        -1.2020   -1.5850   -0.5640 n3        1 SVS     -0.924100
     32 HN6         4.9810    4.9380    0.7120 hn        1 SVS      0.451800
     33 HN6A        3.4210    4.5370    0.1290 hn        1 SVS      0.451800
     34 H8          0.9780    0.4720   -1.0450 h5        1 SVS      0.079800
     35 H1'         3.6630   -1.8500   -1.4290 h2        1 SVS      0.107700
     36 HO14       -4.8490    1.0150   -1.9560 ho        1 SVS      0.426000
     37 H15        -5.7650    4.2840   -1.1920 ha        1 SVS      0.151000
     38 H16        -6.4580    4.9990    1.1100 ha        1 SVS      0.135000
     39 H17        -6.3800    3.3650    2.9950 ha        1 SVS      0.135000
     40 H18        -5.6050    1.0360    2.6000 ha        1 SVS      0.134000
     41 H2'         3.6090   -1.8050    1.5360 h1        1 SVS      0.088700
     42 HO2'        5.0640   -3.0230    0.4240 ho        1 SVS      0.435000
     43 H21        -5.0580   -0.6970    1.1610 hc        1 SVS      0.067700
     44 H22        -2.7790    0.1930    1.0240 h1        1 SVS      0.115200
     45 H3'         1.5390   -2.7630    2.0430 h1        1 SVS      0.095700
     46 HO3'        2.5550   -4.8730    0.4780 ho        1 SVS      0.428000
     47 H4'         0.5730   -3.6820   -0.6220 h1        1 SVS      0.099700
     48 H5'        -0.7480   -2.5220    1.2570 h1        1 SVS      0.065200
     49 H5'A        0.1780   -0.9780    0.8940 h1        1 SVS      0.065200
     50 HN5'       -0.7880   -1.3220   -1.4290 hn        1 SVS      0.459800
     51 H211       -5.2960   -0.5040   -0.6220 hc        1 SVS      0.067700
     52 H221       -2.9820    0.6300   -0.6930 h1        1 SVS      0.115200
     53 H2          7.1430    0.8700    1.1500 h5        1 SVS      0.053100
@<TRIPOS>BOND
     1    1   20 2   
     2    1   24 1   
     3    1   25 2   
     4    1   31 1   
     5    2    3 ar  
     6    2    7 ar  
     7    3    4 ar  
     8    3   53 1   
     9    4    5 ar  
    10    5    6 ar  
    11    5   11 1   
    12    6    7 ar  
    13    6    9 1   
    14    7    8 1   
    15    8   32 1   
    16    8   33 1   
    17    9   10 2   
    18   10   11 1   
    19   10   34 1   
    20   11   12 1   
    21   12   21 1   
    22   12   29 1   
    23   12   35 1   
    24   13   14 1   
    25   13   15 ar  
    26   13   19 ar  
    27   14   36 1   
    28   15   16 ar  
    29   15   37 1   
    30   16   17 ar  
    31   16   38 1   
    32   17   18 ar  
    33   17   39 1   
    34   18   19 ar  
    35   18   40 1   
    36   19   23 1   
    37   21   22 1   
    38   21   26 1   
    39   21   41 1   
    40   22   42 1   
    41   23   24 1   
    42   23   43 1   
    43   23   51 1   
    44   24   44 1   
    45   24   52 1   
    46   26   27 1   
    47   26   28 1   
    48   26   45 1   
    49   27   46 1   
    50   28   29 1   
    51   28   30 1   
    52   28   47 1   
    53   30   31 1   
    54   30   48 1   
    55   30   49 1   
    56   31   50 1   
@<TRIPOS>SUBSTRUCTURE
     1 SVS         1 TEMP              0 ****  ****    0 ROOT
