@<TRIPOS>MOLECULE
SVS
   54    57     1     0     0
SMALL
bcc


@<TRIPOS>ATOM
      1 S          -1.5050   -0.2440    0.1840 s6        1 SVS      1.395900
      2 N1         -1.8170   -6.7780    2.7990 nb        1 SVS     -0.776000
      3 C2         -1.1550   -7.0230    1.6420 ca        1 SVS      0.703900
      4 N3         -1.3950   -6.5660    0.3840 nb        1 SVS     -0.738000
      5 C4         -2.4800   -5.7470    0.3260 ca        1 SVS      0.473800
      6 C5         -3.2820   -5.3710    1.4850 ca        1 SVS     -0.257200
      7 C6         -2.9100   -5.9380    2.7520 ca        1 SVS      0.765200
      8 N6         -3.5970   -5.6090    3.8890 nv        1 SVS     -0.935500
      9 N7         -4.3200   -4.5120    1.0930 nc        1 SVS     -0.509100
     10 C8         -4.1760   -4.3610   -0.2270 cd        1 SVS      0.366700
     11 N9         -3.0830   -5.0960   -0.7700 na        1 SVS     -0.311000
     12 C1'        -2.5830   -5.1040   -2.1140 c3        1 SVS      0.251800
     13 C14         1.2980   -1.4750    3.6400 ca        1 SVS      0.128100
     14 O14         1.9200   -1.2830    2.4230 oh        1 SVS     -0.534100
     15 C15         1.9250   -2.1460    4.6990 ca        1 SVS     -0.195000
     16 C16         1.2330   -2.3360    5.8910 ca        1 SVS     -0.066000
     17 C17        -0.0740   -1.8630    6.0290 ca        1 SVS     -0.148000
     18 C18        -0.6920   -1.1940    4.9760 ca        1 SVS     -0.080000
     19 C19        -0.0170   -0.9840    3.7680 ca        1 SVS     -0.142300
     20 O1P        -0.6820    0.7810   -0.2350 o         1 SVS     -0.559800
     21 C2'        -3.6780   -4.8670   -3.2000 c3        1 SVS      0.083100
     22 O2'        -3.3580   -5.7350   -4.2660 oh        1 SVS     -0.578800
     23 C21        -0.6510   -0.2220    2.6650 c3        1 SVS      0.018900
     24 C22        -0.9390   -1.1280    1.4580 c3        1 SVS     -0.422600
     25 O2P        -2.8780   -0.1050    0.1610 o         1 SVS     -0.559800
     26 C3'        -3.4920   -3.3960   -3.6500 c3        1 SVS      0.103100
     27 O3'        -3.4510   -3.2610   -5.0450 oh        1 SVS     -0.566800
     28 C4'        -2.1640   -2.9450   -3.0020 c3        1 SVS      0.071100
     29 O4'        -1.6070   -4.0490   -2.2940 os        1 SVS     -0.436600
     30 C5'        -2.3800   -1.7770   -2.0270 c3        1 SVS      0.087800
     31 N5'        -1.1900   -1.5130   -1.1840 ny        1 SVS     -0.707900
     32 HN6        -4.4730   -5.1530    3.7910 hn        1 SVS      0.452300
     33 HN6A       -3.4060   -6.0910    4.7360 hn        1 SVS      0.452300
     34 H1'        -2.0020   -6.0600   -2.2990 h2        1 SVS      0.163700
     35 HO14        2.8590   -1.5000    2.5290 ho        1 SVS      0.441000
     36 H15         2.9560   -2.5130    4.5860 ha        1 SVS      0.150000
     37 H16         1.7210   -2.8600    6.7290 ha        1 SVS      0.154000
     38 H17        -0.6150   -2.0150    6.9750 ha        1 SVS      0.152000
     39 H18        -1.7190   -0.8150    5.0980 ha        1 SVS      0.142000
     40 H2'        -4.7160   -5.0520   -2.8210 h1        1 SVS      0.088700
     41 HO2'       -4.1700   -5.8880   -4.7690 ho        1 SVS      0.438000
     42 H21         0.0530    0.5960    2.3410 hc        1 SVS      0.078200
     43 H22        -1.6530   -1.9260    1.8160 h1        1 SVS      0.175700
     44 H3'        -4.3550   -2.7530   -3.3240 h1        1 SVS      0.099700
     45 HO3'       -2.8470   -3.9330   -5.4010 ho        1 SVS      0.435000
     46 H4'        -1.4070   -2.6680   -3.7890 h1        1 SVS      0.107700
     47 H5'        -2.6290   -0.8470   -2.6140 hx        1 SVS      0.113700
     48 H5'A       -3.2420   -2.0130   -1.3350 hx        1 SVS      0.113700
     49 HN5'       -0.8760   -2.4170   -0.8150 hn        1 SVS      0.461800
     50 H211       -1.6110    0.2420    3.0180 hc        1 SVS      0.078200
     51 H221        0.0340   -1.6810    1.2790 h1        1 SVS      0.175700
     52 H2         -0.2840   -7.7110    1.7380 h5        1 SVS      0.069100
     53 H5'2       -0.4370   -1.1750   -1.7890 hn        1 SVS      0.461800
     54 H8         -4.8470   -3.7770   -0.8690 h5        1 SVS      0.070800
@<TRIPOS>BOND
     1    1   20 2   
     2    1   24 1   
     3    1   25 2   
     4    1   31 1   
     5    2    3 ar  
     6    2    7 ar  
     7    3    4 ar  
     8    3   52 1   
     9    4    5 ar  
    10    5    6 ar  
    11    5   11 1   
    12    6    7 ar  
    13    6    9 1   
    14    7    8 1   
    15    8   32 1   
    16    8   33 1   
    17    9   10 2   
    18   10   11 1   
    19   10   54 1   
    20   11   12 1   
    21   12   21 1   
    22   12   29 1   
    23   12   34 1   
    24   13   14 1   
    25   13   15 ar  
    26   13   19 ar  
    27   14   35 1   
    28   15   16 ar  
    29   15   36 1   
    30   16   17 ar  
    31   16   37 1   
    32   17   18 ar  
    33   17   38 1   
    34   18   19 ar  
    35   18   39 1   
    36   19   23 1   
    37   21   22 1   
    38   21   26 1   
    39   21   40 1   
    40   22   41 1   
    41   23   24 1   
    42   23   42 1   
    43   23   50 1   
    44   24   43 1   
    45   24   51 1   
    46   26   27 1   
    47   26   28 1   
    48   26   44 1   
    49   27   45 1   
    50   28   29 1   
    51   28   30 1   
    52   28   46 1   
    53   30   31 1   
    54   30   47 1   
    55   30   48 1   
    56   31   49 1   
    57   31   53 1   
@<TRIPOS>SUBSTRUCTURE
     1 SVS         1 TEMP              0 ****  ****    0 ROOT
