@<TRIPOS>MOLECULE
SVV
   18    17     1     0     0
SMALL
bcc


@<TRIPOS>ATOM
      1 N           0.5000   -2.3380   -0.2260 n3        1 SVV     -0.901800
      2 CA         -0.7850   -2.1190    0.4170 c3        1 SVV      0.016500
      3 C          -1.9190   -2.9730   -0.2240 c         1 SVV      0.913600
      4 O          -1.9810   -3.0580   -1.4870 o         1 SVV     -0.866300
      5 CB         -1.2540   -0.6410    0.4260 c3        1 SVV      0.163400
      6 OG         -0.2280    0.2320    0.7940 os        1 SVV     -0.596200
      7 O3         -1.7160    1.6840    2.2310 o         1 SVV     -0.867000
      8 P1         -0.3840    1.0140    2.2620 p5        1 SVV      1.423700
      9 O2          0.8740    1.8090    2.3830 o         1 SVV     -0.867000
     10 N4         -0.3870   -0.1840    3.3450 n3        1 SVV     -1.069900
     11 OXT        -2.7310   -3.5580    0.5490 o         1 SVV     -0.866300
     12 HBC1       -2.1320   -0.5320    1.1180 h1        1 SVV      0.022700
     13 HA2        -1.5800   -0.3680   -0.6180 h1        1 SVV      0.022700
     14 H4N1        0.4410   -0.5990    3.6670 hn        1 SVV      0.385300
     15 H4N2       -1.1870   -0.7260    3.5230 hn        1 SVV      0.385300
     16 HN1         1.0450   -1.4960   -0.1480 hn        1 SVV      0.332800
     17 HN2         0.3400   -2.5080   -1.2040 hn        1 SVV      0.332800
     18 HC         -0.6650   -2.4540    1.4880 h1        1 SVV      0.034700
@<TRIPOS>BOND
     1    1    2 1   
     2    1   16 1   
     3    1   17 1   
     4    2    3 1   
     5    2    5 1   
     6    2   18 1   
     7    3    4 1   
     8    3   11 1   
     9    5    6 1   
    10    5   12 1   
    11    5   13 1   
    12    6    8 1   
    13    7    8 1   
    14    8    9 1   
    15    8   10 1   
    16   10   14 1   
    17   10   15 1   
@<TRIPOS>SUBSTRUCTURE
     1 SVV         1 TEMP              0 ****  ****    0 ROOT
