@<TRIPOS>MOLECULE
SVW
   18    17     1     0     0
SMALL
bcc


@<TRIPOS>ATOM
      1 N          -4.0430   -1.6320    1.2970 n3        1 SVW     -0.886800
      2 CA         -2.7110   -2.2260    1.2600 c3        1 SVW      0.001500
      3 C          -2.6260   -3.5090    0.3790 c         1 SVW      0.883600
      4 O          -3.6950   -3.9630   -0.1390 o         1 SVW     -0.869300
      5 CB         -2.1260   -2.5230    2.6600 c3        1 SVW      0.198400
      6 OG         -1.6880   -1.3660    3.3010 os        1 SVW     -0.587200
      7 O3         -1.7120    0.2780    5.1710 o         1 SVW     -0.868500
      8 P1         -2.5000   -0.8900    4.6790 p5        1 SVW      1.415700
      9 O4         -2.6590   -2.1150    5.5200 o         1 SVW     -0.868500
     10 N2         -3.9520   -0.4280    4.1410 n3        1 SVW     -1.053900
     11 OXT        -1.4950   -4.0320    0.1680 o         1 SVW     -0.869300
     12 HBC1       -1.2300   -3.1890    2.4980 h1        1 SVW      0.027200
     13 HBC2       -2.8710   -3.0650    3.3060 h1        1 SVW      0.027200
     14 H2N1       -4.6960   -1.0700    4.0910 hn        1 SVW      0.381300
     15 H2N2       -4.0480    0.3030    3.4900 hn        1 SVW      0.381300
     16 HN1        -4.6020   -2.1440    1.9580 hn        1 SVW      0.318300
     17 HN2        -4.4670   -1.7900    0.3970 hn        1 SVW      0.318300
     18 HC         -2.0360   -1.4600    0.7780 h1        1 SVW      0.052700
@<TRIPOS>BOND
     1    1    2 1   
     2    1   16 1   
     3    1   17 1   
     4    2    3 1   
     5    2    5 1   
     6    2   18 1   
     7    3    4 1   
     8    3   11 1   
     9    5    6 1   
    10    5   12 1   
    11    5   13 1   
    12    6    8 1   
    13    7    8 1   
    14    8    9 1   
    15    8   10 1   
    16   10   14 1   
    17   10   15 1   
@<TRIPOS>SUBSTRUCTURE
     1 SVW         1 TEMP              0 ****  ****    0 ROOT
