@<TRIPOS>MOLECULE
SVX
   26    25     1     0     0
SMALL
bcc


@<TRIPOS>ATOM
      1 N          -2.2770    0.7900    1.7870 n3        1 SVX     -0.891800
      2 CA         -2.1380    0.8140    0.3470 c3        1 SVX      0.030500
      3 C          -3.1990   -0.0990   -0.3740 c         1 SVX      0.915600
      4 CB         -0.7840    0.3380   -0.1980 c3        1 SVX      0.132400
      5 O          -3.3580   -1.2640    0.0860 o         1 SVX     -0.830800
      6 OG          0.2830    1.0110    0.4610 os        1 SVX     -0.599200
      7 P1          1.7390    0.5640   -0.0120 p5        1 SVX      1.529300
      8 C4          2.7470    1.5390    0.8440 c3        1 SVX     -0.411300
      9 OXT        -3.7900    0.3860   -1.3730 o         1 SVX     -0.830800
     10 C2          1.6470   -2.0360   -0.0770 c3        1 SVX      0.168400
     11 O6          1.9480    0.4760   -1.4550 o         1 SVX     -0.851300
     12 O5          1.9280   -0.8850    0.6860 os        1 SVX     -0.604200
     13 C1          2.8750   -2.9200   -0.1460 c3        1 SVX     -0.109100
     14 HN1        -2.6700   -0.0920    2.0650 hn        1 SVX      0.335800
     15 HN2        -1.3770    0.8840    2.2190 hn        1 SVX      0.335800
     16 HA         -2.2910    1.8800    0.0180 h1        1 SVX      0.057700
     17 HBC1       -0.6480   -0.7640   -0.0130 h1        1 SVX      0.045700
     18 HBC2       -0.7060    0.5580   -1.2950 h1        1 SVX      0.045700
     19 H4C1        3.3110    0.9820    1.6310 hc        1 SVX      0.102700
     20 H4C2        3.5040    2.0330    0.1890 hc        1 SVX      0.102700
     21 H4C3        2.1950    2.3550    1.3730 hc        1 SVX      0.102700
     22 H2C1        0.8110   -2.5870    0.4420 h1        1 SVX      0.058200
     23 H2C2        1.3180   -1.7330   -1.1110 h1        1 SVX      0.058200
     24 H1C1        3.6900   -2.4230   -0.7230 hc        1 SVX      0.036033
     25 H1C2        3.2520   -3.1390    0.8810 hc        1 SVX      0.036033
     26 H1C3        2.6090   -3.8800   -0.6500 hc        1 SVX      0.036033
@<TRIPOS>BOND
     1    1    2 1   
     2    1   14 1   
     3    1   15 1   
     4    2    3 1   
     5    2    4 1   
     6    2   16 1   
     7    3    5 1   
     8    3    9 1   
     9    4    6 1   
    10    4   17 1   
    11    4   18 1   
    12    6    7 1   
    13    7    8 1   
    14    7   11 2   
    15    7   12 1   
    16    8   19 1   
    17    8   20 1   
    18    8   21 1   
    19   10   12 1   
    20   10   13 1   
    21   10   22 1   
    22   10   23 1   
    23   13   24 1   
    24   13   25 1   
    25   13   26 1   
@<TRIPOS>SUBSTRUCTURE
     1 SVX         1 TEMP              0 ****  ****    0 ROOT
