@<TRIPOS>MOLECULE
SVY
   36    35     1     0     0
SMALL
bcc


@<TRIPOS>ATOM
      1 N           1.9780    2.2360    0.6090 n3        1 SVY     -0.879800
      2 CA          1.9240    0.8690    0.1180 c3        1 SVY     -0.006500
      3 C           3.2800    0.3130   -0.4440 c         1 SVY      0.889600
      4 O           4.2960    1.0570   -0.3960 o         1 SVY     -0.834800
      5 CB          0.8760    0.6410   -0.9770 c3        1 SVY      0.185400
      6 OG         -0.4490    0.7660   -0.4820 os        1 SVY     -0.591200
      7 C1         -0.2520   -2.7570    0.2930 c3        1 SVY      0.189600
      8 C2          1.2060   -2.8230    0.7120 c3        1 SVY     -0.116350
      9 C3         -1.0570   -3.8570    0.9680 c3        1 SVY     -0.116350
     10 C1'        -3.2370    1.2390   -0.2140 c3        1 SVY      0.189600
     11 C2'        -4.6920    0.9650   -0.5630 c3        1 SVY     -0.116350
     12 C3'        -3.1310    2.3400    0.8300 c3        1 SVY     -0.116350
     13 P          -1.3660   -0.5320   -0.4330 p5        1 SVY      1.616500
     14 O1P        -0.7850   -1.5000    0.6960 os        1 SVY     -0.562200
     15 O2P        -2.6700    0.0490    0.3070 os        1 SVY     -0.562200
     16 O3P        -1.6390   -1.1660   -1.7190 o         1 SVY     -0.832300
     17 OXT         3.2650   -0.8660   -0.8990 o         1 SVY     -0.834800
     18 HN1         2.9050    2.3850    0.9770 hn        1 SVY      0.333300
     19 HN2         1.8720    2.8670   -0.1660 hn        1 SVY      0.333300
     20 HA          1.6660    0.2260    1.0100 h1        1 SVY      0.059700
     21 HBC1        0.9820    1.4090   -1.7930 h1        1 SVY      0.052700
     22 HBC2        1.0130   -0.3910   -1.4080 h1        1 SVY      0.052700
     23 H1         -0.3440   -2.8470   -0.8300 h1        1 SVY      0.052700
     24 H2C1        1.8240   -2.0650    0.1570 hc        1 SVY      0.046617
     25 H2C2        1.3000   -2.6200    1.8050 hc        1 SVY      0.046617
     26 H2C3        1.6070   -3.8400    0.4910 hc        1 SVY      0.046617
     27 H3C1       -1.0450   -3.7150    2.0740 hc        1 SVY      0.046617
     28 H3C2       -2.1170   -3.8450    0.6210 hc        1 SVY      0.046617
     29 H3C3       -0.6070   -4.8470    0.7200 hc        1 SVY      0.046617
     30 H1'        -2.6700    1.5390   -1.1430 h1        1 SVY      0.052700
     31 H2'1       -5.2420    0.6120    0.3410 hc        1 SVY      0.046617
     32 H2'2       -5.1670    1.9010   -0.9400 hc        1 SVY      0.046617
     33 H2'3       -4.7630    0.1760   -1.3500 hc        1 SVY      0.046617
     34 H3'1       -3.6080    2.0100    1.7830 hc        1 SVY      0.046617
     35 H3'2       -2.0590    2.5790    1.0310 hc        1 SVY      0.046617
     36 H3'3       -3.6470    3.2560    0.4580 hc        1 SVY      0.046617
@<TRIPOS>BOND
     1    1    2 1   
     2    1   18 1   
     3    1   19 1   
     4    2    3 1   
     5    2    5 1   
     6    2   20 1   
     7    3    4 1   
     8    3   17 1   
     9    5    6 1   
    10    5   21 1   
    11    5   22 1   
    12    6   13 1   
    13    7    8 1   
    14    7    9 1   
    15    7   14 1   
    16    7   23 1   
    17    8   24 1   
    18    8   25 1   
    19    8   26 1   
    20    9   27 1   
    21    9   28 1   
    22    9   29 1   
    23   10   11 1   
    24   10   12 1   
    25   10   15 1   
    26   10   30 1   
    27   11   31 1   
    28   11   32 1   
    29   11   33 1   
    30   12   34 1   
    31   12   35 1   
    32   12   36 1   
    33   13   14 1   
    34   13   15 1   
    35   13   16 2   
@<TRIPOS>SUBSTRUCTURE
     1 SVY         1 TEMP              0 ****  ****    0 ROOT
