@<TRIPOS>MOLECULE
SVZ
   27    26     1     0     0
SMALL
bcc


@<TRIPOS>ATOM
      1 N           0.3740    3.1240   -1.8000 n3        1 SVZ     -0.897800
      2 CA         -0.4770    3.7950   -0.8240 c3        1 SVZ      0.004500
      3 C          -1.0220    5.1720   -1.3100 c         1 SVZ      0.884600
      4 O          -0.6930    5.5840   -2.4670 o         1 SVZ     -0.868800
      5 CB          0.1910    3.9600    0.5600 c3        1 SVZ      0.185400
      6 OG          0.1420    2.7860    1.3120 os        1 SVZ     -0.593200
      7 O4          1.3150    1.2150    2.8550 o         1 SVZ     -0.865500
      8 P1          1.5470    1.9350    1.5660 p5        1 SVZ      1.424700
      9 O2          2.6710    2.9090    1.4480 o         1 SVZ     -0.865500
     10 N3          1.6030    0.8760    0.3360 n3        1 SVZ     -0.934300
     11 C5          1.0900   -0.4390    0.4950 c3        1 SVZ      0.235500
     12 C7          2.1150   -1.5430    0.1800 c3        1 SVZ     -0.104600
     13 C6         -0.1630   -0.7420   -0.3410 c3        1 SVZ     -0.104600
     14 OXT        -1.8120    5.8170   -0.5620 o         1 SVZ     -0.868800
     15 HN1         1.3130    3.4680   -1.7020 hn        1 SVZ      0.324300
     16 HN2         0.0650    3.4060   -2.7170 hn        1 SVZ      0.324300
     17 HA         -1.3790    3.1310   -0.6820 h1        1 SVZ      0.049700
     18 HBC1       -0.4080    4.7370    1.1170 h1        1 SVZ      0.040700
     19 HBC2        1.2550    4.3110    0.4610 h1        1 SVZ      0.040700
     20 H3          1.7620    1.1530   -0.5960 hn        1 SVZ      0.408800
     21 H5          0.8100   -0.5410    1.5930 h1        1 SVZ      0.087700
     22 H7C1        1.6660   -2.5420    0.3920 hc        1 SVZ      0.015533
     23 H7C2        2.4180   -1.5100   -0.8930 hc        1 SVZ      0.015533
     24 H7C3        3.0270   -1.4210    0.8110 hc        1 SVZ      0.015533
     25 H6C1       -0.9620    0.0100   -0.1340 hc        1 SVZ      0.015533
     26 H6C2       -0.5490   -1.7580   -0.0850 hc        1 SVZ      0.015533
     27 H6C3        0.0720   -0.7140   -1.4310 hc        1 SVZ      0.015533
@<TRIPOS>BOND
     1    1    2 1   
     2    1   15 1   
     3    1   16 1   
     4    2    3 1   
     5    2    5 1   
     6    2   17 1   
     7    3    4 1   
     8    3   14 1   
     9    5    6 1   
    10    5   18 1   
    11    5   19 1   
    12    6    8 1   
    13    7    8 1   
    14    8    9 1   
    15    8   10 1   
    16   10   11 1   
    17   10   20 1   
    18   11   12 1   
    19   11   13 1   
    20   11   21 1   
    21   12   22 1   
    22   12   23 1   
    23   12   24 1   
    24   13   25 1   
    25   13   26 1   
    26   13   27 1   
@<TRIPOS>SUBSTRUCTURE
     1 SVZ         1 TEMP              0 ****  ****    0 ROOT
