@<TRIPOS>MOLECULE
SW1
   21    22     1     0     0
SMALL
bcc


@<TRIPOS>ATOM
      1 C1          0.1420    0.2870    0.1640 c3        1 SW1      0.109500
      2 N1          1.4520   -0.4040   -0.0570 n4        1 SW1     -0.833600
      3 S1         -1.9150   -0.1560    3.5050 ss        1 SW1      0.083700
      4 C2         -0.5060   -0.1490    1.4320 cc        1 SW1      0.234600
      5 N2         -0.4010   -1.4620    1.8740 nc        1 SW1     -0.696000
      6 S2         -0.7780   -4.3230    3.1860 ss        1 SW1      0.137200
      7 C3         -1.2900    0.6860    2.2260 cd        1 SW1     -0.240400
      8 C4         -1.1200   -1.6010    3.0020 cd        1 SW1      0.522900
      9 C5         -1.2520   -2.8130    3.7480 cd        1 SW1     -0.245600
     10 C6         -1.7950   -2.9070    5.0300 cc        1 SW1     -0.114000
     11 C7         -1.7960   -4.2470    5.4990 cc        1 SW1     -0.149000
     12 C8         -1.2560   -5.1100    4.5590 cd        1 SW1     -0.156100
     13 H1          0.3280    1.3990    0.1890 hx        1 SW1      0.114200
     14 H1A        -0.5240    0.0400   -0.7160 hx        1 SW1      0.114200
     15 HN1         1.2960   -1.4140   -0.1710 hn        1 SW1      0.465133
     16 HN1A        1.9090   -0.0340   -0.8930 hn        1 SW1      0.465133
     17 H3         -1.4780    1.7440    2.0330 h4        1 SW1      0.198000
     18 H6         -2.1740   -2.0650    5.6160 ha        1 SW1      0.160000
     19 H7         -2.1780   -4.5440    6.4790 ha        1 SW1      0.175000
     20 H8         -1.1550   -6.1890    4.6950 h4        1 SW1      0.191000
     21 H13         2.0590   -0.2660    0.7570 hn        1 SW1      0.465133
@<TRIPOS>BOND
     1    1    2 1   
     2    1    4 1   
     3    1   13 1   
     4    1   14 1   
     5    2   15 1   
     6    2   16 1   
     7    2   21 1   
     8    3    7 1   
     9    3    8 1   
    10    4    5 1   
    11    4    7 2   
    12    5    8 2   
    13    6    9 1   
    14    6   12 1   
    15    7   17 1   
    16    8    9 1   
    17    9   10 2   
    18   10   11 1   
    19   10   18 1   
    20   11   12 2   
    21   11   19 1   
    22   12   20 1   
@<TRIPOS>SUBSTRUCTURE
     1 SW1         1 TEMP              0 ****  ****    0 ROOT
