@<TRIPOS>MOLECULE
SW1
   21    22     1     0     0
SMALL
bcc


@<TRIPOS>ATOM
      1 C1          0.1200    0.2590    0.1350 c3        1 SW1      0.109500
      2 N1          1.4000   -0.4710   -0.1280 nz        1 SW1     -0.833600
      3 S1         -1.8350   -0.1140    3.5450 ss        1 SW1      0.083700
      4 C2         -0.4970   -0.1540    1.4250 cc        1 SW1      0.234600
      5 N2         -0.4180   -1.4690    1.8670 nc        1 SW1     -0.696000
      6 S2         -0.8430   -4.3150    3.1970 ss        1 SW1      0.137200
      7 C3         -1.2270    0.7060    2.2440 cd        1 SW1     -0.240400
      8 C4         -1.1020   -1.5840    3.0200 cd        1 SW1      0.522900
      9 C5         -1.2460   -2.7900    3.7730 cd        1 SW1     -0.245600
     10 C6         -1.7450   -2.8650    5.0740 cc        1 SW1     -0.114000
     11 C7         -1.7730   -4.2040    5.5450 cc        1 SW1     -0.149000
     12 C8         -1.2960   -5.0850    4.5880 cd        1 SW1     -0.156100
     13 H1          0.3410    1.3660    0.1510 hx        1 SW1      0.114200
     14 H1A        -0.5830    0.0310   -0.7210 hx        1 SW1      0.114200
     15 HN1         1.2110   -1.4760   -0.2330 hn        1 SW1      0.465133
     16 HN1A        1.8400   -0.1170   -0.9800 hn        1 SW1      0.465133
     17 H3         -1.3890    1.7690    2.0550 h4        1 SW1      0.198000
     18 H6         -2.0750   -2.0100    5.6710 ha        1 SW1      0.160000
     19 H7         -2.1280   -4.4870    6.5390 ha        1 SW1      0.175000
     20 H8         -1.2240   -6.1670    4.7230 h4        1 SW1      0.191000
     21 H13         2.0390   -0.3500    0.6650 hn        1 SW1      0.465133
@<TRIPOS>BOND
     1    1    2 1   
     2    1    4 1   
     3    1   13 1   
     4    1   14 1   
     5    2   15 1   
     6    2   16 1   
     7    2   21 1   
     8    3    7 1   
     9    3    8 1   
    10    4    5 1   
    11    4    7 2   
    12    5    8 2   
    13    6    9 1   
    14    6   12 1   
    15    7   17 1   
    16    8    9 1   
    17    9   10 2   
    18   10   11 1   
    19   10   18 1   
    20   11   12 2   
    21   11   19 1   
    22   12   20 1   
@<TRIPOS>SUBSTRUCTURE
     1 SW1         1 TEMP              0 ****  ****    0 ROOT
