@<TRIPOS>MOLECULE
SW1
   20    21     1     0     0
SMALL
bcc


@<TRIPOS>ATOM
      1 C1         -3.5990    0.8460   -0.0550 c3        1 SW1      0.130500
      2 N1         -3.4980    2.2350    0.2970 n3        1 SW1     -0.895800
      3 S1         -0.7510   -1.8890   -0.5130 ss        1 SW1     -0.056300
      4 C2         -2.3300    0.0450   -0.1550 cc        1 SW1      0.309600
      5 N2         -1.0800    0.6010    0.0790 nc        1 SW1     -0.657000
      6 S2          1.9250    1.3730    0.5040 ss        1 SW1      0.132200
      7 C3         -2.3110   -1.3070   -0.4890 cd        1 SW1     -0.271400
      8 C4         -0.1350   -0.3390   -0.0810 cd        1 SW1      0.485900
      9 C5          1.2720   -0.1150    0.0840 cd        1 SW1     -0.186600
     10 C6          2.2690   -1.0710   -0.0760 cc        1 SW1     -0.147000
     11 C7          3.5600   -0.5230    0.1610 cc        1 SW1     -0.155000
     12 C8          3.4870    0.8190    0.4880 cd        1 SW1     -0.193100
     13 H1         -4.2550    0.3390    0.7110 h1        1 SW1      0.062700
     14 H1A        -4.1190    0.7770   -1.0550 h1        1 SW1      0.062700
     15 HN1        -3.0740    2.3480    1.1980 hn        1 SW1      0.355800
     16 HN1A       -2.9530    2.7380   -0.3760 hn        1 SW1      0.355800
     17 H3         -3.1920   -1.9060   -0.7060 h4        1 SW1      0.182000
     18 H6          2.0970   -2.1150   -0.3480 ha        1 SW1      0.155000
     19 H7          4.4810   -1.1040    0.0880 ha        1 SW1      0.156000
     20 H8          4.3450    1.4530    0.7110 h4        1 SW1      0.174000
@<TRIPOS>BOND
     1    1    2 1   
     2    1    4 1   
     3    1   13 1   
     4    1   14 1   
     5    2   15 1   
     6    2   16 1   
     7    3    7 1   
     8    3    8 1   
     9    4    5 1   
    10    4    7 2   
    11    5    8 2   
    12    6    9 1   
    13    6   12 1   
    14    7   17 1   
    15    8    9 1   
    16    9   10 2   
    17   10   11 1   
    18   10   18 1   
    19   11   12 2   
    20   11   19 1   
    21   12   20 1   
@<TRIPOS>SUBSTRUCTURE
     1 SW1         1 TEMP              0 ****  ****    0 ROOT
