@<TRIPOS>MOLECULE
SW1
   20    16     1     0     0
SMALL
bcc


@<TRIPOS>ATOM
      1 C1          1.2730   -1.4310   -2.8090 c3        1 SW1     -0.012000
      2 N1          2.5210   -0.8220   -3.1110 n3        1 SW1     -0.328000
      3 S1          0.6340   -1.3950    1.0000 ss        1 SW1      0.528000
      4 C2          0.9260   -1.1660   -1.3760 c2        1 SW1     -0.113000
      5 N2         -0.0140   -0.0190   -0.8610 n2        1 SW1     -0.131000
      6 S2         -2.6680    0.5380    1.5030 ss        1 SW1      0.672000
      7 C3          1.3040   -1.9790   -0.2550 c1        1 SW1     -0.476000
      8 C4         -0.1790   -0.1680    0.5600 c1        1 SW1     -0.199000
      9 C5         -1.1280    0.6650    1.4520 c1        1 SW1     -0.406000
     10 C6         -0.7430    1.8100    2.2740 c1        1 SW1     -0.151000
     11 C7         -2.0730    2.4600    2.8870 c1        1 SW1     -0.151000
     12 C8         -3.2110    1.6890    2.4170 c1        1 SW1     -0.406000
     13 H1          1.3360   -2.4270   -2.9670 h1        1 SW1      0.102000
     14 H1A         0.5360   -1.0300   -3.4210 h1        1 SW1      0.102000
     15 HN1         3.1960   -1.2370   -2.6270 hn        1 SW1      0.151000
     16 HN1A        2.4870    0.0730   -2.8850 hn        1 SW1      0.151000
     17 H3          1.8730   -2.7500   -0.2840 DU        1 SW1      0.166750
     18 H6          0.1740    2.1260    2.4220 DU        1 SW1      0.166750
     19 H7         -2.1110    3.2070    3.4510 DU        1 SW1      0.166750
     20 H8         -4.1330    1.8560    2.6290 DU        1 SW1      0.166750
@<TRIPOS>BOND
     1    1    2 1   
     2    1    4 1   
     3    1   13 1   
     4    1   14 1   
     5    2   15 1   
     6    2   16 1   
     7    3    7 1   
     8    3    8 1   
     9    4    5 1   
    10    4    7 1   
    11    5    8 1   
    12    6    9 1   
    13    6   12 1   
    14    9   10 1   
    15   10   11 1   
    16   11   12 1   
@<TRIPOS>SUBSTRUCTURE
     1 SW1         1 TEMP              0 ****  ****    0 ROOT
