@<TRIPOS>MOLECULE
SW1
   21    22     1     0     0
SMALL
bcc


@<TRIPOS>ATOM
      1 C1          0.0960    0.2840    0.1480 c3        1 SW1      0.109500
      2 N1          1.3590   -0.4610   -0.1550 n4        1 SW1     -0.833600
      3 S1         -1.7880   -0.1120    3.5950 ss        1 SW1      0.083700
      4 C2         -0.4990   -0.1400    1.4450 cc        1 SW1      0.234600
      5 N2         -0.4300   -1.4620    1.8660 nc        1 SW1     -0.696000
      6 S2         -0.8680   -4.3220    3.1620 ss        1 SW1      0.137200
      7 C3         -1.1980    0.7190    2.2920 cd        1 SW1     -0.240400
      8 C4         -1.0900   -1.5840    3.0310 cd        1 SW1      0.522900
      9 C5         -1.2360   -2.8000    3.7690 cd        1 SW1     -0.245600
     10 C6         -1.7070   -2.8870    5.0800 cc        1 SW1     -0.114000
     11 C7         -1.7440   -4.2330    5.5310 cc        1 SW1     -0.149000
     12 C8         -1.3020   -5.1060    4.5510 cd        1 SW1     -0.156100
     13 H1          0.3340    1.3870    0.1750 hx        1 SW1      0.114200
     14 H1A        -0.6290    0.0800   -0.6960 hx        1 SW1      0.114200
     15 HN1         2.0170   -0.3620    0.6260 hn        1 SW1      0.465133
     16 HN1A        1.1510   -1.4610   -0.2710 hn        1 SW1      0.465133
     17 H3         -1.3470    1.7860    2.1230 h4        1 SW1      0.198000
     18 H6         -2.0100   -2.0370    5.6970 ha        1 SW1      0.161000
     19 H7         -2.0810   -4.5250    6.5290 ha        1 SW1      0.175000
     20 H8         -1.2440   -6.1900    4.6680 h4        1 SW1      0.191000
     21 H13         1.7850   -0.1010   -1.0110 hn        1 SW1      0.465133
@<TRIPOS>BOND
     1    1    2 1   
     2    1    4 1   
     3    1   13 1   
     4    1   14 1   
     5    2   15 1   
     6    2   16 1   
     7    2   21 1   
     8    3    7 1   
     9    3    8 1   
    10    4    5 1   
    11    4    7 2   
    12    5    8 2   
    13    6    9 1   
    14    6   12 1   
    15    7   17 1   
    16    8    9 1   
    17    9   10 2   
    18   10   11 1   
    19   10   18 1   
    20   11   12 2   
    21   11   19 1   
    22   12   20 1   
@<TRIPOS>SUBSTRUCTURE
     1 SW1         1 TEMP              0 ****  ****    0 ROOT
