@<TRIPOS>MOLECULE
SW2
   26    27     1     0     0
SMALL
bcc


@<TRIPOS>ATOM
      1 C1          0.0800    0.0350    0.0290 c3        1 SW2      0.173100
      2 N1          1.5800   -0.0460    0.0760 n4        1 SW2     -0.844600
      3 C2         -0.4900    0.0400    1.4050 ca        1 SW2     -0.168300
      4 N2         -1.4310   -2.4080    4.0350 na        1 SW2     -0.031200
      5 C3         -0.8500    1.2470    2.0070 ca        1 SW2     -0.121000
      6 C4         -1.4090    1.2300    3.2850 ca        1 SW2     -0.091000
      7 C5         -1.6070    0.0330    3.9610 ca        1 SW2     -0.113000
      8 C6         -1.2420   -1.2010    3.3620 ca        1 SW2      0.065800
      9 C7         -1.5440   -2.5680    5.4320 cc        1 SW2     -0.152800
     10 C8         -1.7290   -3.9190    5.7080 cd        1 SW2     -0.159500
     11 C9         -1.7420   -4.6220    4.4470 cd        1 SW2     -0.159500
     12 C10        -1.5580   -3.6800    3.4400 cc        1 SW2     -0.152800
     13 C11        -0.6780   -1.1770    2.0670 ca        1 SW2     -0.155000
     14 H1         -0.1920    0.9790   -0.5270 hx        1 SW2      0.114700
     15 H1A        -0.2880   -0.8560   -0.5580 hx        1 SW2      0.114700
     16 HN1         1.9580    0.7700    0.5680 hn        1 SW2      0.458800
     17 HN1A        1.9660   -0.0790   -0.8710 hn        1 SW2      0.458800
     18 H3         -0.7170    2.2030    1.4790 ha        1 SW2      0.145000
     19 H4         -1.7080    2.1790    3.7620 ha        1 SW2      0.165000
     20 H5         -2.0660    0.0480    4.9640 ha        1 SW2      0.169000
     21 H7         -1.4670   -1.7170    6.1100 h4        1 SW2      0.169000
     22 H8         -1.8460   -4.3700    6.6900 ha        1 SW2      0.171500
     23 H9         -1.8770   -5.6930    4.3160 ha        1 SW2      0.171500
     24 H10        -1.5380   -3.8060    2.3580 h4        1 SW2      0.169000
     25 H11        -0.4010   -2.1190    1.5680 ha        1 SW2      0.142000
     26 H13         1.8630   -0.8890    0.5880 hn        1 SW2      0.458800
@<TRIPOS>BOND
     1    1    2 1   
     2    1    3 1   
     3    1   14 1   
     4    1   15 1   
     5    2   16 1   
     6    2   17 1   
     7    2   26 1   
     8    3    5 ar  
     9    3   13 ar  
    10    4    8 1   
    11    4    9 1   
    12    4   12 1   
    13    5    6 ar  
    14    5   18 1   
    15    6    7 ar  
    16    6   19 1   
    17    7    8 ar  
    18    7   20 1   
    19    8   13 ar  
    20    9   10 2   
    21    9   21 1   
    22   10   11 1   
    23   10   22 1   
    24   11   12 2   
    25   11   23 1   
    26   12   24 1   
    27   13   25 1   
@<TRIPOS>SUBSTRUCTURE
     1 SW2         1 TEMP              0 ****  ****    0 ROOT
