@<TRIPOS>MOLECULE
SW2
   26    27     1     0     0
SMALL
bcc


@<TRIPOS>ATOM
      1 C1          0.1120    0.0220    0.0330 c3        1 SW2      0.173100
      2 N1          1.6110   -0.0330    0.1070 n4        1 SW2     -0.844600
      3 C2         -0.4830    0.0310    1.3990 ca        1 SW2     -0.168300
      4 N2         -1.4380   -2.4060    4.0340 na        1 SW2     -0.031200
      5 C3         -0.8700    1.2380    1.9830 ca        1 SW2     -0.122000
      6 C4         -1.4520    1.2250    3.2520 ca        1 SW2     -0.091000
      7 C5         -1.6460    0.0310    3.9340 ca        1 SW2     -0.113000
      8 C6         -1.2540   -1.2030    3.3530 ca        1 SW2      0.065800
      9 C7         -1.5740   -2.5550    5.4300 cc        1 SW2     -0.152800
     10 C8         -1.7460   -3.9060    5.7140 cd        1 SW2     -0.159500
     11 C9         -1.7260   -4.6210    4.4590 cd        1 SW2     -0.159500
     12 C10        -1.5360   -3.6860    3.4470 cc        1 SW2     -0.152800
     13 C11        -0.6660   -1.1830    2.0680 ca        1 SW2     -0.155000
     14 H1         -0.1670    0.9560   -0.5370 hx        1 SW2      0.114700
     15 H1A        -0.2310   -0.8810   -0.5510 hx        1 SW2      0.114700
     16 HN1         2.0140   -0.0680   -0.8320 hn        1 SW2      0.458800
     17 HN1A        1.9660    0.7940    0.5980 hn        1 SW2      0.458800
     18 H3         -0.7420    2.1920    1.4490 ha        1 SW2      0.145000
     19 H4         -1.7720    2.1740    3.7140 ha        1 SW2      0.165000
     20 H5         -2.1230    0.0490    4.9290 ha        1 SW2      0.169000
     21 H7         -1.5210   -1.6980    6.1010 h4        1 SW2      0.169000
     22 H8         -1.8750   -4.3500    6.6980 ha        1 SW2      0.171500
     23 H9         -1.8440   -5.6950    4.3360 ha        1 SW2      0.171500
     24 H10        -1.4950   -3.8210    2.3680 h4        1 SW2      0.169000
     25 H11        -0.3670   -2.1240    1.5830 ha        1 SW2      0.142000
     26 H13         1.9000   -0.8660    0.6330 hn        1 SW2      0.458800
@<TRIPOS>BOND
     1    1    2 1   
     2    1    3 1   
     3    1   14 1   
     4    1   15 1   
     5    2   16 1   
     6    2   17 1   
     7    2   26 1   
     8    3    5 ar  
     9    3   13 ar  
    10    4    8 1   
    11    4    9 1   
    12    4   12 1   
    13    5    6 ar  
    14    5   18 1   
    15    6    7 ar  
    16    6   19 1   
    17    7    8 ar  
    18    7   20 1   
    19    8   13 ar  
    20    9   10 2   
    21    9   21 1   
    22   10   11 1   
    23   10   22 1   
    24   11   12 2   
    25   11   23 1   
    26   12   24 1   
    27   13   25 1   
@<TRIPOS>SUBSTRUCTURE
     1 SW2         1 TEMP              0 ****  ****    0 ROOT
