@<TRIPOS>MOLECULE
SW2
   25    19     1     0     0
SMALL
bcc


@<TRIPOS>ATOM
      1 C1          1.1530    1.1910   -2.6720 c3        1 SW2     -0.042000
      2 N1          2.6300    1.3110   -2.7330 n3        1 SW2     -0.349000
      3 C2          0.7060    1.1540   -1.2400 c2        1 SW2     -0.066000
      4 N2         -0.9370   -1.1450    1.2270 n2        1 SW2     -0.095000
      5 C3          0.7640    2.3160   -0.4490 c1        1 SW2     -0.120000
      6 C4          0.2820    2.2920    0.8470 c1        1 SW2     -0.131000
      7 C5         -0.2600    1.1150    1.3660 c1        1 SW2     -0.131000
      8 C6         -0.3160   -0.0460    0.5710 c1        1 SW2      0.062000
      9 C7         -2.2410   -1.4870    1.1360 c1        1 SW2     -0.129500
     10 C8         -2.4220   -2.6930    1.8200 c1        1 SW2     -0.192000
     11 C9         -1.2300   -3.0720    2.3170 c1        1 SW2     -0.192000
     12 C10        -0.2920   -2.1140    1.9550 c1        1 SW2     -0.129500
     13 C11         0.1610   -0.0240   -0.7140 c2        1 SW2     -0.148000
     14 H1          0.8810    0.3780   -3.1110 h1        1 SW2      0.075000
     15 H1A         0.7410    1.9630   -3.1240 h1        1 SW2      0.075000
     16 HN1         2.9910    0.5150   -3.0780 hn        1 SW2      0.149500
     17 HN1A        2.8560    2.0090   -3.2820 hn        1 SW2      0.149500
     18 H3          1.1540    3.1610   -0.8260 ha        1 SW2      0.153000
     19 H4          0.3210    3.0960    1.3990 ha        1 SW2      0.140000
     20 H5         -0.5980    1.0960    2.2680 ha        1 SW2      0.140000
     21 H7         -2.9550   -0.9660    0.6600 DU        1 SW2      0.159750
     22 H8         -3.2230   -3.1510    1.9140 DU        1 SW2      0.159750
     23 H9         -1.0580   -3.8710    2.8360 DU        1 SW2      0.159750
     24 H10         0.7160   -2.1290    2.1890 DU        1 SW2      0.159750
     25 H11         0.1740   -0.8980   -1.2760 ha        1 SW2      0.141000
@<TRIPOS>BOND
     1    1    2 1   
     2    1    3 1   
     3    1   14 1   
     4    1   15 1   
     5    2   16 1   
     6    2   17 1   
     7    3    5 1   
     8    3   13 1   
     9    4    9 1   
    10    4   12 1   
    11    5   18 1   
    12    6    7 1   
    13    6   19 1   
    14    7   20 1   
    15    8   13 1   
    16    9   10 1   
    17   10   11 1   
    18   11   12 1   
    19   13   25 1   
@<TRIPOS>SUBSTRUCTURE
     1 SW2         1 TEMP              0 ****  ****    0 ROOT
