@<TRIPOS>MOLECULE
SW2
   25    26     1     0     0
SMALL
bcc


@<TRIPOS>ATOM
      1 C1         -3.0810    1.2400   -0.3010 c3        1 SW2      0.202100
      2 N1         -4.1560    1.0930    0.6540 n3        1 SW2     -0.916800
      3 C2         -2.0030    0.2030   -0.1630 ca        1 SW2     -0.073300
      4 N2          1.7120    0.0370   -0.0720 na        1 SW2     -0.001200
      5 C3         -2.3330   -1.1520   -0.0690 ca        1 SW2     -0.120000
      6 C4         -1.3210   -2.1050    0.0280 ca        1 SW2     -0.114000
      7 C5          0.0170   -1.7260    0.0240 ca        1 SW2     -0.148000
      8 C6          0.3630   -0.3600   -0.0700 ca        1 SW2      0.016800
      9 C7          2.7730   -0.6560    0.5280 cc        1 SW2     -0.153800
     10 C8          3.9520    0.0610    0.3080 cd        1 SW2     -0.192000
     11 C9          3.6070    1.2300   -0.4540 cd        1 SW2     -0.192000
     12 C10         2.2270    1.1940   -0.6730 cc        1 SW2     -0.153800
     13 C11        -0.6660    0.6020   -0.1580 ca        1 SW2     -0.148000
     14 H1         -3.5360    1.1360   -1.3310 h1        1 SW2      0.035700
     15 H1A        -2.6040    2.2660   -0.2560 h1        1 SW2      0.035700
     16 HN1        -3.8020    0.9690    1.5820 hn        1 SW2      0.354300
     17 HN1A       -4.7510    1.8970    0.6300 hn        1 SW2      0.354300
     18 H3         -3.3900   -1.4620   -0.0710 ha        1 SW2      0.153000
     19 H4         -1.5800   -3.1720    0.1030 ha        1 SW2      0.138000
     20 H5          0.8000   -2.4980    0.0870 ha        1 SW2      0.142000
     21 H7          2.6070   -1.5860    1.0710 h4        1 SW2      0.166500
     22 H8          4.9450   -0.2120    0.6490 ha        1 SW2      0.153000
     23 H9          4.2930    1.9980   -0.7970 ha        1 SW2      0.153000
     24 H10         1.5830    1.8850   -1.2170 h4        1 SW2      0.166500
     25 H11        -0.4180    1.6730   -0.2210 ha        1 SW2      0.141000
@<TRIPOS>BOND
     1    1    2 1   
     2    1    3 1   
     3    1   14 1   
     4    1   15 1   
     5    2   16 1   
     6    2   17 1   
     7    3    5 ar  
     8    3   13 ar  
     9    4    8 1   
    10    4    9 1   
    11    4   12 1   
    12    5    6 ar  
    13    5   18 1   
    14    6    7 ar  
    15    6   19 1   
    16    7    8 ar  
    17    7   20 1   
    18    8   13 ar  
    19    9   10 2   
    20    9   21 1   
    21   10   11 1   
    22   10   22 1   
    23   11   12 2   
    24   11   23 1   
    25   12   24 1   
    26   13   25 1   
@<TRIPOS>SUBSTRUCTURE
     1 SW2         1 TEMP              0 ****  ****    0 ROOT
