@<TRIPOS>MOLECULE
SW2
   26    27     1     0     0
SMALL
bcc


@<TRIPOS>ATOM
      1 C1          0.1090    0.0310    0.0360 c3        1 SW2      0.173100
      2 N1          1.6090   -0.0350    0.1060 nz        1 SW2     -0.844600
      3 C2         -0.4820    0.0360    1.4030 ca        1 SW2     -0.168300
      4 N2         -1.4400   -2.4090    4.0300 na        1 SW2     -0.031200
      5 C3         -0.8620    1.2420    1.9940 ca        1 SW2     -0.121000
      6 C4         -1.4410    1.2260    3.2640 ca        1 SW2     -0.091000
      7 C5         -1.6380    0.0300    3.9420 ca        1 SW2     -0.113000
      8 C6         -1.2520   -1.2030    3.3540 ca        1 SW2      0.065800
      9 C7         -1.5720   -2.5630    5.4260 cc        1 SW2     -0.152800
     10 C8         -1.7500   -3.9150    5.7050 cd        1 SW2     -0.159500
     11 C9         -1.7370   -4.6240    4.4470 cd        1 SW2     -0.159500
     12 C10        -1.5460   -3.6850    3.4380 cc        1 SW2     -0.152800
     13 C11        -0.6680   -1.1800    2.0680 ca        1 SW2     -0.155000
     14 H1         -0.1650    0.9690   -0.5290 hx        1 SW2      0.114700
     15 H1A        -0.2410   -0.8670   -0.5520 hx        1 SW2      0.114700
     16 HN1         1.9700    0.7880    0.5990 hn        1 SW2      0.458800
     17 HN1A        2.0090   -0.0680   -0.8350 hn        1 SW2      0.458800
     18 H3         -0.7300    2.1970    1.4640 ha        1 SW2      0.145000
     19 H4         -1.7550    2.1740    3.7320 ha        1 SW2      0.165000
     20 H5         -2.1120    0.0450    4.9380 ha        1 SW2      0.169000
     21 H7         -1.5130   -1.7090    6.1010 h4        1 SW2      0.169000
     22 H8         -1.8770   -4.3620    6.6870 ha        1 SW2      0.171500
     23 H9         -1.8600   -5.6970    4.3190 ha        1 SW2      0.171500
     24 H10        -1.5090   -3.8150    2.3580 h4        1 SW2      0.169000
     25 H11        -0.3750   -2.1210    1.5770 ha        1 SW2      0.142000
     26 H13         1.8930   -0.8720    0.6260 hn        1 SW2      0.458800
@<TRIPOS>BOND
     1    1    2 1   
     2    1    3 1   
     3    1   14 1   
     4    1   15 1   
     5    2   16 1   
     6    2   17 1   
     7    2   26 1   
     8    3    5 ar  
     9    3   13 ar  
    10    4    8 1   
    11    4    9 1   
    12    4   12 1   
    13    5    6 ar  
    14    5   18 1   
    15    6    7 ar  
    16    6   19 1   
    17    7    8 ar  
    18    7   20 1   
    19    8   13 ar  
    20    9   10 2   
    21    9   21 1   
    22   10   11 1   
    23   10   22 1   
    24   11   12 2   
    25   11   23 1   
    26   12   24 1   
    27   13   25 1   
@<TRIPOS>SUBSTRUCTURE
     1 SW2         1 TEMP              0 ****  ****    0 ROOT
