@<TRIPOS>MOLECULE
SW3
   21    21     1     0     0
SMALL
bcc


@<TRIPOS>ATOM
      1 C1         -0.0500    0.3030   -0.1080 c3        1 SW3     -0.050800
      2 N1          5.5870   -1.2890    1.4110 n4        1 SW3     -0.840600
      3 C2          1.3950    0.0990    0.0750 cc        1 SW3     -0.067600
      4 N2          3.5500   -0.2980   -0.5260 nc        1 SW3     -0.514800
      5 C3          2.1530    0.1340    1.2620 cd        1 SW3     -0.248300
      6 N3          2.3050   -0.1720   -0.9700 na        1 SW3      0.140400
      7 C4          3.5040   -0.1160    0.8370 cd        1 SW3      0.180600
      8 C5          4.7010   -0.1140    1.7030 c3        1 SW3      0.117500
      9 C6          1.9190   -0.3210   -2.3600 c3        1 SW3      0.020600
     10 H1         -0.2460    1.2310   -0.7050 hc        1 SW3      0.073367
     11 H1A        -0.5150   -0.5650   -0.6410 hc        1 SW3      0.073367
     12 H1B        -0.5400    0.4130    0.8920 hc        1 SW3      0.073367
     13 HN1         6.3730   -1.3100    2.0640 hn        1 SW3      0.462467
     14 HN1A        5.9440   -1.2240    0.4510 hn        1 SW3      0.462467
     15 H3          1.7980    0.3230    2.2690 ha        1 SW3      0.184000
     16 H5          5.3160    0.8210    1.5380 hx        1 SW3      0.115700
     17 H5A         4.3880   -0.1670    2.7870 hx        1 SW3      0.115700
     18 H6          2.7950   -0.1380   -3.0380 h1        1 SW3      0.080367
     19 H6A         1.5300   -1.3620   -2.5240 h1        1 SW3      0.080367
     20 H6B         1.1090    0.4240   -2.5790 h1        1 SW3      0.080367
     21 H13         5.0500   -2.1580    1.4960 hn        1 SW3      0.462467
@<TRIPOS>BOND
     1    1    3 1   
     2    1   10 1   
     3    1   11 1   
     4    1   12 1   
     5    2    8 1   
     6    2   13 1   
     7    2   14 1   
     8    2   21 1   
     9    3    5 2   
    10    3    6 1   
    11    4    6 1   
    12    4    7 2   
    13    5    7 1   
    14    5   15 1   
    15    6    9 1   
    16    7    8 1   
    17    8   16 1   
    18    8   17 1   
    19    9   18 1   
    20    9   19 1   
    21    9   20 1   
@<TRIPOS>SUBSTRUCTURE
     1 SW3         1 TEMP              0 ****  ****    0 ROOT
