@<TRIPOS>MOLECULE
SW3
   21    21     1     0     0
SMALL
bcc


@<TRIPOS>ATOM
      1 C1         -0.0580    0.2780   -0.0750 c3        1 SW3     -0.050800
      2 N1          5.6090   -1.2720    1.3750 n4        1 SW3     -0.840600
      3 C2          1.3910    0.0860    0.0920 cc        1 SW3     -0.067600
      4 N2          3.5430   -0.2850   -0.5340 nc        1 SW3     -0.514800
      5 C3          2.1610    0.1190    1.2710 cd        1 SW3     -0.248300
      6 N3          2.2930   -0.1680   -0.9650 na        1 SW3      0.140400
      7 C4          3.5100   -0.1140    0.8310 cd        1 SW3      0.180600
      8 C5          4.7150   -0.1070    1.6850 c3        1 SW3      0.117500
      9 C6          1.8940   -0.3090   -2.3510 c3        1 SW3      0.020600
     10 H1         -0.2690    1.2080   -0.6620 hc        1 SW3      0.073367
     11 H1A        -0.5200   -0.5910   -0.6100 hc        1 SW3      0.073367
     12 H1B        -0.5390    0.3760    0.9310 hc        1 SW3      0.073367
     13 HN1         5.9570   -1.1960    0.4110 hn        1 SW3      0.462467
     14 HN1A        6.4020   -1.2900    2.0190 hn        1 SW3      0.462467
     15 H3          1.8140    0.2970    2.2840 ha        1 SW3      0.184000
     16 H5          4.4140   -0.1720    2.7710 hx        1 SW3      0.115700
     17 H5A         5.3200    0.8340    1.5210 hx        1 SW3      0.115700
     18 H6          2.7630   -0.1190   -3.0370 h1        1 SW3      0.080367
     19 H6A         1.0800    0.4360   -2.5590 h1        1 SW3      0.080367
     20 H6B         1.5060   -1.3500   -2.5180 h1        1 SW3      0.080367
     21 H13         5.0810   -2.1470    1.4570 hn        1 SW3      0.462467
@<TRIPOS>BOND
     1    1    3 1   
     2    1   10 1   
     3    1   11 1   
     4    1   12 1   
     5    2    8 1   
     6    2   13 1   
     7    2   14 1   
     8    2   21 1   
     9    3    5 2   
    10    3    6 1   
    11    4    6 1   
    12    4    7 2   
    13    5    7 1   
    14    5   15 1   
    15    6    9 1   
    16    7    8 1   
    17    8   16 1   
    18    8   17 1   
    19    9   18 1   
    20    9   19 1   
    21    9   20 1   
@<TRIPOS>SUBSTRUCTURE
     1 SW3         1 TEMP              0 ****  ****    0 ROOT
