@<TRIPOS>MOLECULE
SW3
   20    20     1     0     0
SMALL
bcc


@<TRIPOS>ATOM
      1 C1          2.5210    1.4550    0.3050 c3        1 SW3     -0.032800
      2 N1         -3.2840   -0.7110   -0.1560 n3        1 SW3     -0.900800
      3 C2          1.1980    0.8320    0.1530 cc        1 SW3     -0.097600
      4 N2         -0.3290   -0.7740   -0.3770 nc        1 SW3     -0.520800
      5 C3         -0.0690    1.3620    0.4430 cd        1 SW3     -0.293300
      6 N3          0.9760   -0.4660   -0.3520 na        1 SW3      0.089400
      7 C4         -1.0030    0.3140    0.0930 cd        1 SW3      0.262600
      8 C5         -2.4880    0.4230    0.2290 c3        1 SW3      0.132500
      9 C6          2.0260   -1.3830   -0.7150 c3        1 SW3      0.040600
     10 H1          3.1910    0.8240    0.9430 hc        1 SW3      0.052367
     11 H1A         3.0130    1.5940   -0.6910 hc        1 SW3      0.052367
     12 H1B         2.4070    2.4570    0.7880 hc        1 SW3      0.052367
     13 HN1        -3.1480   -0.9330   -1.1230 hn        1 SW3      0.352800
     14 HN1A       -3.0500   -1.5160    0.3920 hn        1 SW3      0.352800
     15 H3         -0.3080    2.3400    0.8410 ha        1 SW3      0.164000
     16 H5         -2.8200    1.3080   -0.3880 h1        1 SW3      0.061700
     17 H5A        -2.7110    0.6550    1.3120 h1        1 SW3      0.061700
     18 H6          2.4030   -1.9130    0.2020 h1        1 SW3      0.056700
     19 H6A         1.6500   -2.1440   -1.4490 h1        1 SW3      0.056700
     20 H6B         2.8670   -0.8000   -1.1760 h1        1 SW3      0.056700
@<TRIPOS>BOND
     1    1    3 1   
     2    1   10 1   
     3    1   11 1   
     4    1   12 1   
     5    2    8 1   
     6    2   13 1   
     7    2   14 1   
     8    3    5 2   
     9    3    6 1   
    10    4    6 1   
    11    4    7 2   
    12    5    7 1   
    13    5   15 1   
    14    6    9 1   
    15    7    8 1   
    16    8   16 1   
    17    8   17 1   
    18    9   18 1   
    19    9   19 1   
    20    9   20 1   
@<TRIPOS>SUBSTRUCTURE
     1 SW3         1 TEMP              0 ****  ****    0 ROOT
