@<TRIPOS>MOLECULE
SW3
   21    21     1     0     0
SMALL
bcc


@<TRIPOS>ATOM
      1 C1         -0.0590    0.2800   -0.0600 c3        1 SW3     -0.050800
      2 N1          5.6150   -1.2690    1.3620 nz        1 SW3     -0.840600
      3 C2          1.3910    0.0870    0.0990 cc        1 SW3     -0.067600
      4 N2          3.5390   -0.2900   -0.5390 nc        1 SW3     -0.514800
      5 C3          2.1680    0.1250    1.2730 cd        1 SW3     -0.248300
      6 N3          2.2860   -0.1730   -0.9620 na        1 SW3      0.140400
      7 C4          3.5140   -0.1120    0.8250 cd        1 SW3      0.180600
      8 C5          4.7240   -0.1020    1.6720 c3        1 SW3      0.117500
      9 C6          1.8790   -0.3210   -2.3460 c3        1 SW3      0.020600
     10 H1         -0.2720    1.2080   -0.6510 hc        1 SW3      0.073367
     11 H1A        -0.5250   -0.5900   -0.5890 hc        1 SW3      0.073367
     12 H1B        -0.5330    0.3840    0.9480 hc        1 SW3      0.073367
     13 HN1         6.4130   -1.2850    2.0020 hn        1 SW3      0.462467
     14 HN1A        5.9570   -1.1980    0.3970 hn        1 SW3      0.462467
     15 H3          1.8270    0.3090    2.2860 ha        1 SW3      0.184000
     16 H5          5.3290    0.8380    1.5000 hx        1 SW3      0.115700
     17 H5A         4.4300   -0.1610    2.7610 hx        1 SW3      0.115700
     18 H6          2.7430   -0.1350   -3.0370 h1        1 SW3      0.080367
     19 H6A         1.4880   -1.3620   -2.5050 h1        1 SW3      0.080367
     20 H6B         1.0640    0.4240   -2.5520 h1        1 SW3      0.080367
     21 H13         5.0870   -2.1430    1.4520 hn        1 SW3      0.462467
@<TRIPOS>BOND
     1    1    3 1   
     2    1   10 1   
     3    1   11 1   
     4    1   12 1   
     5    2    8 1   
     6    2   13 1   
     7    2   14 1   
     8    2   21 1   
     9    3    5 2   
    10    3    6 1   
    11    4    6 1   
    12    4    7 2   
    13    5    7 1   
    14    5   15 1   
    15    6    9 1   
    16    7    8 1   
    17    8   16 1   
    18    8   17 1   
    19    9   18 1   
    20    9   19 1   
    21    9   20 1   
@<TRIPOS>SUBSTRUCTURE
     1 SW3         1 TEMP              0 ****  ****    0 ROOT
