@<TRIPOS>MOLECULE
SW4
   38    40     1     0     0
SMALL
bcc


@<TRIPOS>ATOM
      1 O01         0.0070    0.4090    0.0450 oh        1 SW4     -0.602800
      2 C02         1.4150    0.5870    0.0480 c3        1 SW4      0.134400
      3 C03         1.9530   -0.1730    1.2500 c3        1 SW4     -0.059400
      4 C04         3.4360   -0.0220    1.3530 cx        1 SW4     -0.111700
      5 C05         4.0320    1.0280    2.2470 cx        1 SW4     -0.119400
      6 C06         4.1150   -0.4240    2.6470 cx        1 SW4     -0.080400
      7 C07         5.3940   -1.1390    2.6260 ca        1 SW4     -0.125600
      8 C08         6.3960   -0.8550    1.6670 ca        1 SW4      0.355200
      9 N09         7.5790   -1.4870    1.6120 nb        1 SW4     -0.633000
     10 C10         7.8270   -2.4470    2.5220 ca        1 SW4      0.318200
     11 C11         6.8920   -2.8040    3.5180 ca        1 SW4      0.020800
     12 O12         7.0940   -3.7610    4.4870 os        1 SW4     -0.325900
     13 C13         8.3010   -4.5280    4.3570 c3        1 SW4      0.139400
     14 C14         8.2430   -5.5690    5.4660 cy        1 SW4      0.136500
     15 C15         9.6160   -6.2130    5.8110 cy        1 SW4     -0.115400
     16 C16         8.9690   -7.5770    5.4680 cy        1 SW4      0.128800
     17 N17         7.7230   -6.8990    5.0500 n7        1 SW4     -0.788200
     18 C18         5.6530   -2.1380    3.5690 ca        1 SW4     -0.122000
     19 H01        -0.3280    0.8820   -0.7250 ho        1 SW4      0.400000
     20 H021        1.6630    1.6790    0.1270 h1        1 SW4      0.022700
     21 H022        1.8550    0.1830   -0.9040 h1        1 SW4      0.022700
     22 H031        1.4470    0.2020    2.1790 hc        1 SW4      0.060200
     23 H032        1.6910   -1.2600    1.1460 hc        1 SW4      0.060200
     24 H04         3.9610   -0.2530    0.4040 hc        1 SW4      0.084700
     25 H051        3.3600    1.6900    2.8210 hc        1 SW4      0.076200
     26 H052        4.9500    1.5480    1.9230 hc        1 SW4      0.076200
     27 H06         3.4530   -0.7560    3.4770 hc        1 SW4      0.088700
     28 H08         6.2350   -0.0740    0.9020 h4        1 SW4      0.021100
     29 H18         4.9170   -2.4090    4.3400 ha        1 SW4      0.154000
     30 H10         8.8090   -2.9420    2.4410 h4        1 SW4      0.025100
     31 H131        9.1830   -3.8530    4.5210 h1        1 SW4      0.053700
     32 H132        8.3520   -4.9890    3.3370 h1        1 SW4      0.053700
     33 H14         7.7210   -5.1260    6.3550 h1        1 SW4      0.067700
     34 H151       10.4480   -5.9140    5.1410 hc        1 SW4      0.059200
     35 H152        9.9220   -6.0930    6.8710 hc        1 SW4      0.059200
     36 H17         6.9160   -7.1810    5.5660 hn        1 SW4      0.356800
     37 H161        8.8780   -8.2710    6.3370 h1        1 SW4      0.054200
     38 H162        9.4340   -8.1150    4.6080 h1        1 SW4      0.054200
@<TRIPOS>BOND
     1    1    2 1   
     2    1   19 1   
     3    2    3 1   
     4    2   20 1   
     5    2   21 1   
     6    3    4 1   
     7    3   22 1   
     8    3   23 1   
     9    4    5 1   
    10    4    6 1   
    11    4   24 1   
    12    5    6 1   
    13    5   25 1   
    14    5   26 1   
    15    6    7 1   
    16    6   27 1   
    17    7    8 ar  
    18    7   18 ar  
    19    8    9 ar  
    20    8   28 1   
    21    9   10 ar  
    22   10   11 ar  
    23   10   30 1   
    24   11   12 1   
    25   11   18 ar  
    26   12   13 1   
    27   13   14 1   
    28   13   31 1   
    29   13   32 1   
    30   14   15 1   
    31   14   17 1   
    32   14   33 1   
    33   15   16 1   
    34   15   34 1   
    35   15   35 1   
    36   16   17 1   
    37   16   37 1   
    38   16   38 1   
    39   17   36 1   
    40   18   29 1   
@<TRIPOS>SUBSTRUCTURE
     1 SW4         1 TEMP              0 ****  ****    0 ROOT
