@<TRIPOS>MOLECULE
SW4
   38    40     1     0     0
SMALL
bcc


@<TRIPOS>ATOM
      1 O01         0.0160    0.4010    0.0200 oh        1 SW4     -0.602800
      2 C02         1.4240    0.5820    0.0300 c3        1 SW4      0.134400
      3 C03         1.9570   -0.1780    1.2350 c3        1 SW4     -0.059400
      4 C04         3.4380   -0.0250    1.3450 cx        1 SW4     -0.111700
      5 C05         4.0280    1.0250    2.2440 cx        1 SW4     -0.119400
      6 C06         4.1120   -0.4280    2.6420 cx        1 SW4     -0.080400
      7 C07         5.3930   -1.1400    2.6260 ca        1 SW4     -0.125600
      8 C08         6.3990   -0.8520    1.6720 ca        1 SW4      0.355200
      9 N09         7.5830   -1.4820    1.6220 nb        1 SW4     -0.633000
     10 C10         7.8290   -2.4420    2.5320 ca        1 SW4      0.318200
     11 C11         6.8900   -2.8020    3.5240 ca        1 SW4      0.020800
     12 O12         7.0900   -3.7600    4.4920 os        1 SW4     -0.324900
     13 C13         8.2990   -4.5240    4.3670 c3        1 SW4      0.139400
     14 C14         8.2380   -5.5670    5.4750 cy        1 SW4      0.136500
     15 C15         9.6100   -6.2080    5.8250 cy        1 SW4     -0.115400
     16 C16         8.9680   -7.5730    5.4770 cy        1 SW4      0.128800
     17 N17         7.7220   -6.8980    5.0550 n3        1 SW4     -0.788200
     18 C18         5.6490   -2.1390    3.5700 ca        1 SW4     -0.122000
     19 H01        -0.3160    0.8750   -0.7510 ho        1 SW4      0.400000
     20 H021        1.6680    1.6750    0.1130 h1        1 SW4      0.022700
     21 H022        1.8690    0.1810   -0.9200 h1        1 SW4      0.022700
     22 H031        1.6980   -1.2650    1.1270 hc        1 SW4      0.060200
     23 H032        1.4450    0.1950    2.1610 hc        1 SW4      0.060200
     24 H04         3.9690   -0.2530    0.3980 hc        1 SW4      0.084700
     25 H051        4.9470    1.5480    1.9250 hc        1 SW4      0.076200
     26 H052        3.3520    1.6850    2.8160 hc        1 SW4      0.076200
     27 H06         3.4470   -0.7620    3.4680 hc        1 SW4      0.088700
     28 H08         6.2400   -0.0710    0.9080 h4        1 SW4      0.021100
     29 H18         4.9100   -2.4120    4.3360 ha        1 SW4      0.154000
     30 H10         8.8120   -2.9350    2.4550 h4        1 SW4      0.025100
     31 H131        8.3560   -4.9840    3.3470 h1        1 SW4      0.053700
     32 H132        9.1790   -3.8480    4.5360 h1        1 SW4      0.053700
     33 H14         7.7100   -5.1260    6.3610 h1        1 SW4      0.067700
     34 H151       10.4450   -5.9070    5.1590 hc        1 SW4      0.059200
     35 H152        9.9110   -6.0890    6.8860 hc        1 SW4      0.059200
     36 H17         6.9130   -7.1820    5.5660 hn        1 SW4      0.356800
     37 H161        8.8740   -8.2690    6.3450 h1        1 SW4      0.054200
     38 H162        9.4380   -8.1090    4.6190 h1        1 SW4      0.054200
@<TRIPOS>BOND
     1    1    2 1   
     2    1   19 1   
     3    2    3 1   
     4    2   20 1   
     5    2   21 1   
     6    3    4 1   
     7    3   22 1   
     8    3   23 1   
     9    4    5 1   
    10    4    6 1   
    11    4   24 1   
    12    5    6 1   
    13    5   25 1   
    14    5   26 1   
    15    6    7 1   
    16    6   27 1   
    17    7    8 ar  
    18    7   18 ar  
    19    8    9 ar  
    20    8   28 1   
    21    9   10 ar  
    22   10   11 ar  
    23   10   30 1   
    24   11   12 1   
    25   11   18 ar  
    26   12   13 1   
    27   13   14 1   
    28   13   31 1   
    29   13   32 1   
    30   14   15 1   
    31   14   17 1   
    32   14   33 1   
    33   15   16 1   
    34   15   34 1   
    35   15   35 1   
    36   16   17 1   
    37   16   37 1   
    38   16   38 1   
    39   17   36 1   
    40   18   29 1   
@<TRIPOS>SUBSTRUCTURE
     1 SW4         1 TEMP              0 ****  ****    0 ROOT
