@<TRIPOS>MOLECULE
SW4
   38    40     1     0     0
SMALL
bcc


@<TRIPOS>ATOM
      1 O01         0.0150    0.3980    0.0180 oh        1 SW4     -0.602800
      2 C02         1.4220    0.5850    0.0350 c3        1 SW4      0.134400
      3 C03         1.9540   -0.1820    1.2360 c3        1 SW4     -0.059400
      4 C04         3.4340   -0.0230    1.3530 cx        1 SW4     -0.111700
      5 C05         4.0150    1.0230    2.2620 cx        1 SW4     -0.119400
      6 C06         4.1050   -0.4320    2.6510 cx        1 SW4     -0.080400
      7 C07         5.3880   -1.1390    2.6340 ca        1 SW4     -0.125600
      8 C08         6.3970   -0.8390    1.6870 ca        1 SW4      0.355200
      9 N09         7.5850   -1.4630    1.6370 nb        1 SW4     -0.633000
     10 C10         7.8300   -2.4300    2.5410 ca        1 SW4      0.318200
     11 C11         6.8890   -2.8010    3.5260 ca        1 SW4      0.020800
     12 O12         7.0890   -3.7660    4.4870 os        1 SW4     -0.325900
     13 C13         8.3020   -4.5230    4.3630 c3        1 SW4      0.139400
     14 C14         8.2410   -5.5740    5.4630 cy        1 SW4      0.136500
     15 C15         9.6150   -6.2100    5.8160 cy        1 SW4     -0.115400
     16 C16         8.9820   -7.5760    5.4550 cy        1 SW4      0.128800
     17 N17         7.7350   -6.9040    5.0310 n3        1 SW4     -0.788200
     18 C18         5.6450   -2.1440    3.5710 ca        1 SW4     -0.122000
     19 H01        -0.3160    0.8760   -0.7510 ho        1 SW4      0.400000
     20 H021        1.6620    1.6780    0.1270 h1        1 SW4      0.022700
     21 H022        1.8730    0.1930   -0.9160 h1        1 SW4      0.022700
     22 H031        1.7000   -1.2690    1.1190 hc        1 SW4      0.060200
     23 H032        1.4370    0.1820    2.1630 hc        1 SW4      0.060200
     24 H04         3.9700   -0.2420    0.4070 hc        1 SW4      0.084700
     25 H051        4.9330    1.5520    1.9510 hc        1 SW4      0.076200
     26 H052        3.3340    1.6760    2.8360 hc        1 SW4      0.076200
     27 H06         3.4380   -0.7750    3.4710 hc        1 SW4      0.088700
     28 H08         6.2380   -0.0530    0.9280 h4        1 SW4      0.021100
     29 H18         4.9040   -2.4260    4.3320 ha        1 SW4      0.154000
     30 H10         8.8160   -2.9180    2.4650 h4        1 SW4      0.025100
     31 H131        9.1780   -3.8430    4.5410 h1        1 SW4      0.053700
     32 H132        8.3660   -4.9750    3.3400 h1        1 SW4      0.053700
     33 H14         7.7070   -5.1420    6.3500 h1        1 SW4      0.067700
     34 H151        9.9100   -6.0970    6.8790 hc        1 SW4      0.059200
     35 H152       10.4520   -5.9000    5.1560 hc        1 SW4      0.059200
     36 H17         6.9250   -7.1970    5.5360 hn        1 SW4      0.356800
     37 H161        8.8870   -8.2780    6.3170 h1        1 SW4      0.054200
     38 H162        9.4600   -8.1030    4.5950 h1        1 SW4      0.054200
@<TRIPOS>BOND
     1    1    2 1   
     2    1   19 1   
     3    2    3 1   
     4    2   20 1   
     5    2   21 1   
     6    3    4 1   
     7    3   22 1   
     8    3   23 1   
     9    4    5 1   
    10    4    6 1   
    11    4   24 1   
    12    5    6 1   
    13    5   25 1   
    14    5   26 1   
    15    6    7 1   
    16    6   27 1   
    17    7    8 ar  
    18    7   18 ar  
    19    8    9 ar  
    20    8   28 1   
    21    9   10 ar  
    22   10   11 ar  
    23   10   30 1   
    24   11   12 1   
    25   11   18 ar  
    26   12   13 1   
    27   13   14 1   
    28   13   31 1   
    29   13   32 1   
    30   14   15 1   
    31   14   17 1   
    32   14   33 1   
    33   15   16 1   
    34   15   34 1   
    35   15   35 1   
    36   16   17 1   
    37   16   37 1   
    38   16   38 1   
    39   17   36 1   
    40   18   29 1   
@<TRIPOS>SUBSTRUCTURE
     1 SW4         1 TEMP              0 ****  ****    0 ROOT
