@<TRIPOS>MOLECULE
SW4
   38    38     1     0     0
SMALL
bcc


@<TRIPOS>ATOM
      1 O01        -4.4750   -5.0750    1.3550 oh        1 SW4     -0.329000
      2 C02        -3.3970   -4.2110    1.0460 c3        1 SW4     -0.020000
      3 C03        -3.9440   -2.8600    0.5780 c3        1 SW4     -0.137000
      4 C04        -2.8030   -1.8270    0.5450 cx        1 SW4     -0.145000
      5 C05        -2.0250   -1.6620    1.8410 cx        1 SW4     -0.201000
      6 C06        -1.3960   -2.3920    0.6650 cx        1 SW4     -0.128000
      7 C07        -0.3000   -1.6210   -0.0920 c2        1 SW4     -0.059000
      8 C08         0.3750   -2.2290   -1.1460 c1        1 SW4     -0.103000
      9 N09         1.4160   -1.5840   -1.7560 n1        1 SW4     -0.110000
     10 C10         1.7940   -0.3400   -1.3320 c1        1 SW4     -0.138000
     11 C11         1.1210    0.2710   -0.2780 c1        1 SW4      0.033000
     12 O12         1.5910    1.5080    0.2410 os        1 SW4     -0.213000
     13 C13         1.9000    2.4710   -0.7580 c3        1 SW4     -0.010000
     14 C14         2.5150    3.6360   -0.1350 cy        1 SW4     -0.090000
     15 C15         2.3380    4.8430   -0.9090 cy        1 SW4     -0.194000
     16 C16         3.7790    4.9170   -1.1320 cy        1 SW4     -0.107000
     17 N17         3.9700    3.6980   -0.3530 n3        1 SW4     -0.276000
     18 C18         0.0790   -0.3750    0.3350 c2        1 SW4     -0.130000
     19 H01        -4.2010   -5.9210    1.3030 ho        1 SW4      0.199000
     20 H021       -2.8530   -4.6090    0.3310 h1        1 SW4      0.061000
     21 H022       -2.8430   -4.0810    1.8450 h1        1 SW4      0.061000
     22 H031       -4.3260   -2.9560   -0.3230 hc        1 SW4      0.101500
     23 H032       -4.6430   -2.5570    1.2000 hc        1 SW4      0.101500
     24 H04        -2.8920   -1.0180   -0.0050 hc        1 SW4      0.124000
     25 H051       -2.3160   -2.2280    2.5880 hc        1 SW4      0.114500
     26 H052       -1.6790   -0.7610    2.0170 hc        1 SW4      0.114500
     27 H06        -1.3350   -3.3670    0.7530 hc        1 SW4      0.124000
     28 H08         0.1050   -3.1210   -1.4510 ha        1 SW4      0.158000
     29 H18        -0.3960    0.0550    1.0770 ha        1 SW4      0.151000
     30 H10         2.5400    0.1210   -1.7700 ha        1 SW4      0.184000
     31 H131        1.0750    2.7430   -1.2180 h1        1 SW4      0.108500
     32 H132        2.5240    2.0800   -1.4080 h1        1 SW4      0.108500
     33 H14         2.2690    3.7520    0.8100 h1        1 SW4      0.106000
     34 H151        1.8330    4.6920   -1.7380 hc        1 SW4      0.098000
     35 H152        1.9980    5.5930   -0.3710 hc        1 SW4      0.098000
     36 H17         4.3900    3.9020    0.4370 hn        1 SW4      0.153000
     37 H161        4.0220    4.8060   -2.0780 h1        1 SW4      0.094000
     38 H162        4.1880    5.7050   -0.7110 h1        1 SW4      0.094000
@<TRIPOS>BOND
     1    1    2 1   
     2    1   19 1   
     3    2    3 1   
     4    2   20 1   
     5    2   21 1   
     6    3    4 1   
     7    3   22 1   
     8    3   23 1   
     9    4    5 1   
    10    4    6 1   
    11    4   24 1   
    12    5    6 1   
    13    5   25 1   
    14    5   26 1   
    15    6    7 1   
    16    6   27 1   
    17    7    8 1   
    18    7   18 1   
    19    8   28 1   
    20    9   10 1   
    21   10   30 1   
    22   11   12 1   
    23   11   18 1   
    24   12   13 1   
    25   13   14 1   
    26   13   31 1   
    27   13   32 1   
    28   14   15 1   
    29   14   17 1   
    30   14   33 1   
    31   15   16 1   
    32   15   34 1   
    33   15   35 1   
    34   16   17 1   
    35   16   37 1   
    36   16   38 1   
    37   17   36 1   
    38   18   29 1   
@<TRIPOS>SUBSTRUCTURE
     1 SW4         1 TEMP              0 ****  ****    0 ROOT
