@<TRIPOS>MOLECULE
SW4
   38    40     1     0     0
SMALL
bcc


@<TRIPOS>ATOM
      1 O01         6.7670   -2.0140    0.2440 oh        1 SW4     -0.602800
      2 C02         5.9650   -0.8910    0.5760 c3        1 SW4      0.134400
      3 C03         4.6350   -1.0710   -0.1400 c3        1 SW4     -0.059400
      4 C04         3.7270    0.0830    0.1300 cx        1 SW4     -0.111700
      5 C05         3.6440    1.2260   -0.8410 cx        1 SW4     -0.119400
      6 C06         2.4970    0.2530   -0.7410 cx        1 SW4     -0.080400
      7 C07         1.2170    0.6550   -0.1500 ca        1 SW4     -0.125600
      8 C08         1.1420    1.5860    0.9140 ca        1 SW4      0.355200
      9 N09        -0.0080    1.9790    1.4830 nb        1 SW4     -0.633000
     10 C10        -1.1570    1.4580    1.0140 ca        1 SW4      0.318200
     11 C11        -1.1870    0.5230   -0.0440 ca        1 SW4      0.020800
     12 O12        -2.3290   -0.0290   -0.5790 os        1 SW4     -0.325900
     13 C13        -3.5510    0.2890    0.1050 c3        1 SW4      0.139400
     14 C14        -4.6340   -0.5100   -0.6050 cy        1 SW4      0.136500
     15 C15        -6.0790    0.0030   -0.3470 cy        1 SW4     -0.115400
     16 C16        -6.3940   -1.4090    0.2040 cy        1 SW4      0.128800
     17 N17        -4.9790   -1.8070    0.0360 n3        1 SW4     -0.788200
     18 C18         0.0230    0.1140   -0.6350 ca        1 SW4     -0.122000
     19 H01         7.6030   -1.9010    0.7090 ho        1 SW4      0.400000
     20 H021        5.8120   -0.8430    1.6880 h1        1 SW4      0.022700
     21 H022        6.4710    0.0530    0.2380 h1        1 SW4      0.022700
     22 H031        4.8230   -1.1850   -1.2400 hc        1 SW4      0.060200
     23 H032        4.1540   -2.0210    0.2140 hc        1 SW4      0.060200
     24 H04         3.6280    0.3120    1.2100 hc        1 SW4      0.084700
     25 H051        3.5140    2.2520   -0.4510 hc        1 SW4      0.076200
     26 H052        4.2690    1.2060   -1.7520 hc        1 SW4      0.076200
     27 H06         2.3740   -0.4680   -1.5780 hc        1 SW4      0.088700
     28 H08         2.0600    2.0390    1.3280 h4        1 SW4      0.021100
     29 H18         0.0110   -0.6140   -1.4570 ha        1 SW4      0.154000
     30 H10        -2.0780    1.8060    1.5100 h4        1 SW4      0.025100
     31 H131       -3.4610    0.0210    1.1900 h1        1 SW4      0.053700
     32 H132       -3.7580    1.3860   -0.0070 h1        1 SW4      0.053700
     33 H14        -4.3760   -0.5870   -1.6940 h1        1 SW4      0.067700
     34 H151       -6.1540    0.8180    0.4030 hc        1 SW4      0.059200
     35 H152       -6.6350    0.2820   -1.2650 hc        1 SW4      0.059200
     36 H17        -4.8470   -2.5890   -0.5700 hn        1 SW4      0.356800
     37 H161       -6.6880   -1.4400    1.2800 h1        1 SW4      0.054200
     38 H162       -7.1350   -1.9820   -0.4020 h1        1 SW4      0.054200
@<TRIPOS>BOND
     1    1    2 1   
     2    1   19 1   
     3    2    3 1   
     4    2   20 1   
     5    2   21 1   
     6    3    4 1   
     7    3   22 1   
     8    3   23 1   
     9    4    5 1   
    10    4    6 1   
    11    4   24 1   
    12    5    6 1   
    13    5   25 1   
    14    5   26 1   
    15    6    7 1   
    16    6   27 1   
    17    7    8 ar  
    18    7   18 ar  
    19    8    9 ar  
    20    8   28 1   
    21    9   10 ar  
    22   10   11 ar  
    23   10   30 1   
    24   11   12 1   
    25   11   18 ar  
    26   12   13 1   
    27   13   14 1   
    28   13   31 1   
    29   13   32 1   
    30   14   15 1   
    31   14   17 1   
    32   14   33 1   
    33   15   16 1   
    34   15   34 1   
    35   15   35 1   
    36   16   17 1   
    37   16   37 1   
    38   16   38 1   
    39   17   36 1   
    40   18   29 1   
@<TRIPOS>SUBSTRUCTURE
     1 SW4         1 TEMP              0 ****  ****    0 ROOT
