@<TRIPOS>MOLECULE
SWA
   27    28     1     0     0
SMALL
bcc


@<TRIPOS>ATOM
      1 C1         -0.0450   -0.0340    0.1840 c3        1 SWA      0.166100
      2 O1         -0.7380   -0.1490   -1.0480 oh        1 SWA     -0.604800
      3 C3          1.4740    0.0220   -0.0650 c3        1 SWA      0.142500
      4 N4          2.1680    0.1880    1.2200 n3        1 SWA     -0.752600
      5 C5          1.8720    1.4570    1.8400 c3        1 SWA      0.188800
      6 C6          0.3590    1.6040    2.0610 c3        1 SWA     -0.076400
      7 C2         -0.4640    1.2910    0.8270 c3        1 SWA     -0.078400
      8 C9          3.5460   -0.2270    1.0320 c3        1 SWA      0.144800
      9 C8          3.4970   -1.3680   -0.0220 c3        1 SWA      0.106100
     10 O13         3.5990   -2.6420    0.5710 oh        1 SWA     -0.597800
     11 C7          2.1260   -1.2070   -0.7430 c3        1 SWA      0.103100
     12 O11         1.2930   -2.3340   -0.5580 oh        1 SWA     -0.603800
     13 HC1        -0.3000   -0.9050    0.8480 h1        1 SWA      0.061700
     14 HO1        -0.5200   -1.0250   -1.3950 ho        1 SWA      0.415000
     15 HC3         1.6650    0.9030   -0.7540 h1        1 SWA      0.040700
     16 HC51        2.2400    2.3300    1.2240 h1        1 SWA      0.032200
     17 HC52        2.3990    1.4920    2.8330 h1        1 SWA      0.032200
     18 HC61        0.0460    0.9220    2.8950 hc        1 SWA      0.048700
     19 HC62        0.1560    2.6570    2.3850 hc        1 SWA      0.048700
     20 HC21       -0.3490    2.1090    0.0690 hc        1 SWA      0.053700
     21 HC22       -1.5490    1.2360    1.0980 hc        1 SWA      0.053700
     22 HC91        3.9470   -0.6060    2.0100 h1        1 SWA      0.049200
     23 HC92        4.2160    0.5990    0.6670 h1        1 SWA      0.049200
     24 HC8         4.3580   -1.3080   -0.7350 h1        1 SWA      0.085700
     25 H13O        2.9080   -2.7020    1.2460 ho        1 SWA      0.422000
     26 HC7         2.2650   -1.0260   -1.8410 h1        1 SWA      0.050700
     27 H11O        1.8250   -3.1140   -0.7700 ho        1 SWA      0.420000
@<TRIPOS>BOND
     1    1    2 1   
     2    1    3 1   
     3    1    7 1   
     4    1   13 1   
     5    2   14 1   
     6    3    4 1   
     7    3   11 1   
     8    3   15 1   
     9    4    5 1   
    10    4    8 1   
    11    5    6 1   
    12    5   16 1   
    13    5   17 1   
    14    6    7 1   
    15    6   18 1   
    16    6   19 1   
    17    7   20 1   
    18    7   21 1   
    19    8    9 1   
    20    8   22 1   
    21    8   23 1   
    22    9   10 1   
    23    9   11 1   
    24    9   24 1   
    25   10   25 1   
    26   11   12 1   
    27   11   26 1   
    28   12   27 1   
@<TRIPOS>SUBSTRUCTURE
     1 SWA         1 TEMP              0 ****  ****    0 ROOT
