@<TRIPOS>MOLECULE
SWA
   27    28     1     0     0
SMALL
bcc


@<TRIPOS>ATOM
      1 C1          0.8310    0.3170    1.4000 c3        1 SWA      0.166100
      2 O1          2.1150   -0.1870    1.7270 oh        1 SWA     -0.604800
      3 C3          0.1930   -0.5370    0.2870 c3        1 SWA      0.142500
      4 N4         -1.1540   -0.0250   -0.0030 n3        1 SWA     -0.752600
      5 C5         -2.0510   -0.1880    1.1160 c3        1 SWA      0.188800
      6 C6         -1.4960    0.5280    2.3560 c3        1 SWA     -0.076400
      7 C2         -0.0460    0.1910    2.6480 c3        1 SWA     -0.078400
      8 C9         -1.5340   -0.5060   -1.3170 c3        1 SWA      0.144800
      9 C8         -0.2130   -0.5750   -2.1340 c3        1 SWA      0.106100
     10 O13        -0.0690    0.5250   -3.0020 oh        1 SWA     -0.597800
     11 C7          0.9280   -0.5880   -1.0730 c3        1 SWA      0.103100
     12 O11         1.7730    0.5390   -1.1870 oh        1 SWA     -0.603800
     13 HC1         0.9140    1.3890    1.0710 h1        1 SWA      0.061700
     14 HO1         2.6700   -0.0230    0.9520 ho        1 SWA      0.415000
     15 HC3         0.1560   -1.6040    0.6690 h1        1 SWA      0.040700
     16 HC51       -2.2280   -1.2750    1.3670 h1        1 SWA      0.032200
     17 HC52       -3.0420    0.2660    0.8370 h1        1 SWA      0.032200
     18 HC61       -2.1280    0.2410    3.2350 hc        1 SWA      0.048700
     19 HC62       -1.5940    1.6360    2.2110 hc        1 SWA      0.048700
     20 HC21        0.0340   -0.8580    3.0380 hc        1 SWA      0.053700
     21 HC22        0.3500    0.8750    3.4420 hc        1 SWA      0.053700
     22 HC91       -2.0210   -1.5200   -1.2990 h1        1 SWA      0.049200
     23 HC92       -2.2490    0.2260   -1.7790 h1        1 SWA      0.049200
     24 HC8        -0.1840   -1.4770   -2.7970 h1        1 SWA      0.085700
     25 H13O       -0.1600    1.3280   -2.4690 ho        1 SWA      0.422000
     26 HC7         1.5440   -1.5220   -1.1550 h1        1 SWA      0.050700
     27 H11O        2.0240    0.6090   -2.1190 ho        1 SWA      0.420000
@<TRIPOS>BOND
     1    1    2 1   
     2    1    3 1   
     3    1    7 1   
     4    1   13 1   
     5    2   14 1   
     6    3    4 1   
     7    3   11 1   
     8    3   15 1   
     9    4    5 1   
    10    4    8 1   
    11    5    6 1   
    12    5   16 1   
    13    5   17 1   
    14    6    7 1   
    15    6   18 1   
    16    6   19 1   
    17    7   20 1   
    18    7   21 1   
    19    8    9 1   
    20    8   22 1   
    21    8   23 1   
    22    9   10 1   
    23    9   11 1   
    24    9   24 1   
    25   10   25 1   
    26   11   12 1   
    27   11   26 1   
    28   12   27 1   
@<TRIPOS>SUBSTRUCTURE
     1 SWA         1 TEMP              0 ****  ****    0 ROOT
