@<TRIPOS>MOLECULE
SWA
   27    28     1     0     0
SMALL
bcc


@<TRIPOS>ATOM
      1 C1         -0.0450   -0.0230    0.0840 c3        1 SWA      0.160100
      2 O1         -0.6650   -0.0620   -1.1900 oh        1 SWA     -0.597800
      3 C3          1.4860   -0.0000   -0.0690 c3        1 SWA      0.092500
      4 N4          2.1180    0.0960    1.2560 n3        1 SWA     -0.748600
      5 C5          1.7980    1.3400    1.9200 c3        1 SWA      0.181800
      6 C6          0.2780    1.5030    2.0630 c3        1 SWA     -0.078400
      7 C2         -0.4720    1.2790    0.7650 c3        1 SWA     -0.076400
      8 C9          3.5140   -0.2810    1.0970 c3        1 SWA      0.131800
      9 C8          3.5870   -1.2140   -0.1480 c3        1 SWA      0.106100
     10 O13         4.0860   -2.4860    0.1800 oh        1 SWA     -0.578800
     11 C7          2.1450   -1.2320   -0.7340 c3        1 SWA      0.107100
     12 O11         1.4710   -2.4380   -0.4500 oh        1 SWA     -0.593800
     13 HC1        -0.3700   -0.9130    0.6910 h1        1 SWA      0.045700
     14 HO1        -0.4130   -0.9070   -1.5860 ho        1 SWA      0.411000
     15 HC3         1.7370    0.8940   -0.7190 h1        1 SWA      0.049700
     16 HC51        2.2670    1.3160    2.9420 h1        1 SWA      0.035200
     17 HC52        2.2130    2.2350    1.3710 h1        1 SWA      0.035200
     18 HC61        0.0730    2.5400    2.4350 hc        1 SWA      0.049700
     19 HC62       -0.0960    0.7820    2.8370 hc        1 SWA      0.049700
     20 HC21       -0.2870    2.1300    0.0590 hc        1 SWA      0.056700
     21 HC22       -1.5740    1.2410    0.9640 hc        1 SWA      0.056700
     22 HC91        3.8410   -0.8310    2.0190 h1        1 SWA      0.051700
     23 HC92        4.1940    0.6020    0.9490 h1        1 SWA      0.051700
     24 HC8         4.3150   -0.8090   -0.9010 h1        1 SWA      0.085700
     25 H13O        3.3780   -2.9870    0.6050 ho        1 SWA      0.409000
     26 HC7         2.1460   -1.1610   -1.8520 h1        1 SWA      0.093700
     27 H11O        1.2720   -2.4500    0.4960 ho        1 SWA      0.412000
@<TRIPOS>BOND
     1    1    2 1   
     2    1    3 1   
     3    1    7 1   
     4    1   13 1   
     5    2   14 1   
     6    3    4 1   
     7    3   11 1   
     8    3   15 1   
     9    4    5 1   
    10    4    8 1   
    11    5    6 1   
    12    5   16 1   
    13    5   17 1   
    14    6    7 1   
    15    6   18 1   
    16    6   19 1   
    17    7   20 1   
    18    7   21 1   
    19    8    9 1   
    20    8   22 1   
    21    8   23 1   
    22    9   10 1   
    23    9   11 1   
    24    9   24 1   
    25   10   25 1   
    26   11   12 1   
    27   11   26 1   
    28   12   27 1   
@<TRIPOS>SUBSTRUCTURE
     1 SWA         1 TEMP              0 ****  ****    0 ROOT
