@<TRIPOS>MOLECULE
SWE
   45    46     1     0     0
SMALL
bcc


@<TRIPOS>ATOM
      1 C1          0.0680    0.0490    0.0260 c3        1 SWE      0.307900
      2 O1         -0.5520   -1.0190    0.7210 os        1 SWE     -0.472600
      3 C2          1.5900   -0.1710    0.1530 c3        1 SWE      0.097100
      4 O2          1.9660   -1.4570   -0.2880 oh        1 SWE     -0.591800
      5 C3          2.0600    0.0490    1.5980 c3        1 SWE      0.074100
      6 O3          3.4750    0.1170    1.6670 oh        1 SWE     -0.607800
      7 C4          1.5280    1.3870    2.1380 c3        1 SWE      0.128100
      8 O4          1.8400    1.5330    3.5120 oh        1 SWE     -0.598800
      9 C5         -0.0020    1.3890    2.0120 c3        1 SWE      0.097100
     10 O5         -0.3660    1.2430    0.6340 os        1 SWE     -0.430600
     11 C6         -0.6210    2.7100    2.4770 c3        1 SWE      0.137400
     12 O6         -2.0110    2.5820    2.6860 oh        1 SWE     -0.605800
     13 C1'        -2.1750   -1.5250   -1.0910 c3        1 SWE      0.126400
     14 O1'        -1.0330   -2.0000   -1.7670 oh        1 SWE     -0.595800
     15 C2'        -1.9070   -1.3270    0.4060 c3        1 SWE      0.318600
     16 O2'        -2.0040   -2.5960    1.0510 os        1 SWE     -0.417600
     17 C3'        -2.8870   -0.3550    1.1190 c3        1 SWE      0.098100
     18 O3'        -4.0370   -0.2060    0.3120 oh        1 SWE     -0.591800
     19 C4'        -3.2480   -1.0730    2.4420 c3        1 SWE      0.091100
     20 O4'        -2.7480   -0.2690    3.4970 oh        1 SWE     -0.602800
     21 C5'        -2.5410   -2.4400    2.3770 c3        1 SWE      0.067100
     22 C6'        -3.4980   -3.6090    2.6120 c3        1 SWE      0.129400
     23 O6'        -2.7980   -4.8300    2.7040 oh        1 SWE     -0.592800
     24 H1         -0.2550    0.1190   -1.0500 h2        1 SWE      0.115700
     25 H2          2.1200    0.5430   -0.5390 h1        1 SWE      0.101700
     26 HO2         1.3670   -2.0950    0.1260 ho        1 SWE      0.421000
     27 H3          1.6950   -0.7960    2.2470 h1        1 SWE      0.063700
     28 HO3         3.8130   -0.6400    1.1710 ho        1 SWE      0.424000
     29 H4          1.9760    2.2380    1.5540 h1        1 SWE      0.060700
     30 HO4         2.7940    1.3930    3.5910 ho        1 SWE      0.426000
     31 H5         -0.4340    0.5320    2.6030 h1        1 SWE      0.078700
     32 H6         -0.1030    3.0310    3.4200 h1        1 SWE      0.067700
     33 H6A        -0.5210    3.4980    1.6840 h1        1 SWE      0.067700
     34 HO6        -2.1450    1.8900    3.3490 ho        1 SWE      0.414000
     35 H1'        -3.0370   -2.2350   -1.2080 h1        1 SWE      0.076700
     36 H1'A       -2.4250   -0.5420   -1.5700 h1        1 SWE      0.076700
     37 HO1'       -0.7310   -2.7910   -1.3020 ho        1 SWE      0.414000
     38 H3'        -2.3940    0.6370    1.3250 h1        1 SWE      0.120700
     39 HO3'       -4.4340    0.6400    0.5530 ho        1 SWE      0.422000
     40 H4'        -4.3610   -1.1900    2.5410 h1        1 SWE      0.066700
     41 HO4'       -2.9130   -0.7460    4.3190 ho        1 SWE      0.414000
     42 H5'        -1.6760   -2.4820    3.0940 h1        1 SWE      0.080700
     43 H6'        -4.0080   -3.4890    3.6050 h1        1 SWE      0.055200
     44 H6'A       -4.2600   -3.6540    1.7900 h1        1 SWE      0.055200
     45 HO6'       -2.3130   -4.9420    1.8770 ho        1 SWE      0.414000
@<TRIPOS>BOND
     1    1    2 1   
     2    1    3 1   
     3    1   10 1   
     4    1   24 1   
     5    2   15 1   
     6    3    4 1   
     7    3    5 1   
     8    3   25 1   
     9    4   26 1   
    10    5    6 1   
    11    5    7 1   
    12    5   27 1   
    13    6   28 1   
    14    7    8 1   
    15    7    9 1   
    16    7   29 1   
    17    8   30 1   
    18    9   10 1   
    19    9   11 1   
    20    9   31 1   
    21   11   12 1   
    22   11   32 1   
    23   11   33 1   
    24   12   34 1   
    25   13   14 1   
    26   13   15 1   
    27   13   35 1   
    28   13   36 1   
    29   14   37 1   
    30   15   16 1   
    31   15   17 1   
    32   16   21 1   
    33   17   18 1   
    34   17   19 1   
    35   17   38 1   
    36   18   39 1   
    37   19   20 1   
    38   19   21 1   
    39   19   40 1   
    40   20   41 1   
    41   21   22 1   
    42   21   42 1   
    43   22   23 1   
    44   22   43 1   
    45   22   44 1   
    46   23   45 1   
@<TRIPOS>SUBSTRUCTURE
     1 SWE         1 TEMP              0 ****  ****    0 ROOT
