@<TRIPOS>MOLECULE
SWE
   45    46     1     0     0
SMALL
bcc


@<TRIPOS>ATOM
      1 C1          0.0630    0.0440    0.0210 c3        1 SWE      0.307900
      2 O1         -0.5490   -1.0220    0.7250 os        1 SWE     -0.472600
      3 C2          1.5870   -0.1650    0.1480 c3        1 SWE      0.097100
      4 O2          1.9710   -1.4530   -0.2820 oh        1 SWE     -0.591800
      5 C3          2.0560    0.0700    1.5920 c3        1 SWE      0.074100
      6 O3          3.4700    0.1480    1.6600 oh        1 SWE     -0.607800
      7 C4          1.5160    1.4090    2.1210 c3        1 SWE      0.128100
      8 O4          1.8280    1.5680    3.4930 oh        1 SWE     -0.598800
      9 C5         -0.0140    1.4010    1.9960 c3        1 SWE      0.097100
     10 O5         -0.3780    1.2400    0.6190 os        1 SWE     -0.430600
     11 C6         -0.6410    2.7210    2.4500 c3        1 SWE      0.137400
     12 O6         -2.0300    2.5860    2.6600 oh        1 SWE     -0.605800
     13 C1'        -2.1700   -1.5540   -1.0810 c3        1 SWE      0.126400
     14 O1'        -1.0250   -2.0270   -1.7540 oh        1 SWE     -0.595800
     15 C2'        -1.9030   -1.3410    0.4140 c3        1 SWE      0.318600
     16 O2'        -1.9910   -2.6050    1.0690 os        1 SWE     -0.417600
     17 C3'        -2.8880   -0.3700    1.1180 c3        1 SWE      0.098100
     18 O3'        -4.0400   -0.2350    0.3110 oh        1 SWE     -0.591800
     19 C4'        -3.2440   -1.0790    2.4480 c3        1 SWE      0.091100
     20 O4'        -2.7490   -0.2630    3.4950 oh        1 SWE     -0.602800
     21 C5'        -2.5290   -2.4420    2.3940 c3        1 SWE      0.067100
     22 C6'        -3.4770   -3.6150    2.6400 c3        1 SWE      0.129400
     23 O6'        -2.7700   -4.8310    2.7420 oh        1 SWE     -0.592800
     24 H1         -0.2610    0.1020   -1.0560 h2        1 SWE      0.115700
     25 H2          2.1120    0.5460   -0.5500 h1        1 SWE      0.101700
     26 HO2         1.3770   -2.0910    0.1380 ho        1 SWE      0.421000
     27 H3          1.6970   -0.7720    2.2480 h1        1 SWE      0.063700
     28 HO3         3.8130   -0.6120    1.1690 ho        1 SWE      0.424000
     29 H4          1.9580    2.2580    1.5300 h1        1 SWE      0.060700
     30 HO4         2.7830    1.4350    3.5720 ho        1 SWE      0.426000
     31 H5         -0.4400    0.5450    2.5940 h1        1 SWE      0.078700
     32 H6         -0.5460    3.5030    1.6500 h1        1 SWE      0.067700
     33 H6A        -0.1250    3.0530    3.3900 h1        1 SWE      0.067700
     34 HO6        -2.1600    1.8990    3.3290 ho        1 SWE      0.414000
     35 H1'        -2.4270   -0.5770   -1.5690 h1        1 SWE      0.076700
     36 H1'A       -3.0270   -2.2700   -1.1920 h1        1 SWE      0.076700
     37 HO1'       -0.7180   -2.8120   -1.2820 ho        1 SWE      0.414000
     38 H3'        -2.4020    0.6270    1.3160 h1        1 SWE      0.120700
     39 HO3'       -4.4420    0.6110    0.5450 ho        1 SWE      0.422000
     40 H4'        -4.3560   -1.2020    2.5490 h1        1 SWE      0.066700
     41 HO4'       -2.9110   -0.7340    4.3220 ho        1 SWE      0.414000
     42 H5'        -1.6630   -2.4720    3.1110 h1        1 SWE      0.080700
     43 H6'        -4.2400   -3.6720    1.8180 h1        1 SWE      0.055200
     44 H6'A       -3.9880   -3.4900    3.6310 h1        1 SWE      0.055200
     45 HO6'       -2.2840   -4.9460    1.9150 ho        1 SWE      0.414000
@<TRIPOS>BOND
     1    1    2 1   
     2    1    3 1   
     3    1   10 1   
     4    1   24 1   
     5    2   15 1   
     6    3    4 1   
     7    3    5 1   
     8    3   25 1   
     9    4   26 1   
    10    5    6 1   
    11    5    7 1   
    12    5   27 1   
    13    6   28 1   
    14    7    8 1   
    15    7    9 1   
    16    7   29 1   
    17    8   30 1   
    18    9   10 1   
    19    9   11 1   
    20    9   31 1   
    21   11   12 1   
    22   11   32 1   
    23   11   33 1   
    24   12   34 1   
    25   13   14 1   
    26   13   15 1   
    27   13   35 1   
    28   13   36 1   
    29   14   37 1   
    30   15   16 1   
    31   15   17 1   
    32   16   21 1   
    33   17   18 1   
    34   17   19 1   
    35   17   38 1   
    36   18   39 1   
    37   19   20 1   
    38   19   21 1   
    39   19   40 1   
    40   20   41 1   
    41   21   22 1   
    42   21   42 1   
    43   22   23 1   
    44   22   43 1   
    45   22   44 1   
    46   23   45 1   
@<TRIPOS>SUBSTRUCTURE
     1 SWE         1 TEMP              0 ****  ****    0 ROOT
