@<TRIPOS>MOLECULE
SWE
   45    46     1     0     0
SMALL
bcc


@<TRIPOS>ATOM
      1 C1          0.9880    0.5930   -0.5630 c3        1 SWE      0.333900
      2 O1          0.5040   -0.6390   -0.0600 os        1 SWE     -0.427600
      3 C2          2.5050    0.5350   -0.6300 c3        1 SWE      0.127100
      4 O2          2.9020   -0.6710   -1.3500 oh        1 SWE     -0.589800
      5 C3          3.1260    0.5140    0.7080 c3        1 SWE      0.065100
      6 O3          4.5720    0.6420    0.5590 oh        1 SWE     -0.608800
      7 C4          2.6320    1.6180    1.5770 c3        1 SWE      0.085100
      8 O4          3.1450    1.4230    2.9130 oh        1 SWE     -0.603800
      9 C5          1.1170    1.6690    1.6360 c3        1 SWE      0.103100
     10 O5          0.5030    1.6820    0.2990 os        1 SWE     -0.428600
     11 C6          0.6960    2.9040    2.3790 c3        1 SWE      0.135400
     12 O6          0.5650    2.6020    3.7550 oh        1 SWE     -0.598800
     13 C1'        -0.1260   -1.2000   -2.3330 c3        1 SWE      0.115400
     14 O1'        -0.7180   -0.1640   -3.0850 oh        1 SWE     -0.591800
     15 C2'        -0.5790   -1.0990   -0.8800 c3        1 SWE      0.313600
     16 O2'        -1.8290   -0.0930   -0.7570 os        1 SWE     -0.444600
     17 C3'        -0.9950   -2.2450   -0.4680 c3        1 SWE      0.140100
     18 O3'        -0.7330   -2.3970    0.9880 oh        1 SWE     -0.560800
     19 C4'        -2.5390   -2.2380   -0.7460 c3        1 SWE      0.077100
     20 O4'        -2.8260   -3.0360   -1.7740 oh        1 SWE     -0.595800
     21 C5'        -2.8900   -0.7870   -1.0860 c3        1 SWE      0.076100
     22 C6'        -4.1360   -0.3170   -0.2450 c3        1 SWE      0.120400
     23 O6'        -4.7280    0.8320   -0.8660 oh        1 SWE     -0.598800
     24 H1          0.6430    0.7230   -1.4510 h2        1 SWE      0.126700
     25 H2          2.8330    1.3250   -1.1240 h1        1 SWE      0.062700
     26 HO2         3.5750   -0.4580   -1.9750 ho        1 SWE      0.422000
     27 H3          2.9260   -0.3370    1.1330 h1        1 SWE      0.087700
     28 HO3         4.9680   -0.0340    0.9560 ho        1 SWE      0.410000
     29 H4          2.9750    2.4900    1.2200 h1        1 SWE      0.060700
     30 HO4         3.8870    1.9320    3.0280 ho        1 SWE      0.411000
     31 H5          0.7880    0.8720    2.1290 h1        1 SWE      0.085700
     32 H6          1.3710    3.6030    2.2610 h1        1 SWE      0.062200
     33 H6A        -0.1990    3.2290    2.0160 h1        1 SWE      0.062200
     34 HO6         0.1810    3.2750    4.1670 ho        1 SWE      0.415000
     35 H1'        -0.3920   -2.0550   -2.6950 h1        1 SWE      0.076200
     36 H1'A        0.8560   -1.1170   -2.3760 h1        1 SWE      0.076200
     37 HO1'       -0.5440   -0.3020   -3.9980 ho        1 SWE      0.416000
     38 H3'        -0.5700   -2.9550   -0.9620 h1        1 SWE      0.074700
     39 HO3'       -0.8110   -3.2710    1.2190 ho        1 SWE      0.408000
     40 H4'        -3.0300   -2.5270    0.0560 h1        1 SWE      0.069700
     41 HO4'       -3.3620   -3.6890   -1.4990 ho        1 SWE      0.412000
     42 H5'        -3.0710   -0.6960   -2.0480 h1        1 SWE      0.083700
     43 H6'        -3.8430   -0.0810    0.6800 h1        1 SWE      0.055200
     44 H6'A       -4.7920   -1.0370   -0.2030 h1        1 SWE      0.055200
     45 HO6'       -5.5440    0.9810   -0.5050 ho        1 SWE      0.427000
@<TRIPOS>BOND
     1    1    2 1   
     2    1    3 1   
     3    1   10 1   
     4    1   24 1   
     5    2   15 1   
     6    3    4 1   
     7    3    5 1   
     8    3   25 1   
     9    4   26 1   
    10    5    6 1   
    11    5    7 1   
    12    5   27 1   
    13    6   28 1   
    14    7    8 1   
    15    7    9 1   
    16    7   29 1   
    17    8   30 1   
    18    9   10 1   
    19    9   11 1   
    20    9   31 1   
    21   11   12 1   
    22   11   32 1   
    23   11   33 1   
    24   12   34 1   
    25   13   14 1   
    26   13   15 1   
    27   13   35 1   
    28   13   36 1   
    29   14   37 1   
    30   15   16 1   
    31   15   17 1   
    32   16   21 1   
    33   17   18 1   
    34   17   19 1   
    35   17   38 1   
    36   18   39 1   
    37   19   20 1   
    38   19   21 1   
    39   19   40 1   
    40   20   41 1   
    41   21   22 1   
    42   21   42 1   
    43   22   23 1   
    44   22   43 1   
    45   22   44 1   
    46   23   45 1   
@<TRIPOS>SUBSTRUCTURE
     1 SWE         1 TEMP              0 ****  ****    0 ROOT
