@<TRIPOS>MOLECULE
SWE
   45    46     1     0     0
SMALL
bcc


@<TRIPOS>ATOM
      1 C1          1.1170   -0.9740   -0.9160 c3        1 SWE      0.307900
      2 O1         -0.0170   -0.8250   -0.0790 os        1 SWE     -0.472600
      3 C2          2.2110   -1.6390   -0.0560 c3        1 SWE      0.097100
      4 O2          1.7520   -2.8370    0.5320 oh        1 SWE     -0.591800
      5 C3          2.7180   -0.6790    1.0310 c3        1 SWE      0.074100
      6 O3          3.8970   -1.1780    1.6400 oh        1 SWE     -0.607800
      7 C4          3.0820    0.6830    0.4170 c3        1 SWE      0.128100
      8 O4          3.4170    1.6150    1.4290 oh        1 SWE     -0.598800
      9 C5          1.8520    1.2290   -0.3210 c3        1 SWE      0.097100
     10 O5          1.4740    0.3150   -1.3580 os        1 SWE     -0.430600
     11 C6          2.1360    2.5630   -1.0140 c3        1 SWE      0.137400
     12 O6          0.9400    3.2170   -1.3840 oh        1 SWE     -0.605800
     13 C1'        -1.6210   -1.7290   -1.7480 c3        1 SWE      0.126400
     14 O1'        -0.9820   -2.9530   -1.4660 oh        1 SWE     -0.595800
     15 C2'        -1.2900   -0.6610   -0.6980 c3        1 SWE      0.318600
     16 O2'        -2.1220   -0.8780    0.4400 os        1 SWE     -0.417600
     17 C3'        -1.5040    0.8030   -1.1710 c3        1 SWE      0.098100
     18 O3'        -2.3400    0.7890   -2.3090 oh        1 SWE     -0.591800
     19 C4'        -2.2230    1.4900    0.0160 c3        1 SWE      0.091100
     20 O4'        -1.3460    2.4890    0.5060 oh        1 SWE     -0.602800
     21 C5'        -2.4650    0.3780    1.0530 c3        1 SWE      0.067100
     22 C6'        -3.9280    0.2810    1.4820 c3        1 SWE      0.129400
     23 O6'        -4.0900   -0.6340    2.5440 oh        1 SWE     -0.592800
     24 H1          0.9000   -1.5680   -1.8480 h2        1 SWE      0.115700
     25 H2          3.0630   -1.9490   -0.7250 h1        1 SWE      0.101700
     26 HO2         0.8910   -2.6530    0.9340 ho        1 SWE      0.421000
     27 H3          1.9210   -0.5430    1.8150 h1        1 SWE      0.063700
     28 HO3         3.7210   -2.1010    1.8690 ho        1 SWE      0.424000
     29 H4          3.9490    0.5620   -0.2900 h1        1 SWE      0.060700
     30 HO4         4.1020    1.1970    1.9690 ho        1 SWE      0.426000
     31 H5          0.9940    1.3450    0.4020 h1        1 SWE      0.078700
     32 H6          2.7420    3.2030   -0.3180 h1        1 SWE      0.067700
     33 H6A         2.6860    2.4020   -1.9800 h1        1 SWE      0.067700
     34 HO6         0.4210    3.3540   -0.5800 ho        1 SWE      0.414000
     35 H1'        -1.2380   -1.4110   -2.7540 h1        1 SWE      0.076700
     36 H1'A       -2.7350   -1.8560   -1.7890 h1        1 SWE      0.076700
     37 HO1'       -1.2090   -3.1940   -0.5580 ho        1 SWE      0.414000
     38 H3'        -0.5190    1.3060   -1.3870 h1        1 SWE      0.120700
     39 HO3'       -2.1580    1.6040   -2.7950 ho        1 SWE      0.422000
     40 H4'        -3.1880    1.9560   -0.3200 h1        1 SWE      0.066700
     41 HO4'       -1.7630    2.8740    1.2870 ho        1 SWE      0.414000
     42 H5'        -1.7940    0.5060    1.9470 h1        1 SWE      0.080700
     43 H6'        -4.2700    1.2680    1.8940 h1        1 SWE      0.055200
     44 H6'A       -4.5680   -0.0140    0.6090 h1        1 SWE      0.055200
     45 HO6'       -3.7640   -1.4880    2.2330 ho        1 SWE      0.414000
@<TRIPOS>BOND
     1    1    2 1   
     2    1    3 1   
     3    1   10 1   
     4    1   24 1   
     5    2   15 1   
     6    3    4 1   
     7    3    5 1   
     8    3   25 1   
     9    4   26 1   
    10    5    6 1   
    11    5    7 1   
    12    5   27 1   
    13    6   28 1   
    14    7    8 1   
    15    7    9 1   
    16    7   29 1   
    17    8   30 1   
    18    9   10 1   
    19    9   11 1   
    20    9   31 1   
    21   11   12 1   
    22   11   32 1   
    23   11   33 1   
    24   12   34 1   
    25   13   14 1   
    26   13   15 1   
    27   13   35 1   
    28   13   36 1   
    29   14   37 1   
    30   15   16 1   
    31   15   17 1   
    32   16   21 1   
    33   17   18 1   
    34   17   19 1   
    35   17   38 1   
    36   18   39 1   
    37   19   20 1   
    38   19   21 1   
    39   19   40 1   
    40   20   41 1   
    41   21   22 1   
    42   21   42 1   
    43   22   23 1   
    44   22   43 1   
    45   22   44 1   
    46   23   45 1   
@<TRIPOS>SUBSTRUCTURE
     1 SWE         1 TEMP              0 ****  ****    0 ROOT
