@<TRIPOS>MOLECULE
SWF
   39    41     1     0     0
SMALL
bcc


@<TRIPOS>ATOM
      1 C1          3.2960   -0.4930    3.5580 c3        1 SWF     -0.203100
      2 C2          2.2400   -1.1900    2.7610 c         1 SWF      0.568100
      3 O3          1.7580   -2.2710    3.1140 o         1 SWF     -0.530100
      4 C4          1.8390   -0.4890    1.4920 c3        1 SWF     -0.173400
      5 C5          0.3700   -0.6930    1.1370 c3        1 SWF      0.047800
      6 C6         -0.5170    0.2540    1.8920 ca        1 SWF     -0.083300
      7 C7         -1.5100   -0.2590    2.7360 ca        1 SWF     -0.118500
      8 C8         -2.3380    0.6040    3.4530 ca        1 SWF     -0.133500
      9 C9         -2.1840    1.9850    3.3330 ca        1 SWF     -0.128000
     10 C10        -1.2000    2.5010    2.4900 ca        1 SWF     -0.133500
     11 C11        -0.3710    1.6410    1.7730 ca        1 SWF     -0.118500
     12 C12         0.1340   -0.5880   -0.3400 cc        1 SWF     -0.230400
     13 C13         0.7360    0.3030   -1.1850 cd        1 SWF      0.216900
     14 O14         1.6640    1.1700   -0.6650 oh        1 SWF     -0.487100
     15 C15         0.4150    0.3160   -2.6030 ca        1 SWF     -0.182800
     16 C16         1.0050    1.1820   -3.5430 ca        1 SWF     -0.086000
     17 C17         0.6310    1.1370   -4.8770 ca        1 SWF     -0.153000
     18 C18        -0.3410    0.2260   -5.3130 ca        1 SWF     -0.079000
     19 C19        -0.9360   -0.6470   -4.4180 ca        1 SWF     -0.145000
     20 C20        -0.5510   -0.6000   -3.0620 ca        1 SWF      0.170100
     21 O21        -1.1720   -1.5050   -2.2380 os        1 SWF     -0.325200
     22 C22        -0.8340   -1.5350   -0.8810 c         1 SWF      0.735800
     23 O23        -1.4580   -2.4300   -0.3130 o         1 SWF     -0.556500
     24 H1C1        3.6840   -1.1560    4.3690 hc        1 SWF      0.063700
     25 H1C2        4.1420   -0.1920    2.8940 hc        1 SWF      0.063700
     26 H1C3        2.8610    0.4260    4.0220 hc        1 SWF      0.063700
     27 H4C1        2.0670    0.6070    1.5750 hc        1 SWF      0.073700
     28 H4C2        2.4820   -0.9010    0.6660 hc        1 SWF      0.073700
     29 H5          0.0960   -1.7530    1.4430 hc        1 SWF      0.105700
     30 H7         -1.6390   -1.3490    2.8310 ha        1 SWF      0.140500
     31 H8         -3.1150    0.1920    4.1130 ha        1 SWF      0.130000
     32 H9         -2.8380    2.6640    3.8990 ha        1 SWF      0.130000
     33 H10        -1.0780    3.5900    2.3900 ha        1 SWF      0.130000
     34 H11         0.4000    2.0510    1.1020 ha        1 SWF      0.140500
     35 H14         1.8860    1.8340   -1.3330 ho        1 SWF      0.429000
     36 H16         1.7770    1.9030   -3.2330 ha        1 SWF      0.129000
     37 H17         1.1000    1.8200   -5.6010 ha        1 SWF      0.143000
     38 H18        -0.6300    0.2040   -6.3750 ha        1 SWF      0.145000
     39 H19        -1.6980   -1.3750   -4.7330 ha        1 SWF      0.165000
@<TRIPOS>BOND
     1    1    2 1   
     2    1   24 1   
     3    1   25 1   
     4    1   26 1   
     5    2    3 2   
     6    2    4 1   
     7    4    5 1   
     8    4   27 1   
     9    4   28 1   
    10    5    6 1   
    11    5   12 1   
    12    5   29 1   
    13    6    7 ar  
    14    6   11 ar  
    15    7    8 ar  
    16    7   30 1   
    17    8    9 ar  
    18    8   31 1   
    19    9   10 ar  
    20    9   32 1   
    21   10   11 ar  
    22   10   33 1   
    23   11   34 1   
    24   12   13 2   
    25   12   22 1   
    26   13   14 1   
    27   13   15 1   
    28   14   35 1   
    29   15   16 ar  
    30   15   20 ar  
    31   16   17 ar  
    32   16   36 1   
    33   17   18 ar  
    34   17   37 1   
    35   18   19 ar  
    36   18   38 1   
    37   19   20 ar  
    38   19   39 1   
    39   20   21 1   
    40   21   22 1   
    41   22   23 2   
@<TRIPOS>SUBSTRUCTURE
     1 SWF         1 TEMP              0 ****  ****    0 ROOT
