@<TRIPOS>MOLECULE
SWF
   39    41     1     0     0
SMALL
bcc


@<TRIPOS>ATOM
      1 C1          0.2240    0.3040    0.4450 c3        1 SWF     -0.203100
      2 C2          1.6390    0.7160    0.1930 c         1 SWF      0.568100
      3 O3          2.2580    1.4490    0.9700 o         1 SWF     -0.531100
      4 C4          2.2300    0.1970   -1.0890 c3        1 SWF     -0.173400
      5 C5          3.7270   -0.0810   -0.9860 c3        1 SWF      0.047800
      6 C6          3.9980   -1.4210   -0.3640 ca        1 SWF     -0.083300
      7 C7          4.7480   -1.4910    0.8160 ca        1 SWF     -0.118500
      8 C8          5.0030   -2.7250    1.4140 ca        1 SWF     -0.133500
      9 C9          4.5150   -3.8980    0.8390 ca        1 SWF     -0.128000
     10 C10         3.7710   -3.8330   -0.3400 ca        1 SWF     -0.133500
     11 C11         3.5150   -2.6020   -0.9390 ca        1 SWF     -0.118500
     12 C12         4.4090    0.0430   -2.3140 cc        1 SWF     -0.230400
     13 C13         3.9030   -0.3710   -3.5160 cd        1 SWF      0.216900
     14 O14         2.6490   -0.9270   -3.5380 oh        1 SWF     -0.487100
     15 C15         4.6680   -0.2080   -4.7410 ca        1 SWF     -0.182800
     16 C16         4.2130   -0.5840   -6.0190 ca        1 SWF     -0.086000
     17 C17         5.0130   -0.4040   -7.1360 ca        1 SWF     -0.153000
     18 C18         6.2920    0.1590   -7.0120 ca        1 SWF     -0.079000
     19 C19         6.7690    0.5490   -5.7720 ca        1 SWF     -0.145000
     20 C20         5.9500    0.3670   -4.6380 ca        1 SWF      0.170100
     21 O21         6.4840    0.7910   -3.4480 os        1 SWF     -0.325200
     22 C22         5.7300    0.6610   -2.2770 c         1 SWF      0.735800
     23 O23         6.3500    1.1280   -1.3240 o         1 SWF     -0.556500
     24 H1C1        0.1970   -0.7860    0.6950 hc        1 SWF      0.063700
     25 H1C2       -0.2110    0.8790    1.2980 hc        1 SWF      0.063700
     26 H1C3       -0.3950    0.4760   -0.4680 hc        1 SWF      0.063700
     27 H4C1        2.0510    0.9760   -1.8800 hc        1 SWF      0.073700
     28 H4C2        1.6880   -0.7320   -1.4090 hc        1 SWF      0.073700
     29 H5          4.1680    0.7190   -0.3090 hc        1 SWF      0.105700
     30 H7          5.1400   -0.5690    1.2730 ha        1 SWF      0.140500
     31 H8          5.5930   -2.7710    2.3410 ha        1 SWF      0.130000
     32 H9          4.7170   -4.8700    1.3110 ha        1 SWF      0.130000
     33 H10         3.3870   -4.7560   -0.7980 ha        1 SWF      0.130000
     34 H11         2.9340   -2.5540   -1.8730 ha        1 SWF      0.140500
     35 H14         2.4880   -1.3120   -4.4110 ho        1 SWF      0.429000
     36 H16         3.2110   -1.0200   -6.1500 ha        1 SWF      0.129000
     37 H17         4.6450   -0.7030   -8.1290 ha        1 SWF      0.143000
     38 H18         6.9170    0.2930   -7.9080 ha        1 SWF      0.145000
     39 H19         7.7660    0.9970   -5.6470 ha        1 SWF      0.165000
@<TRIPOS>BOND
     1    1    2 1   
     2    1   24 1   
     3    1   25 1   
     4    1   26 1   
     5    2    3 2   
     6    2    4 1   
     7    4    5 1   
     8    4   27 1   
     9    4   28 1   
    10    5    6 1   
    11    5   12 1   
    12    5   29 1   
    13    6    7 ar  
    14    6   11 ar  
    15    7    8 ar  
    16    7   30 1   
    17    8    9 ar  
    18    8   31 1   
    19    9   10 ar  
    20    9   32 1   
    21   10   11 ar  
    22   10   33 1   
    23   11   34 1   
    24   12   13 2   
    25   12   22 1   
    26   13   14 1   
    27   13   15 1   
    28   14   35 1   
    29   15   16 ar  
    30   15   20 ar  
    31   16   17 ar  
    32   16   36 1   
    33   17   18 ar  
    34   17   37 1   
    35   18   19 ar  
    36   18   38 1   
    37   19   20 ar  
    38   19   39 1   
    39   20   21 1   
    40   21   22 1   
    41   22   23 2   
@<TRIPOS>SUBSTRUCTURE
     1 SWF         1 TEMP              0 ****  ****    0 ROOT
