@<TRIPOS>MOLECULE
SWF
   39    41     1     0     0
SMALL
bcc


@<TRIPOS>ATOM
      1 C1          0.2110    0.3080    0.4250 c3        1 SWF     -0.203100
      2 C2          1.6250    0.7270    0.1720 c         1 SWF      0.568100
      3 O3          2.2370    1.4720    0.9430 o         1 SWF     -0.530100
      4 C4          2.2220    0.1970   -1.1030 c3        1 SWF     -0.173400
      5 C5          3.7200   -0.0700   -0.9930 c3        1 SWF      0.047800
      6 C6          3.9990   -1.4010   -0.3560 ca        1 SWF     -0.083300
      7 C7          4.7460   -1.4540    0.8270 ca        1 SWF     -0.118500
      8 C8          5.0080   -2.6800    1.4380 ca        1 SWF     -0.133500
      9 C9          4.5290   -3.8610    0.8740 ca        1 SWF     -0.128000
     10 C10         3.7870   -3.8150   -0.3060 ca        1 SWF     -0.133500
     11 C11         3.5240   -2.5910   -0.9190 ca        1 SWF     -0.118500
     12 C12         4.4040    0.0440   -2.3210 cc        1 SWF     -0.230400
     13 C13         3.9050   -0.3870   -3.5190 cd        1 SWF      0.216900
     14 O14         2.6540   -0.9510   -3.5380 oh        1 SWF     -0.487100
     15 C15         4.6710   -0.2310   -4.7450 ca        1 SWF     -0.182800
     16 C16         4.2210   -0.6240   -6.0190 ca        1 SWF     -0.086000
     17 C17         5.0220   -0.4510   -7.1360 ca        1 SWF     -0.153000
     18 C18         6.2970    0.1210   -7.0160 ca        1 SWF     -0.079000
     19 C19         6.7690    0.5280   -5.7790 ca        1 SWF     -0.145000
     20 C20         5.9490    0.3530   -4.6450 ca        1 SWF      0.170100
     21 O21         6.4780    0.7940   -3.4580 os        1 SWF     -0.325200
     22 C22         5.7210    0.6710   -2.2880 c         1 SWF      0.735800
     23 O23         6.3360    1.1530   -1.3380 o         1 SWF     -0.556500
     24 H1C1       -0.4070    0.4670   -0.4910 hc        1 SWF      0.063700
     25 H1C2        0.1910   -0.7780    0.6870 hc        1 SWF      0.063700
     26 H1C3       -0.2300    0.8900    1.2700 hc        1 SWF      0.063700
     27 H4C1        1.6860   -0.7390   -1.4130 hc        1 SWF      0.073700
     28 H4C2        2.0390    0.9660   -1.9020 hc        1 SWF      0.073700
     29 H5          4.1550    0.7400   -0.3240 hc        1 SWF      0.105700
     30 H7          5.1310   -0.5240    1.2740 ha        1 SWF      0.140500
     31 H8          5.5960   -2.7110    2.3670 ha        1 SWF      0.130000
     32 H9          4.7360   -4.8270    1.3570 ha        1 SWF      0.130000
     33 H10         3.4100   -4.7450   -0.7560 ha        1 SWF      0.130000
     34 H11         2.9450   -2.5570   -1.8550 ha        1 SWF      0.140500
     35 H14         2.4980   -1.3460   -4.4080 ho        1 SWF      0.429000
     36 H16         3.2230   -1.0690   -6.1480 ha        1 SWF      0.129000
     37 H17         4.6590   -0.7630   -8.1270 ha        1 SWF      0.143000
     38 H18         6.9240    0.2500   -7.9120 ha        1 SWF      0.145000
     39 H19         7.7630    0.9840   -5.6560 ha        1 SWF      0.165000
@<TRIPOS>BOND
     1    1    2 1   
     2    1   24 1   
     3    1   25 1   
     4    1   26 1   
     5    2    3 2   
     6    2    4 1   
     7    4    5 1   
     8    4   27 1   
     9    4   28 1   
    10    5    6 1   
    11    5   12 1   
    12    5   29 1   
    13    6    7 ar  
    14    6   11 ar  
    15    7    8 ar  
    16    7   30 1   
    17    8    9 ar  
    18    8   31 1   
    19    9   10 ar  
    20    9   32 1   
    21   10   11 ar  
    22   10   33 1   
    23   11   34 1   
    24   12   13 2   
    25   12   22 1   
    26   13   14 1   
    27   13   15 1   
    28   14   35 1   
    29   15   16 ar  
    30   15   20 ar  
    31   16   17 ar  
    32   16   36 1   
    33   17   18 ar  
    34   17   37 1   
    35   18   19 ar  
    36   18   38 1   
    37   19   20 ar  
    38   19   39 1   
    39   20   21 1   
    40   21   22 1   
    41   22   23 2   
@<TRIPOS>SUBSTRUCTURE
     1 SWF         1 TEMP              0 ****  ****    0 ROOT
