@<TRIPOS>MOLECULE
SWG
   39    41     1     0     0
SMALL
bcc


@<TRIPOS>ATOM
      1 CD2         3.8410   -0.3630   -0.1080 ca        1 SWG     -0.076800
      2 CE3         4.5130   -1.5510   -0.3900 ca        1 SWG     -0.082000
      3 CZ3         5.9010   -1.5680   -0.3420 ca        1 SWG     -0.164000
      4 CH2         6.6340   -0.4150   -0.0160 ca        1 SWG     -0.124000
      5 CZ2         6.0050    0.7880    0.2720 ca        1 SWG     -0.150000
      6 CE2         4.6050    0.8190    0.2270 ca        1 SWG     -0.054200
      7 NE1         3.7030    1.8630    0.4580 na        1 SWG     -0.200400
      8 CD1         2.4060    1.3780    0.2900 cc        1 SWG     -0.051100
      9 CG          2.4390    0.0210   -0.0620 cd        1 SWG     -0.105200
     10 CB2         1.3440   -0.8530   -0.3250 cf        1 SWG     -0.026000
     11 CA2         0.0350   -0.5250   -0.3520 cc        1 SWG      0.007400
     12 N2         -0.5900    0.7350   -0.1230 nc        1 SWG     -0.665300
     13 C2         -1.0600   -1.5360   -0.6650 c         1 SWG      0.668700
     14 O2         -0.9420   -2.7370   -0.9360 o         1 SWG     -0.608500
     15 N3         -2.2650   -0.7760   -0.6660 n         1 SWG     -0.369300
     16 CA3        -3.5750   -1.3490   -0.5290 c3        1 SWG     -0.051000
     17 C3         -4.3260   -1.1290    0.8170 c         1 SWG      0.903600
     18 O3         -3.7160   -0.6240    1.8010 o         1 SWG     -0.828300
     19 OXT        -5.5330   -1.4860    0.8200 o         1 SWG     -0.828300
     20 C1         -1.9050    0.5430   -0.2770 cd        1 SWG      0.459900
     21 CA1        -2.9380    1.6520   -0.0910 c3        1 SWG      0.123200
     22 N1         -3.0340    2.1400    1.2660 n3        1 SWG     -0.920800
     23 CB1        -2.5850    2.7780   -1.0890 c3        1 SWG      0.139400
     24 OG1        -3.6480    3.6960   -1.2440 oh        1 SWG     -0.616800
     25 HE3         3.9450   -2.4580   -0.6460 ha        1 SWG      0.138000
     26 HZ3         6.4420   -2.4990   -0.5620 ha        1 SWG      0.122000
     27 HH2         7.7320   -0.4690    0.0130 ha        1 SWG      0.119000
     28 HZ2         6.5850    1.6850    0.5270 ha        1 SWG      0.123000
     29 HE1         3.9470    2.7740    0.7350 hn        1 SWG      0.293700
     30 HD1         1.5410    2.0330    0.4320 h4        1 SWG      0.199000
     31 HB2         1.6090   -1.9090   -0.5290 ha        1 SWG      0.141000
     32 HA31       -4.2190   -0.9350   -1.3550 h1        1 SWG      0.056700
     33 HA32       -3.4770   -2.4610   -0.6770 h1        1 SWG      0.056700
     34 HA1        -3.9580    1.2420   -0.3700 h1        1 SWG      0.102700
     35 H11N       -3.5160    1.4610    1.8360 hn        1 SWG      0.381800
     36 H12N       -2.1250    2.3040    1.6510 hn        1 SWG      0.381800
     37 HB11       -1.6590    3.3240   -0.7660 h1        1 SWG      0.043700
     38 HB12       -2.4290    2.3420   -2.1110 h1        1 SWG      0.043700
     39 HG1        -3.9640    3.9290   -0.3620 ho        1 SWG      0.415000
@<TRIPOS>BOND
     1    1    2 ar  
     2    1    6 ar  
     3    1    9 1   
     4    2    3 ar  
     5    2   25 1   
     6    3    4 ar  
     7    3   26 1   
     8    4    5 ar  
     9    4   27 1   
    10    5    6 ar  
    11    5   28 1   
    12    6    7 1   
    13    7    8 1   
    14    7   29 1   
    15    8    9 2   
    16    8   30 1   
    17    9   10 1   
    18   10   11 2   
    19   10   31 1   
    20   11   12 1   
    21   11   13 1   
    22   12   20 2   
    23   13   14 2   
    24   13   15 1   
    25   15   16 1   
    26   15   20 1   
    27   16   17 1   
    28   16   32 1   
    29   16   33 1   
    30   17   18 1   
    31   17   19 1   
    32   20   21 1   
    33   21   22 1   
    34   21   23 1   
    35   21   34 1   
    36   22   35 1   
    37   22   36 1   
    38   23   24 1   
    39   23   37 1   
    40   23   38 1   
    41   24   39 1   
@<TRIPOS>SUBSTRUCTURE
     1 SWG         1 TEMP              0 ****  ****    0 ROOT
