@<TRIPOS>MOLECULE
SWG
   39    32     1     0     0
SMALL
bcc


@<TRIPOS>ATOM
      1 CD2         1.1890    1.7290    1.8850 c1        1 SWG     -0.037000
      2 CE3         1.5800    2.9310    1.2510 c1        1 SWG     -0.129500
      3 CZ3         1.7610    4.0900    2.0050 c1        1 SWG     -0.129500
      4 CH2         1.5560    4.0650    3.3850 c1        1 SWG     -0.129500
      5 CZ2         1.1700    2.8800    4.0110 c1        1 SWG     -0.129500
      6 CE2         0.9870    1.7040    3.2480 c1        1 SWG     -0.037000
      7 NE1         0.6360    0.4060    3.6070 n1        1 SWG     -0.223000
      8 CD1         0.6240   -0.3620    2.4670 c1        1 SWG     -0.022000
      9 CG          0.9660    0.4520    1.3970 c1        1 SWG     -0.119000
     10 CB2        -0.5150    0.6660    1.6810 c1        1 SWG     -0.022000
     11 CA2        -1.4570    0.1660    0.8230 c1        1 SWG     -0.116000
     12 N2         -0.2550   -0.3180    0.0840 n1        1 SWG     -0.238000
     13 C2         -2.4070   -0.5840   -0.4460 c2        1 SWG      0.307000
     14 O2         -3.6240   -0.5960   -0.5190 o         1 SWG     -0.333000
     15 N3         -1.5110   -1.2020   -1.3520 n         1 SWG     -0.267000
     16 CA3        -1.8690   -1.8800   -2.5740 c3        1 SWG     -0.115000
     17 C3         -3.0580   -1.1640   -3.2280 c2        1 SWG      0.314000
     18 O3         -3.9040   -1.8250   -3.8940 o         1 SWG     -0.553500
     19 OXT        -3.1590    0.0890   -3.1480 o         1 SWG     -0.553500
     20 C1         -0.4060   -0.9680   -0.9740 c2        1 SWG      0.090000
     21 CA1         0.7850   -1.6660   -1.6160 c3        1 SWG      0.009000
     22 N1          0.6810   -3.0580   -1.4140 n3        1 SWG     -0.358000
     23 CB1         0.8060   -1.3690   -3.1120 c3        1 SWG     -0.042000
     24 OG1         0.6170   -2.5770   -3.8380 oh        1 SWG     -0.322000
     25 HE3         1.7250    2.9490    0.2770 ha        1 SWG      0.126000
     26 HZ3         2.0480    4.9260    1.5630 ha        1 SWG      0.126000
     27 HH2         1.6730    4.8880    3.9160 ha        1 SWG      0.126000
     28 HZ2         1.0410    2.8580    4.9860 ha        1 SWG      0.126000
     29 HE1         0.4770    0.1070    4.4610 DU        1 SWG      0.221500
     30 HD1         0.4370   -1.3330    2.4230 DU        1 SWG      0.221500
     31 HB2        -0.7950    1.1630    2.4810 ha        1 SWG      0.141000
     32 HA31       -1.1080   -1.8720   -3.1870 h1        1 SWG      0.091500
     33 HA32       -2.1180   -2.8110   -2.3720 h1        1 SWG      0.091500
     34 HA1         1.6170   -1.3370   -1.2060 h1        1 SWG      0.094000
     35 H11N        0.7960   -3.2480   -0.5200 hn        1 SWG      0.179500
     36 H12N       -0.1440   -3.3430   -1.6830 hn        1 SWG      0.179500
     37 HB11        0.0850   -0.7400   -3.3310 h1        1 SWG      0.124500
     38 HB12        1.6730   -0.9710   -3.3560 h1        1 SWG      0.124500
     39 HG1         1.3990   -2.8460   -4.1780 ho        1 SWG      0.184000
@<TRIPOS>BOND
     1    1    6 1   
     2    2    3 1   
     3    2   25 1   
     4    3   26 1   
     5    4    5 1   
     6    4   27 1   
     7    5   28 1   
     8    7    8 1   
     9    8    9 1   
    10   10   11 1   
    11   10   31 1   
    12   11   13 1   
    13   12   20 1   
    14   13   14 1   
    15   13   15 1   
    16   15   16 1   
    17   15   20 1   
    18   16   17 1   
    19   16   32 1   
    20   16   33 1   
    21   17   18 1   
    22   17   19 1   
    23   20   21 1   
    24   21   22 1   
    25   21   23 1   
    26   21   34 1   
    27   22   35 1   
    28   22   36 1   
    29   23   24 1   
    30   23   37 1   
    31   23   38 1   
    32   24   39 1   
@<TRIPOS>SUBSTRUCTURE
     1 SWG         1 TEMP              0 ****  ****    0 ROOT
