@<TRIPOS>MOLECULE
SWY
   61    66     1     0     0
SMALL
bcc


@<TRIPOS>ATOM
      1 OAQ        -0.1100    0.1250   -0.0150 o         1 SWY     -0.610500
      2 CAP         1.1350    0.1200    0.0020 c         1 SWY      0.721100
      3 CAR         1.8970    0.1420    1.2730 ca        1 SWY     -0.154600
      4 CBC         3.3180    0.1600    1.2390 ca        1 SWY      0.019000
      5 CAS         1.2290    0.1470    2.4810 ca        1 SWY     -0.034500
      6 CAT         1.9580    0.1680    3.6930 ca        1 SWY     -0.150000
      7 CAU         3.3320    0.1850    3.6830 ca        1 SWY     -0.075000
      8 CAV         4.0470    0.1820    2.4540 ca        1 SWY     -0.063000
      9 CAW         5.4670    0.1990    2.4020 ca        1 SWY     -0.075000
     10 CAX         6.1230    0.1950    1.1940 ca        1 SWY     -0.150000
     11 CAY         5.3970    0.1740   -0.0200 ca        1 SWY     -0.034500
     12 CAZ         4.0170    0.1560    0.0010 ca        1 SWY     -0.154600
     13 CBA         3.2550    0.1340   -1.2700 c         1 SWY      0.721100
     14 OBB         3.8260    0.1500   -2.3760 o         1 SWY     -0.610500
     15 NAO         1.8490    0.0830   -1.2110 n         1 SWY     -0.493400
     16 CAN         1.1020    0.0410   -2.4570 c3        1 SWY      0.090000
     17 CAM         0.7550    1.4210   -3.0240 c3        1 SWY     -0.096400
     18 CAL        -0.0100    1.2500   -4.3110 c3        1 SWY     -0.024300
     19 SAK        -0.3670    2.8940   -4.8700 ss        1 SWY     -0.200400
     20 CAJ        -1.2020    2.6320   -6.3100 cc        1 SWY      0.438800
     21 NBD        -1.5380    1.4280   -6.8880 nd        1 SWY     -0.368000
     22 NBE        -2.1900    1.6380   -8.0030 nd        1 SWY     -0.321000
     23 CBF        -2.3140    2.9890   -8.2210 cc        1 SWY      0.406000
     24 CBG        -2.9690    3.6200   -9.3580 ca        1 SWY     -0.075500
     25 CBH        -4.0730    2.9920   -9.9560 ca        1 SWY     -0.221800
     26 CBI        -4.6720    3.6130  -11.0660 ca        1 SWY      0.388700
     27 NBJ        -4.2490    4.7790  -11.5920 nb        1 SWY     -0.658000
     28 CBK        -3.1860    5.3640  -11.0100 ca        1 SWY      0.388700
     29 CBL        -2.5110    4.8300   -9.8980 ca        1 SWY     -0.221800
     30 NAI        -1.6810    3.6580   -7.1450 na        1 SWY     -0.236800
     31 CAF        -1.6040    5.0460   -6.8890 ca        1 SWY     -0.063200
     32 CAE        -0.4260    5.7620   -7.2030 ca        1 SWY     -0.072500
     33 CAD        -0.3430    7.1210   -6.9440 ca        1 SWY     -0.181500
     34 CAC        -1.4410    7.7890   -6.3670 ca        1 SWY      0.145100
     35 OAB        -1.2520    9.1380   -6.1560 os        1 SWY     -0.320900
     36 CAA        -2.3390    9.8440   -5.5660 c3        1 SWY      0.110700
     37 CAH        -2.6130    7.0920   -6.0520 ca        1 SWY     -0.181500
     38 CAG        -2.6930    5.7260   -6.3100 ca        1 SWY     -0.072500
     39 HAS         0.1260    0.1330    2.5000 ha        1 SWY      0.165000
     40 HAT         1.4040    0.1700    4.6440 ha        1 SWY      0.145000
     41 HAU         3.9030    0.2020    4.6250 ha        1 SWY      0.141000
     42 HAW         6.0300    0.2160    3.3490 ha        1 SWY      0.141000
     43 HAX         7.2230    0.2080    1.1530 ha        1 SWY      0.145000
     44 HAY         5.9340    0.1710   -0.9840 ha        1 SWY      0.165000
     45 HAN1        1.7190   -0.5210   -3.2160 h1        1 SWY      0.078700
     46 HAN2        0.1460   -0.5290   -2.2730 h1        1 SWY      0.078700
     47 HAM1        1.6980    2.0010   -3.2090 hc        1 SWY      0.066200
     48 HAM2        0.1360    1.9890   -2.2800 hc        1 SWY      0.066200
     49 HAL1       -0.9530    0.6740   -4.1470 h1        1 SWY      0.087700
     50 HAL2        0.5970    0.6960   -5.0690 h1        1 SWY      0.087700
     51 HBH        -4.4580    2.0360   -9.5750 ha        1 SWY      0.157000
     52 HBL        -1.6440    5.3530   -9.4720 ha        1 SWY      0.157000
     53 HBI        -5.5430    3.1490  -11.5650 h4        1 SWY      0.025100
     54 HBK        -2.8530    6.3160  -11.4620 h4        1 SWY      0.025100
     55 HAE         0.4370    5.2430   -7.6510 ha        1 SWY      0.154000
     56 HAG        -3.6190    5.1850   -6.0560 ha        1 SWY      0.154000
     57 HAD         0.5700    7.6870   -7.1810 ha        1 SWY      0.153000
     58 HAH        -3.4740    7.6050   -5.6010 ha        1 SWY      0.153000
     59 HAA1       -1.9550   10.8930   -5.4930 h1        1 SWY      0.049367
     60 HAA2       -2.5700    9.4360   -4.5520 h1        1 SWY      0.049367
     61 HAA3       -3.2410    9.7980   -6.2240 h1        1 SWY      0.049367
@<TRIPOS>BOND
     1    1    2 2   
     2    2    3 1   
     3    2   15 1   
     4    3    4 ar  
     5    3    5 ar  
     6    4    8 ar  
     7    4   12 ar  
     8    5    6 ar  
     9    5   39 1   
    10    6    7 ar  
    11    6   40 1   
    12    7    8 ar  
    13    7   41 1   
    14    8    9 ar  
    15    9   10 ar  
    16    9   42 1   
    17   10   11 ar  
    18   10   43 1   
    19   11   12 ar  
    20   11   44 1   
    21   12   13 1   
    22   13   14 2   
    23   13   15 1   
    24   15   16 1   
    25   16   17 1   
    26   16   45 1   
    27   16   46 1   
    28   17   18 1   
    29   17   47 1   
    30   17   48 1   
    31   18   19 1   
    32   18   49 1   
    33   18   50 1   
    34   19   20 1   
    35   20   21 2   
    36   20   30 1   
    37   21   22 1   
    38   22   23 2   
    39   23   24 1   
    40   23   30 1   
    41   24   25 ar  
    42   24   29 ar  
    43   25   26 ar  
    44   25   51 1   
    45   26   27 ar  
    46   26   53 1   
    47   27   28 ar  
    48   28   29 ar  
    49   28   54 1   
    50   29   52 1   
    51   30   31 1   
    52   31   32 ar  
    53   31   38 ar  
    54   32   33 ar  
    55   32   55 1   
    56   33   34 ar  
    57   33   57 1   
    58   34   35 1   
    59   34   37 ar  
    60   35   36 1   
    61   36   59 1   
    62   36   60 1   
    63   36   61 1   
    64   37   38 ar  
    65   37   58 1   
    66   38   56 1   
@<TRIPOS>SUBSTRUCTURE
     1 SWY         1 TEMP              0 ****  ****    0 ROOT
