@<TRIPOS>MOLECULE
SWY
   61    66     1     0     0
SMALL
bcc


@<TRIPOS>ATOM
      1 OAQ        -0.1090    0.1250   -0.0200 o         1 SWY     -0.610500
      2 CAP         1.1360    0.1200   -0.0010 c         1 SWY      0.721100
      3 CAR         1.8960    0.1410    1.2710 ca        1 SWY     -0.154600
      4 CBC         3.3170    0.1590    1.2400 ca        1 SWY      0.019000
      5 CAS         1.2260    0.1430    2.4780 ca        1 SWY     -0.034500
      6 CAT         1.9520    0.1630    3.6920 ca        1 SWY     -0.150000
      7 CAU         3.3270    0.1800    3.6840 ca        1 SWY     -0.075000
      8 CAV         4.0440    0.1790    2.4570 ca        1 SWY     -0.063000
      9 CAW         5.4640    0.1960    2.4080 ca        1 SWY     -0.075000
     10 CAX         6.1220    0.1940    1.2010 ca        1 SWY     -0.150000
     11 CAY         5.3990    0.1750   -0.0140 ca        1 SWY     -0.034500
     12 CAZ         4.0180    0.1570    0.0040 ca        1 SWY     -0.154600
     13 CBA         3.2580    0.1360   -1.2690 c         1 SWY      0.721100
     14 OBB         3.8320    0.1540   -2.3740 o         1 SWY     -0.610500
     15 NAO         1.8530    0.0850   -1.2120 n         1 SWY     -0.493400
     16 CAN         1.1080    0.0430   -2.4590 c3        1 SWY      0.090000
     17 CAM         0.7600    1.4230   -3.0260 c3        1 SWY     -0.096400
     18 CAL        -0.0040    1.2520   -4.3140 c3        1 SWY     -0.024300
     19 SAK        -0.3610    2.8960   -4.8730 ss        1 SWY     -0.200400
     20 CAJ        -1.1990    2.6330   -6.3110 cc        1 SWY      0.438800
     21 NBD        -1.5360    1.4290   -6.8880 nd        1 SWY     -0.368000
     22 NBE        -2.1890    1.6390   -8.0020 nd        1 SWY     -0.321000
     23 CBF        -2.3150    2.9890   -8.2200 cc        1 SWY      0.406000
     24 CBG        -2.9720    3.6200   -9.3560 ca        1 SWY     -0.075500
     25 CBH        -4.0770    2.9910   -9.9510 ca        1 SWY     -0.221800
     26 CBI        -4.6800    3.6110  -11.0600 ca        1 SWY      0.388700
     27 NBJ        -4.2580    4.7770  -11.5880 nb        1 SWY     -0.658000
     28 CBK        -3.1930    5.3630  -11.0080 ca        1 SWY      0.388700
     29 CBL        -2.5160    4.8290   -9.8980 ca        1 SWY     -0.221800
     30 NAI        -1.6800    3.6590   -7.1460 na        1 SWY     -0.236800
     31 CAF        -1.6030    5.0480   -6.8910 ca        1 SWY     -0.063200
     32 CAE        -0.4260    5.7630   -7.2080 ca        1 SWY     -0.072500
     33 CAD        -0.3430    7.1220   -6.9500 ca        1 SWY     -0.181500
     34 CAC        -1.4400    7.7910   -6.3710 ca        1 SWY      0.145100
     35 OAB        -1.2510    9.1390   -6.1620 os        1 SWY     -0.320900
     36 CAA        -2.3370    9.8450   -5.5690 c3        1 SWY      0.110700
     37 CAH        -2.6110    7.0930   -6.0530 ca        1 SWY     -0.181500
     38 CAG        -2.6910    5.7270   -6.3090 ca        1 SWY     -0.072500
     39 HAS         0.1230    0.1300    2.4950 ha        1 SWY      0.165000
     40 HAT         1.3970    0.1640    4.6420 ha        1 SWY      0.145000
     41 HAU         3.8960    0.1950    4.6270 ha        1 SWY      0.141000
     42 HAW         6.0250    0.2110    3.3550 ha        1 SWY      0.141000
     43 HAX         7.2220    0.2080    1.1620 ha        1 SWY      0.145000
     44 HAY         5.9370    0.1730   -0.9780 ha        1 SWY      0.165000
     45 HAN1        1.7270   -0.5170   -3.2180 h1        1 SWY      0.078700
     46 HAN2        0.1520   -0.5290   -2.2780 h1        1 SWY      0.078700
     47 HAM1        1.7030    2.0040   -3.2100 hc        1 SWY      0.066200
     48 HAM2        0.1410    1.9910   -2.2810 hc        1 SWY      0.066200
     49 HAL1       -0.9470    0.6760   -4.1490 h1        1 SWY      0.087700
     50 HAL2        0.6030    0.6980   -5.0720 h1        1 SWY      0.087700
     51 HBH        -4.4610    2.0350   -9.5680 ha        1 SWY      0.157000
     52 HBL        -1.6470    5.3520   -9.4740 ha        1 SWY      0.157000
     53 HBI        -5.5510    3.1470  -11.5560 h4        1 SWY      0.025100
     54 HBK        -2.8620    6.3150  -11.4610 h4        1 SWY      0.025100
     55 HAE         0.4370    5.2450   -7.6580 ha        1 SWY      0.154000
     56 HAG        -3.6150    5.1850   -6.0530 ha        1 SWY      0.154000
     57 HAD         0.5690    7.6880   -7.1900 ha        1 SWY      0.153000
     58 HAH        -3.4710    7.6060   -5.6000 ha        1 SWY      0.153000
     59 HAA1       -1.9540   10.8950   -5.4980 h1        1 SWY      0.049367
     60 HAA2       -2.5650    9.4380   -4.5550 h1        1 SWY      0.049367
     61 HAA3       -3.2410    9.7990   -6.2250 h1        1 SWY      0.049367
@<TRIPOS>BOND
     1    1    2 2   
     2    2    3 1   
     3    2   15 1   
     4    3    4 ar  
     5    3    5 ar  
     6    4    8 ar  
     7    4   12 ar  
     8    5    6 ar  
     9    5   39 1   
    10    6    7 ar  
    11    6   40 1   
    12    7    8 ar  
    13    7   41 1   
    14    8    9 ar  
    15    9   10 ar  
    16    9   42 1   
    17   10   11 ar  
    18   10   43 1   
    19   11   12 ar  
    20   11   44 1   
    21   12   13 1   
    22   13   14 2   
    23   13   15 1   
    24   15   16 1   
    25   16   17 1   
    26   16   45 1   
    27   16   46 1   
    28   17   18 1   
    29   17   47 1   
    30   17   48 1   
    31   18   19 1   
    32   18   49 1   
    33   18   50 1   
    34   19   20 1   
    35   20   21 2   
    36   20   30 1   
    37   21   22 1   
    38   22   23 2   
    39   23   24 1   
    40   23   30 1   
    41   24   25 ar  
    42   24   29 ar  
    43   25   26 ar  
    44   25   51 1   
    45   26   27 ar  
    46   26   53 1   
    47   27   28 ar  
    48   28   29 ar  
    49   28   54 1   
    50   29   52 1   
    51   30   31 1   
    52   31   32 ar  
    53   31   38 ar  
    54   32   33 ar  
    55   32   55 1   
    56   33   34 ar  
    57   33   57 1   
    58   34   35 1   
    59   34   37 ar  
    60   35   36 1   
    61   36   59 1   
    62   36   60 1   
    63   36   61 1   
    64   37   38 ar  
    65   37   58 1   
    66   38   56 1   
@<TRIPOS>SUBSTRUCTURE
     1 SWY         1 TEMP              0 ****  ****    0 ROOT
