@<TRIPOS>MOLECULE
SWY
   61    66     1     0     0
SMALL
bcc


@<TRIPOS>ATOM
      1 OAQ        -0.1070    0.1130   -0.0260 o         1 SWY     -0.610500
      2 CAP         1.1370    0.1120   -0.0060 c         1 SWY      0.721100
      3 CAR         1.8960    0.1330    1.2680 ca        1 SWY     -0.154600
      4 CBC         3.3170    0.1560    1.2380 ca        1 SWY      0.019000
      5 CAS         1.2240    0.1300    2.4740 ca        1 SWY     -0.034500
      6 CAT         1.9490    0.1500    3.6880 ca        1 SWY     -0.150000
      7 CAU         3.3240    0.1720    3.6820 ca        1 SWY     -0.075000
      8 CAV         4.0420    0.1760    2.4550 ca        1 SWY     -0.063000
      9 CAW         5.4620    0.2000    2.4080 ca        1 SWY     -0.075000
     10 CAX         6.1220    0.2030    1.2020 ca        1 SWY     -0.150000
     11 CAY         5.4000    0.1830   -0.0140 ca        1 SWY     -0.034500
     12 CAZ         4.0190    0.1600    0.0030 ca        1 SWY     -0.154600
     13 CBA         3.2610    0.1390   -1.2710 c         1 SWY      0.721100
     14 OBB         3.8350    0.1620   -2.3760 o         1 SWY     -0.610500
     15 NAO         1.8560    0.0830   -1.2160 n         1 SWY     -0.493400
     16 CAN         1.1130    0.0410   -2.4650 c3        1 SWY      0.090000
     17 CAM         0.7620    1.4210   -3.0290 c3        1 SWY     -0.096400
     18 CAL        -0.0010    1.2510   -4.3180 c3        1 SWY     -0.024300
     19 SAK        -0.3590    2.8960   -4.8750 ss        1 SWY     -0.200400
     20 CAJ        -1.1970    2.6340   -6.3130 cc        1 SWY      0.438800
     21 NBD        -1.5330    1.4300   -6.8910 nd        1 SWY     -0.368000
     22 NBE        -2.1880    1.6410   -8.0050 nd        1 SWY     -0.321000
     23 CBF        -2.3140    2.9910   -8.2200 cc        1 SWY      0.406000
     24 CBG        -2.9730    3.6230   -9.3560 ca        1 SWY     -0.075500
     25 CBH        -4.0780    2.9950   -9.9510 ca        1 SWY     -0.221800
     26 CBI        -4.6810    3.6160  -11.0590 ca        1 SWY      0.388700
     27 NBJ        -4.2610    4.7820  -11.5850 nb        1 SWY     -0.658000
     28 CBK        -3.1960    5.3690  -11.0050 ca        1 SWY      0.388700
     29 CBL        -2.5170    4.8340   -9.8960 ca        1 SWY     -0.221800
     30 NAI        -1.6790    3.6600   -7.1460 na        1 SWY     -0.236800
     31 CAF        -1.6030    5.0490   -6.8890 ca        1 SWY     -0.063200
     32 CAE        -0.4270    5.7660   -7.2070 ca        1 SWY     -0.072500
     33 CAD        -0.3450    7.1250   -6.9470 ca        1 SWY     -0.181500
     34 CAC        -1.4410    7.7920   -6.3660 ca        1 SWY      0.145100
     35 OAB        -1.2530    9.1400   -6.1550 os        1 SWY     -0.320900
     36 CAA        -2.3390    9.8440   -5.5600 c3        1 SWY      0.110700
     37 CAH        -2.6110    7.0920   -6.0470 ca        1 SWY     -0.181500
     38 CAG        -2.6900    5.7270   -6.3060 ca        1 SWY     -0.072500
     39 HAS         0.1210    0.1120    2.4890 ha        1 SWY      0.165000
     40 HAT         1.3930    0.1460    4.6380 ha        1 SWY      0.145000
     41 HAU         3.8910    0.1880    4.6260 ha        1 SWY      0.141000
     42 HAW         6.0220    0.2150    3.3560 ha        1 SWY      0.141000
     43 HAX         7.2220    0.2200    1.1650 ha        1 SWY      0.145000
     44 HAY         5.9390    0.1860   -0.9770 ha        1 SWY      0.165000
     45 HAN1        1.7340   -0.5160   -3.2240 h1        1 SWY      0.078700
     46 HAN2        0.1580   -0.5330   -2.2850 h1        1 SWY      0.078700
     47 HAM1        1.7040    2.0040   -3.2120 hc        1 SWY      0.066200
     48 HAM2        0.1410    1.9870   -2.2840 hc        1 SWY      0.066200
     49 HAL1       -0.9440    0.6740   -4.1540 h1        1 SWY      0.087700
     50 HAL2        0.6070    0.6990   -5.0750 h1        1 SWY      0.087700
     51 HBH        -4.4610    2.0380   -9.5690 ha        1 SWY      0.157000
     52 HBL        -1.6490    5.3570   -9.4720 ha        1 SWY      0.157000
     53 HBI        -5.5530    3.1510  -11.5550 h4        1 SWY      0.025100
     54 HBK        -2.8660    6.3220  -11.4570 h4        1 SWY      0.025100
     55 HAE         0.4360    5.2480   -7.6580 ha        1 SWY      0.154000
     56 HAG        -3.6150    5.1840   -6.0480 ha        1 SWY      0.154000
     57 HAD         0.5670    7.6920   -7.1870 ha        1 SWY      0.153000
     58 HAH        -3.4710    7.6040   -5.5930 ha        1 SWY      0.153000
     59 HAA1       -1.9560   10.8940   -5.4880 h1        1 SWY      0.049367
     60 HAA2       -2.5650    9.4350   -4.5460 h1        1 SWY      0.049367
     61 HAA3       -3.2430    9.7980   -6.2150 h1        1 SWY      0.049367
@<TRIPOS>BOND
     1    1    2 2   
     2    2    3 1   
     3    2   15 1   
     4    3    4 ar  
     5    3    5 ar  
     6    4    8 ar  
     7    4   12 ar  
     8    5    6 ar  
     9    5   39 1   
    10    6    7 ar  
    11    6   40 1   
    12    7    8 ar  
    13    7   41 1   
    14    8    9 ar  
    15    9   10 ar  
    16    9   42 1   
    17   10   11 ar  
    18   10   43 1   
    19   11   12 ar  
    20   11   44 1   
    21   12   13 1   
    22   13   14 2   
    23   13   15 1   
    24   15   16 1   
    25   16   17 1   
    26   16   45 1   
    27   16   46 1   
    28   17   18 1   
    29   17   47 1   
    30   17   48 1   
    31   18   19 1   
    32   18   49 1   
    33   18   50 1   
    34   19   20 1   
    35   20   21 2   
    36   20   30 1   
    37   21   22 1   
    38   22   23 2   
    39   23   24 1   
    40   23   30 1   
    41   24   25 ar  
    42   24   29 ar  
    43   25   26 ar  
    44   25   51 1   
    45   26   27 ar  
    46   26   53 1   
    47   27   28 ar  
    48   28   29 ar  
    49   28   54 1   
    50   29   52 1   
    51   30   31 1   
    52   31   32 ar  
    53   31   38 ar  
    54   32   33 ar  
    55   32   55 1   
    56   33   34 ar  
    57   33   57 1   
    58   34   35 1   
    59   34   37 ar  
    60   35   36 1   
    61   36   59 1   
    62   36   60 1   
    63   36   61 1   
    64   37   38 ar  
    65   37   58 1   
    66   38   56 1   
@<TRIPOS>SUBSTRUCTURE
     1 SWY         1 TEMP              0 ****  ****    0 ROOT
