@<TRIPOS>MOLECULE
SWY
   61    66     1     0     0
SMALL
bcc


@<TRIPOS>ATOM
      1 OAQ         4.1080   -0.8260    2.3480 o         1 SWY     -0.610500
      2 CAP         4.7160   -0.5920    1.2870 c         1 SWY      0.721100
      3 CAR         6.0430    0.0700    1.2790 ca        1 SWY     -0.154600
      4 CBC         6.6860    0.3370    0.0400 ca        1 SWY      0.019000
      5 CAS         6.6460    0.4260    2.4690 ca        1 SWY     -0.034500
      6 CAT         7.9120    1.0580    2.4590 ca        1 SWY     -0.150000
      7 CAU         8.5520    1.3250    1.2720 ca        1 SWY     -0.075000
      8 CAV         7.9540    0.9700    0.0320 ca        1 SWY     -0.063000
      9 CAW         8.5840    1.2290   -1.2150 ca        1 SWY     -0.075000
     10 CAX         7.9740    0.8720   -2.3940 ca        1 SWY     -0.150000
     11 CAY         6.7090    0.2400   -2.3880 ca        1 SWY     -0.034500
     12 CAZ         6.0740   -0.0240   -1.1910 ca        1 SWY     -0.154600
     13 CBA         4.7480   -0.6870   -1.1830 c         1 SWY      0.721100
     14 OBB         4.1670   -1.0020   -2.2380 o         1 SWY     -0.610500
     15 NAO         4.1460   -0.9700    0.0570 n         1 SWY     -0.493400
     16 CAN         2.8550   -1.6390    0.0660 c3        1 SWY      0.090000
     17 CAM         1.6580   -0.6850    0.0090 c3        1 SWY     -0.096400
     18 CAL         0.3830   -1.4890    0.0210 c3        1 SWY     -0.024300
     19 SAK        -0.9280   -0.2960   -0.0410 ss        1 SWY     -0.200400
     20 CAJ        -2.3130   -1.2550   -0.0340 cc        1 SWY      0.438800
     21 NBD        -2.3930   -2.6290    0.0260 nd        1 SWY     -0.368000
     22 NBE        -3.6470   -3.0010    0.0150 nd        1 SWY     -0.321000
     23 CBF        -4.4590   -1.8950   -0.0580 cc        1 SWY      0.406000
     24 CBG        -5.9150   -1.8980   -0.1000 ca        1 SWY     -0.075500
     25 CBH        -6.6240   -2.8980    0.5830 ca        1 SWY     -0.221800
     26 CBI        -8.0280   -2.8900    0.5080 ca        1 SWY      0.388700
     27 NBJ        -8.7360   -1.9750   -0.1830 nb        1 SWY     -0.658000
     28 CBK        -8.0400   -1.0260   -0.8370 ca        1 SWY      0.388700
     29 CBL        -6.6360   -0.9430   -0.8300 ca        1 SWY     -0.221800
     30 NAI        -3.6250   -0.7510   -0.0960 na        1 SWY     -0.236800
     31 CAF        -3.9950    0.6130   -0.1050 ca        1 SWY     -0.063200
     32 CAE        -3.9880    1.3420   -1.3170 ca        1 SWY     -0.072500
     33 CAD        -4.3400    2.6830   -1.3280 ca        1 SWY     -0.181500
     34 CAC        -4.7090    3.3180   -0.1260 ca        1 SWY      0.145100
     35 OAB        -5.0430    4.6480   -0.2530 os        1 SWY     -0.320900
     36 CAA        -5.4130    5.3240    0.9450 c3        1 SWY      0.110700
     37 CAH        -4.7200    2.6070    1.0790 ca        1 SWY     -0.181500
     38 CAG        -4.3620    1.2610    1.0890 ca        1 SWY     -0.072500
     39 HAS         6.1410    0.2160    3.4270 ha        1 SWY      0.165000
     40 HAT         8.3740    1.3310    3.4190 ha        1 SWY      0.145000
     41 HAU         9.5370    1.8160    1.2620 ha        1 SWY      0.141000
     42 HAW         9.5690    1.7220   -1.2170 ha        1 SWY      0.141000
     43 HAX         8.4620    1.0720   -3.3610 ha        1 SWY      0.145000
     44 HAY         6.2280   -0.0430   -3.3400 ha        1 SWY      0.165000
     45 HAN1        2.8130   -2.3300   -0.8240 h1        1 SWY      0.078700
     46 HAN2        2.7860   -2.2550    1.0080 h1        1 SWY      0.078700
     47 HAM1        1.6860    0.0090    0.8910 hc        1 SWY      0.066200
     48 HAM2        1.7140   -0.0650   -0.9250 hc        1 SWY      0.066200
     49 HAL1        0.3330   -2.1790   -0.8560 h1        1 SWY      0.087700
     50 HAL2        0.3080   -2.1120    0.9460 h1        1 SWY      0.087700
     51 HBH        -6.1000   -3.6750    1.1570 ha        1 SWY      0.157000
     52 HBL        -6.1250   -0.1480   -1.3900 ha        1 SWY      0.157000
     53 HBI        -8.6210   -3.6620    1.0310 h4        1 SWY      0.025100
     54 HBK        -8.6410   -0.2910   -1.4010 h4        1 SWY      0.025100
     55 HAE        -3.6970    0.8510   -2.2600 ha        1 SWY      0.154000
     56 HAG        -4.3710    0.7100    2.0440 ha        1 SWY      0.154000
     57 HAD        -4.3350    3.2600   -2.2640 ha        1 SWY      0.153000
     58 HAH        -5.0050    3.0940    2.0230 ha        1 SWY      0.153000
     59 HAA1       -6.3240    4.8600    1.3940 h1        1 SWY      0.049367
     60 HAA2       -4.5680    5.3210    1.6760 h1        1 SWY      0.049367
     61 HAA3       -5.6300    6.3660    0.5960 h1        1 SWY      0.049367
@<TRIPOS>BOND
     1    1    2 2   
     2    2    3 1   
     3    2   15 1   
     4    3    4 ar  
     5    3    5 ar  
     6    4    8 ar  
     7    4   12 ar  
     8    5    6 ar  
     9    5   39 1   
    10    6    7 ar  
    11    6   40 1   
    12    7    8 ar  
    13    7   41 1   
    14    8    9 ar  
    15    9   10 ar  
    16    9   42 1   
    17   10   11 ar  
    18   10   43 1   
    19   11   12 ar  
    20   11   44 1   
    21   12   13 1   
    22   13   14 2   
    23   13   15 1   
    24   15   16 1   
    25   16   17 1   
    26   16   45 1   
    27   16   46 1   
    28   17   18 1   
    29   17   47 1   
    30   17   48 1   
    31   18   19 1   
    32   18   49 1   
    33   18   50 1   
    34   19   20 1   
    35   20   21 2   
    36   20   30 1   
    37   21   22 1   
    38   22   23 2   
    39   23   24 1   
    40   23   30 1   
    41   24   25 ar  
    42   24   29 ar  
    43   25   26 ar  
    44   25   51 1   
    45   26   27 ar  
    46   26   53 1   
    47   27   28 ar  
    48   28   29 ar  
    49   28   54 1   
    50   29   52 1   
    51   30   31 1   
    52   31   32 ar  
    53   31   38 ar  
    54   32   33 ar  
    55   32   55 1   
    56   33   34 ar  
    57   33   57 1   
    58   34   35 1   
    59   34   37 ar  
    60   35   36 1   
    61   36   59 1   
    62   36   60 1   
    63   36   61 1   
    64   37   38 ar  
    65   37   58 1   
    66   38   56 1   
@<TRIPOS>SUBSTRUCTURE
     1 SWY         1 TEMP              0 ****  ****    0 ROOT
