@<TRIPOS>MOLECULE
SWY
   61    56     1     0     0
SMALL
bcc


@<TRIPOS>ATOM
      1 OAQ         0.1740   -1.6070    4.2740 o         1 SWY     -0.334000
      2 CAP         1.3610   -1.7960    4.2990 c1        1 SWY      0.358000
      3 CAR         2.1130   -1.8000    5.6480 c1        1 SWY     -0.134000
      4 CBC         3.5350   -1.8460    5.6680 c2        1 SWY      0.019000
      5 CAS         1.3840   -1.9940    6.8440 c1        1 SWY     -0.034000
      6 CAT         2.0620   -2.2210    8.0520 c1        1 SWY     -0.112500
      7 CAU         3.4610   -2.2570    8.0750 c1        1 SWY     -0.112500
      8 CAV         4.2040   -2.0610    6.8660 c1        1 SWY     -0.063000
      9 CAW         5.6000   -2.1800    6.8770 c2        1 SWY     -0.075000
     10 CAX         6.3160   -2.1200    5.6820 c1        1 SWY     -0.150000
     11 CAY         5.6430   -1.9420    4.4760 c1        1 SWY     -0.035000
     12 CAZ         4.2510   -1.8230    4.4630 c2        1 SWY     -0.134000
     13 CBA         3.4890   -1.8530    3.1070 c2        1 SWY      0.358000
     14 OBB         4.1100   -1.8600    2.0590 o         1 SWY     -0.335000
     15 NAO         2.0810   -1.9200    3.0920 n         1 SWY     -0.322000
     16 CAN         1.3980   -2.3240    1.8880 c3        1 SWY     -0.026000
     17 CAM         0.9390   -1.0850    1.1190 c3        1 SWY     -0.175000
     18 CAL         0.4100   -1.5060   -0.2730 c3        1 SWY     -0.285000
     19 SAK        -0.4760   -0.1140   -1.0290 ss        1 SWY      0.308000
     20 CAJ        -1.0630   -0.5880   -2.6750 c2        1 SWY     -0.241000
     21 NBD        -0.8230   -1.7520   -3.2900 n2        1 SWY     -0.105000
     22 NBE        -1.3810   -1.6970   -4.5220 n2        1 SWY     -0.059000
     23 CBF        -1.9650   -0.4920   -4.6610 c1        1 SWY     -0.052000
     24 CBG        -2.7640   -0.0070   -5.8910 c1        1 SWY      0.007500
     25 CBH        -4.0970   -0.2670   -5.9800 c2        1 SWY     -0.108000
     26 CBI        -4.7980    0.0760   -7.1340 c1        1 SWY     -0.116000
     27 NBJ        -4.1530    0.6700   -8.1700 n1        1 SWY     -0.132000
     28 CBK        -2.8120    0.9320   -8.0840 c1        1 SWY     -0.075000
     29 CBL        -2.1130    0.5930   -6.9390 c1        1 SWY     -0.121000
     30 NAI        -1.7720    0.1970   -3.5240 n2        1 SWY     -0.105000
     31 CAF        -2.1690    1.5570   -3.2840 c1        1 SWY      0.007500
     32 CAE        -3.4030    1.8290   -2.7300 c2        1 SWY     -0.108000
     33 CAD        -3.8040    3.1530   -2.5360 c1        1 SWY     -0.116000
     34 CAC        -2.9700    4.1840   -2.8990 c1        1 SWY      0.100000
     35 OAB        -3.4160    5.5350   -2.7870 os        1 SWY     -0.203000
     36 CAA        -3.1260    6.1400   -1.5250 c3        1 SWY     -0.079000
     37 CAH        -1.7280    3.9080   -3.4570 c1        1 SWY     -0.207000
     38 CAG        -1.3300    2.5970   -3.6490 c1        1 SWY     -0.121000
     39 HAS         0.4010   -1.9700    6.8300 ha        1 SWY      0.165000
     40 HAT         1.5560   -2.3160    8.8870 ha        1 SWY      0.143000
     41 HAU         3.9430   -2.4190    8.9370 ha        1 SWY      0.143000
     42 HAW         6.0670   -2.3040    7.7140 ha        1 SWY      0.141000
     43 HAX         7.2880   -2.1530    5.6970 ha        1 SWY      0.145000
     44 HAY         6.1400   -1.8990    3.6480 ha        1 SWY      0.165000
     45 HAN1        0.6140   -2.8730    2.1230 h1        1 SWY      0.117500
     46 HAN2        2.0080   -2.8490    1.3280 h1        1 SWY      0.117500
     47 HAM1        0.2190   -0.6330    1.6220 hc        1 SWY      0.105500
     48 HAM2        1.6950   -0.4710    1.0090 hc        1 SWY      0.105500
     49 HAL1       -0.2010   -2.2670   -0.1730 h1        1 SWY      0.127500
     50 HAL2        1.1700   -1.7670   -0.8500 h1        1 SWY      0.127500
     51 HBH        -4.5610   -0.6940   -5.2350 ha        1 SWY      0.160000
     52 HBL        -1.1620    0.7790   -6.8780 ha        1 SWY      0.151000
     53 HBI        -5.7470   -0.1090   -7.1970 ha        1 SWY      0.161500
     54 HBK        -2.3440    1.3650   -8.8400 ha        1 SWY      0.160000
     55 HAE        -3.9990    1.0930   -2.4710 ha        1 SWY      0.160000
     56 HAG        -0.4560    2.4040   -4.0420 ha        1 SWY      0.151000
     57 HAD        -4.6780    3.3460   -2.1430 ha        1 SWY      0.161500
     58 HAH        -1.1380    4.6350   -3.7130 ha        1 SWY      0.147000
     59 HAA1       -3.7370    6.9020   -1.3770 h1        1 SWY      0.088333
     60 HAA2       -2.1970    6.4600   -1.5220 h1        1 SWY      0.088333
     61 HAA3       -3.2470    5.4800   -0.8090 h1        1 SWY      0.088333
@<TRIPOS>BOND
     1    1    2 1   
     2    2   15 1   
     3    3    4 1   
     4    3    5 1   
     5    4    8 1   
     6    4   12 1   
     7    5   39 1   
     8    6    7 1   
     9    6   40 1   
    10    7   41 1   
    11    8    9 1   
    12    9   10 1   
    13    9   42 1   
    14   10   43 1   
    15   11   12 1   
    16   11   44 1   
    17   12   13 1   
    18   13   14 1   
    19   13   15 1   
    20   15   16 1   
    21   16   17 1   
    22   16   45 1   
    23   16   46 1   
    24   17   18 1   
    25   17   47 1   
    26   17   48 1   
    27   18   19 1   
    28   18   49 1   
    29   18   50 1   
    30   19   20 1   
    31   20   21 1   
    32   20   30 1   
    33   21   22 1   
    34   22   23 1   
    35   23   30 1   
    36   24   25 1   
    37   24   29 1   
    38   25   26 1   
    39   25   51 1   
    40   26   53 1   
    41   27   28 1   
    42   28   54 1   
    43   29   52 1   
    44   31   32 1   
    45   31   38 1   
    46   32   33 1   
    47   32   55 1   
    48   33   57 1   
    49   34   35 1   
    50   34   37 1   
    51   35   36 1   
    52   36   59 1   
    53   36   60 1   
    54   36   61 1   
    55   37   58 1   
    56   38   56 1   
@<TRIPOS>SUBSTRUCTURE
     1 SWY         1 TEMP              0 ****  ****    0 ROOT
