@<TRIPOS>MOLECULE
SX0
   48    47     1     0     0
SMALL
bcc


@<TRIPOS>ATOM
      1 C           3.1610   -1.7930    2.4980 c         1 SX0      0.914600
      2 N           0.7640   -1.3590    1.9520 n4        1 SX0     -0.834600
      3 OXT         4.2550   -2.2600    2.1150 o         1 SX0     -0.780800
      4 N1          8.2810   -5.5980    7.7120 nb        1 SX0     -0.691000
      5 C2          8.5370   -4.3500    8.1900 ca        1 SX0      0.652900
      6 N3          8.0830   -3.1520    7.7340 nb        1 SX0     -0.609000
      7 C4          7.2650   -3.2360    6.6570 ca        1 SX0      0.494800
      8 C5          6.8900   -4.5280    6.0450 ca        1 SX0     -0.258400
      9 C6          7.4530   -5.6660    6.6340 ca        1 SX0      0.484200
     10 N6          7.1380   -6.9880    6.0610 n4        1 SX0     -0.833300
     11 C7          6.0070   -4.2310    4.9590 cc        1 SX0     -0.195500
     12 C8          5.8630   -2.8320    4.9140 cd        1 SX0      0.078900
     13 N9          6.6230   -2.2300    5.9140 na        1 SX0     -0.176100
     14 CA          2.1470   -1.3340    1.3700 c3        1 SX0     -0.041500
     15 CB          2.5140    0.0610    0.8640 c3        1 SX0     -0.082400
     16 SD          4.9030    1.3260    0.4510 ss        1 SX0     -0.117700
     17 CG          3.7690    0.0310    0.0180 c3        1 SX0     -0.054300
     18 C1'         6.7720   -0.7870    6.2140 c3        1 SX0      0.349900
     19 C2'         6.6040    0.0070    5.0160 c1        1 SX0     -0.252100
     20 O2'         9.9230   -0.8600    6.6660 oh        1 SX0     -0.822000
     21 C3'         6.4890    0.6770    4.0290 cg        1 SX0     -0.029300
     22 O3'        11.5650    0.6880    7.9550 oh        1 SX0     -0.822000
     23 C4'         6.2150    1.3610    2.8330 ce        1 SX0     -0.057700
     24 O4'         5.8780   -0.4150    7.2420 oh        1 SX0     -0.570800
     25 C5'         5.4600    0.7360    1.9080 c2        1 SX0     -0.094400
     26 O           2.7750   -1.6490    3.6890 o         1 SX0     -0.780800
     27 HN          0.1720   -0.6360    1.5480 hn        1 SX0      0.452467
     28 HNA         0.8710   -1.2020    2.9760 hn        1 SX0      0.452467
     29 HN6         6.4820   -6.8400    5.2580 hn        1 SX0      0.469467
     30 HN6A        7.9980   -7.4380    5.7330 hn        1 SX0      0.469467
     31 HA          2.6680    0.7380    1.7490 hc        1 SX0      0.062200
     32 HB          2.1850   -2.0770    0.5250 hx        1 SX0      0.101700
     33 HBA         1.6730    0.4910    0.2540 hc        1 SX0      0.062200
     34 HG          3.5260    0.2030   -1.0600 h1        1 SX0      0.104700
     35 HGA         4.2770   -0.9670    0.1070 h1        1 SX0      0.104700
     36 H1'         4.9990   -0.2550    6.8670 ho        1 SX0      0.424000
     37 H2'         7.8140   -0.6450    6.6680 h2        1 SX0      0.173700
     38 HO2'       10.4720   -0.1500    6.3180 ho        1 SX0      0.412250
     39 H3'        10.1880   -0.9210    7.5890 ho        1 SX0      0.412250
     40 HO3'       12.5240    0.7010    8.0160 ho        1 SX0      0.412250
     41 H4'        11.2910    1.5010    8.3890 ho        1 SX0      0.412250
     42 H5'         6.6130    2.3820    2.7190 ha        1 SX0      0.161000
     43 H5'A        5.1490   -0.3080    2.1390 h4        1 SX0      0.180000
     44 BR          5.2470   -5.5010    3.8760 br        1 SX0     -0.005700
     45 H8          5.2450   -2.2440    4.2010 h4        1 SX0      0.261000
     46 HN3         0.3430   -2.2750    1.8050 hn        1 SX0      0.452467
     47 H63         6.6990   -7.5820    6.7710 hn        1 SX0      0.469467
     48 H2          9.2120   -4.3090    9.0750 h5        1 SX0      0.086100
@<TRIPOS>BOND
     1    1    3 1   
     2    1   14 1   
     3    1   26 1   
     4    2   14 1   
     5    2   27 1   
     6    2   28 1   
     7    2   46 1   
     8    4    5 ar  
     9    4    9 ar  
    10    5    6 ar  
    11    5   48 1   
    12    6    7 ar  
    13    7    8 ar  
    14    7   13 1   
    15    8    9 ar  
    16    8   11 1   
    17    9   10 1   
    18   10   29 1   
    19   10   30 1   
    20   10   47 1   
    21   11   12 2   
    22   11   44 1   
    23   12   13 1   
    24   12   45 1   
    25   13   18 1   
    26   14   15 1   
    27   14   32 1   
    28   15   17 1   
    29   15   31 1   
    30   15   33 1   
    31   16   17 1   
    32   16   25 1   
    33   17   34 1   
    34   17   35 1   
    35   18   19 1   
    36   18   24 1   
    37   18   37 1   
    38   19   21 3   
    39   20   38 1   
    40   20   39 1   
    41   21   23 1   
    42   22   40 1   
    43   22   41 1   
    44   23   25 2   
    45   23   42 1   
    46   24   36 1   
    47   25   43 1   
@<TRIPOS>SUBSTRUCTURE
     1 SX0         1 TEMP              0 ****  ****    0 ROOT
