@<TRIPOS>MOLECULE
SX0
   47    61     1     0     0
SMALL
bcc


@<TRIPOS>ATOM
      1 C           0.0000    0.0000    0.0000 c2        1 SX0      0.367000
      2 N           1.9960    1.2000   -0.6930 nz        1 SX0      0.582000
      3 OXT        -0.6050    1.0300   -0.1810 o         1 SX0     -0.490500
      4 N1          8.8200   -4.8250    9.8400 n2        1 SX0     -0.163000
      5 C2          8.8740   -3.5070    9.7710 c2        1 SX0      0.027000
      6 N3          8.4530   -2.8310    8.7250 n2        1 SX0     -0.114000
      7 C4          7.9460   -3.4610    7.6670 c2        1 SX0     -0.059000
      8 C5          7.8680   -4.8660    7.6940 c2        1 SX0     -0.277000
      9 C6          8.3290   -5.5430    8.8330 c3        1 SX0      0.042000
     10 N6          8.2740   -6.9230    8.9090 n8        1 SX0     -0.097000
     11 C7          7.2790   -5.2670    6.4180 c2        1 SX0     -0.142000
     12 C8          7.0440   -4.1400    5.7270 c2        1 SX0     -0.216000
     13 N9          7.4400   -3.0530    6.4640 na        1 SX0      0.361000
     14 CA          1.5070    0.0000    0.0000 DU        1 SX0     -0.293000
     15 CB          2.0170    0.0000    1.4420 DU        1 SX0     -0.487000
     16 SD          4.1470   -0.1250    3.1540 ss        1 SX0      0.137000
     17 CG          3.5420   -0.1250    1.4440 c3        1 SX0     -0.669000
     18 C1'         7.3340   -1.6580    6.0280 DU        1 SX0     -0.085000
     19 C2'         8.6350   -1.2150    5.3210 DU        1 SX0     -0.428000
     20 O2'         9.4730   -0.4900    6.2240 oh        1 SX0     -0.424000
     21 C3'         8.1500   -0.2970    4.1780 DU        1 SX0     -0.437000
     22 O3'         8.6710    1.0230    4.3400 oh        1 SX0     -0.493000
     23 C4'         6.6120   -0.2930    4.3280 DU        1 SX0     -0.245000
     24 O4'         6.3060   -1.5220    5.0220 os        1 SX0     -0.019000
     25 C5'         5.9430   -0.2790    2.9520 c3        1 SX0     -0.500000
     26 O          -0.6710   -1.1460    0.1960 o         1 SX0     -0.490500
     27 HN          2.5770    0.5700   -0.1760 DU        1 SX0      0.157000
     28 HNA         1.9380    1.9870   -0.0780 hn        1 SX0      0.082500
     29 HN6         7.8870   -6.3430    8.1910 DU        1 SX0      0.187000
     30 HN6A        9.0960   -7.4450    9.1390 hn        1 SX0      0.130000
     31 HA          2.0030   -0.6230    0.7350 DU        1 SX0      0.269000
     32 HB          1.9430   -0.4480    0.4580 DU        1 SX0      0.269000
     33 HBA         1.7290    0.9250    1.9270 ha        1 SX0      0.169000
     34 HG          2.5570   -0.4860    1.7140 DU        1 SX0      0.332000
     35 HGA         3.9730    0.7120    0.9080 h1        1 SX0      0.101000
     36 H1'         6.7210   -1.5520    5.1410 ha        1 SX0      0.336000
     37 H2'         7.8830   -1.1100    6.0940 DU        1 SX0      0.179000
     38 HO2'        9.3310   -1.2100    5.6320 DU        1 SX0      0.335000
     39 H3'         8.9680   -0.4510    4.8710 DU        1 SX0      0.441000
     40 HO3'        8.5650    0.2370    3.8290 DU        1 SX0      0.323000
     41 H4'         7.5020    0.2600    4.0560 DU        1 SX0      0.404000
     42 H5'         6.1170    0.1420    3.9350 DU        1 SX0      0.242000
     43 H5'A        6.4860   -0.0990    2.0320 h1        1 SX0      0.172000
     44 Br          6.9150   -7.0340    5.8510 br        1 SX0      0.095000
     45 H8          6.6080   -4.0960    4.7360 h4        1 SX0      0.166000
     46 HN3         1.4340    1.3680   -1.5040 hn        1 SX0      0.082500
     47 H2          9.2810   -2.9600   10.6130 h5        1 SX0      0.140000
@<TRIPOS>BOND
     1    1    3 1   
     2    1   14 1   
     3    1   26 1   
     4    2   14 1   
     5    2   27 1   
     6    2   28 1   
     7    2   46 1   
     8    4    5 1   
     9    4    9 1   
    10    5    6 1   
    11    5   47 1   
    12    6    7 1   
    13    7    8 1   
    14    7   13 1   
    15    8    9 1   
    16    8   11 1   
    17    9   10 1   
    18    9   29 1   
    19   10   29 1   
    20   10   30 1   
    21   11   12 1   
    22   11   44 1   
    23   12   13 1   
    24   12   45 1   
    25   13   18 1   
    26   14   15 1   
    27   14   27 1   
    28   14   31 1   
    29   14   32 1   
    30   15   17 1   
    31   15   31 1   
    32   15   32 1   
    33   15   33 1   
    34   15   34 1   
    35   16   17 1   
    36   16   25 1   
    37   17   34 1   
    38   17   35 1   
    39   18   19 1   
    40   18   24 1   
    41   18   36 1   
    42   18   37 1   
    43   19   20 1   
    44   19   21 1   
    45   19   37 1   
    46   19   38 1   
    47   19   39 1   
    48   20   38 1   
    49   21   22 1   
    50   21   23 1   
    51   21   39 1   
    52   21   40 1   
    53   21   41 1   
    54   22   40 1   
    55   23   24 1   
    56   23   25 1   
    57   23   41 1   
    58   23   42 1   
    59   25   42 1   
    60   25   43 1   
    61   31   32 1   
@<TRIPOS>SUBSTRUCTURE
     1 SX0         1 TEMP              0 ****  ****    0 ROOT
