@<TRIPOS>MOLECULE
SX0
   46    48     1     0     0
SMALL
bcc


@<TRIPOS>ATOM
      1 C          -7.1520    1.7720   -0.2290 c         1 SX0      0.890600
      2 N          -6.5610   -0.6410   -0.7820 n3        1 SX0     -0.895800
      3 OXT        -8.0120    1.6900   -1.1510 o         1 SX0     -0.838300
      4 N1          5.5050   -0.3340   -0.8610 nb        1 SX0     -0.802000
      5 C2          5.0100   -1.5830   -0.6490 ca        1 SX0      0.677900
      6 N3          3.7320   -1.9970   -0.5160 nb        1 SX0     -0.765000
      7 C4          2.8260   -0.9710   -0.6180 ca        1 SX0      0.460800
      8 C5          3.1970    0.4140   -0.8450 ca        1 SX0     -0.348400
      9 C6          4.5960    0.6930   -0.9740 ca        1 SX0      0.743200
     10 N6          5.0320    1.9680   -1.2430 nh        1 SX0     -0.964500
     11 C7          1.9690    1.1690   -0.8800 cc        1 SX0     -0.114500
     12 C8          0.9200    0.2650   -0.6850 cd        1 SX0     -0.042100
     13 N9          1.4280   -1.0270   -0.5200 na        1 SX0     -0.186100
     14 CA         -6.2930    0.5000    0.0850 c3        1 SX0      0.018500
     15 CB         -4.8180    0.9140    0.0960 c3        1 SX0     -0.061400
     16 SD         -2.2840    0.4600    0.7560 ss        1 SX0     -0.321200
     17 CG         -3.9480   -0.1700    0.6750 c3        1 SX0      0.019700
     18 C1'         0.6790   -2.2620   -0.3860 c3        1 SX0      0.213800
     19 C2'         0.9950   -3.0510    0.9290 c3        1 SX0      0.080100
     20 O2'         1.3600   -4.3740    0.6030 oh        1 SX0     -0.591800
     21 C3'        -0.3420   -3.0870    1.7060 c3        1 SX0      0.126100
     22 O3'        -0.8820   -4.3790    1.8310 oh        1 SX0     -0.574800
     23 C4'        -1.2800   -2.1410    0.9160 c3        1 SX0      0.095100
     24 O4'        -0.7230   -2.0110   -0.4030 os        1 SX0     -0.382600
     25 C5'        -1.4090   -0.8030    1.6170 c3        1 SX0     -0.047300
     26 O          -6.9480    2.7970    0.4770 o         1 SX0     -0.838300
     27 HN         -7.5610   -0.7080   -0.8800 hn        1 SX0      0.333800
     28 HNA        -6.2040   -0.4340   -1.6980 hn        1 SX0      0.333800
     29 HN6         5.9990    2.1760   -1.2190 hn        1 SX0      0.440800
     30 HN6A        4.3770    2.7100   -1.1860 hn        1 SX0      0.440800
     31 HA         -6.5750    0.1800    1.1310 h1        1 SX0      0.040700
     32 HB         -4.4810    1.1640   -0.9440 hc        1 SX0      0.064700
     33 HBA        -4.7470    1.8520    0.7120 hc        1 SX0      0.064700
     34 HG         -4.2940   -0.4450    1.7000 h1        1 SX0      0.059200
     35 HGA        -3.9740   -1.0860    0.0390 h1        1 SX0      0.059200
     36 H1'         0.8870   -2.9010   -1.2980 h2        1 SX0      0.101700
     37 H2'         1.7970   -2.5600    1.5400 h1        1 SX0      0.075700
     38 HO2'        2.2570   -4.3320    0.2420 ho        1 SX0      0.428000
     39 H3'        -0.2010   -2.7350    2.7630 h1        1 SX0      0.093700
     40 HO3'       -0.8350   -4.8050    0.9640 ho        1 SX0      0.420000
     41 H4'        -2.2910   -2.6060    0.7470 h1        1 SX0      0.107700
     42 H5'        -0.3930   -0.3670    1.7940 h1        1 SX0      0.073200
     43 H5'A       -1.8920   -0.9880    2.6100 h1        1 SX0      0.073200
     44 H2          5.7810   -2.3790   -0.5720 h5        1 SX0      0.042100
     45 BR          1.7870    2.9780   -1.1290 br        1 SX0     -0.034700
     46 H8         -0.1710    0.4370   -0.6420 h4        1 SX0      0.231000
@<TRIPOS>BOND
     1    1    3 1   
     2    1   14 1   
     3    1   26 1   
     4    2   14 1   
     5    2   27 1   
     6    2   28 1   
     7    4    5 ar  
     8    4    9 ar  
     9    5    6 ar  
    10    5   44 1   
    11    6    7 ar  
    12    7    8 ar  
    13    7   13 1   
    14    8    9 ar  
    15    8   11 1   
    16    9   10 1   
    17   10   29 1   
    18   10   30 1   
    19   11   12 2   
    20   11   45 1   
    21   12   13 1   
    22   12   46 1   
    23   13   18 1   
    24   14   15 1   
    25   14   31 1   
    26   15   17 1   
    27   15   32 1   
    28   15   33 1   
    29   16   17 1   
    30   16   25 1   
    31   17   34 1   
    32   17   35 1   
    33   18   19 1   
    34   18   24 1   
    35   18   36 1   
    36   19   20 1   
    37   19   21 1   
    38   19   37 1   
    39   20   38 1   
    40   21   22 1   
    41   21   23 1   
    42   21   39 1   
    43   22   40 1   
    44   23   24 1   
    45   23   25 1   
    46   23   41 1   
    47   25   42 1   
    48   25   43 1   
@<TRIPOS>SUBSTRUCTURE
     1 SX0         1 TEMP              0 ****  ****    0 ROOT
