@<TRIPOS>MOLECULE
SX1
   17    17     1     0     0
SMALL
bcc


@<TRIPOS>ATOM
      1 O1          0.7170   -1.0010    0.3590 o         1 SX1     -0.479000
      2 C7          1.5500   -0.1630    0.0140 c         1 SX1      0.641700
      3 O2          1.8300    0.7560    0.9900 oh        1 SX1     -0.588100
      4 C6          2.2420   -0.0710   -1.2840 ca        1 SX1     -0.253600
      5 C1          3.6590   -0.0220   -1.3610 ca        1 SX1      0.205600
      6 N1          4.4440    0.0210   -0.2180 nh        1 SX1     -0.843200
      7 C5          1.4680   -0.0680   -2.4470 ca        1 SX1     -0.009000
      8 C4          2.0700    0.0170   -3.7000 ca        1 SX1     -0.086900
      9 BR1         1.0280    0.0410   -5.2500 br        1 SX1     -0.074100
     10 C3          3.4670    0.0790   -3.7890 ca        1 SX1     -0.036000
     11 C2          4.2510    0.0520   -2.6480 ca        1 SX1     -0.207000
     12 HN1         4.0330   -0.3340    0.6170 hn        1 SX1      0.417300
     13 HN1A        2.3680    1.4750    0.6270 ho        1 SX1      0.437000
     14 H5          0.3700   -0.1390   -2.3510 ha        1 SX1      0.164000
     15 H3          3.9560    0.1440   -4.7760 ha        1 SX1      0.151000
     16 H2          5.3470    0.0920   -2.7450 ha        1 SX1      0.144000
     17 H13         5.4060   -0.1960   -0.3410 hn        1 SX1      0.417300
@<TRIPOS>BOND
     1    1    2 2   
     2    2    3 1   
     3    2    4 1   
     4    3   13 1   
     5    4    5 ar  
     6    4    7 ar  
     7    5    6 1   
     8    5   11 ar  
     9    6   12 1   
    10    6   17 1   
    11    7    8 ar  
    12    7   14 1   
    13    8    9 1   
    14    8   10 ar  
    15   10   11 ar  
    16   10   15 1   
    17   11   16 1   
@<TRIPOS>SUBSTRUCTURE
     1 SX1         1 TEMP              0 ****  ****    0 ROOT
