@<TRIPOS>MOLECULE
SX1
   16    16     1     0     0
SMALL
bcc


@<TRIPOS>ATOM
      1 O1          0.0610    0.3130   -0.0430 o         1 SX1     -0.832300
      2 C7          1.2820    0.0080    0.0270 c         1 SX1      0.916200
      3 O2          1.8520   -0.3540    1.1010 o         1 SX1     -0.832300
      4 C6          2.0980    0.0460   -1.2590 ca        1 SX1     -0.181600
      5 C1          3.5080    0.2170   -1.2740 ca        1 SX1      0.175600
      6 N1          4.2230    0.5430   -0.1180 nh        1 SX1     -0.821200
      7 C5          1.4160   -0.1330   -2.4600 ca        1 SX1     -0.049000
      8 C4          2.0990   -0.1880   -3.6780 ca        1 SX1     -0.084900
      9 BR1         1.1590   -0.4410   -5.2870 br        1 SX1     -0.161100
     10 C3          3.4870   -0.0630   -3.6990 ca        1 SX1     -0.092000
     11 C2          4.1860    0.1360   -2.5160 ca        1 SX1     -0.225000
     12 HN1         5.1180    0.1060   -0.0750 hn        1 SX1      0.398800
     13 HN1A        3.6890    0.4200    0.7260 hn        1 SX1      0.398800
     14 H5          0.3170   -0.2300   -2.4120 ha        1 SX1      0.165000
     15 H3          4.0400   -0.1180   -4.6490 ha        1 SX1      0.115000
     16 H2          5.2800    0.2380   -2.5530 ha        1 SX1      0.112000
@<TRIPOS>BOND
     1    1    2 1   
     2    2    3 1   
     3    2    4 1   
     4    4    5 ar  
     5    4    7 ar  
     6    5    6 1   
     7    5   11 ar  
     8    6   12 1   
     9    6   13 1   
    10    7    8 ar  
    11    7   14 1   
    12    8    9 1   
    13    8   10 ar  
    14   10   11 ar  
    15   10   15 1   
    16   11   16 1   
@<TRIPOS>SUBSTRUCTURE
     1 SX1         1 TEMP              0 ****  ****    0 ROOT
