@<TRIPOS>MOLECULE
SX1
   16    16     1     0     0
SMALL
bcc


@<TRIPOS>ATOM
      1 O1          0.0590    0.3320   -0.0480 o         1 SX1     -0.832300
      2 C7          1.2780    0.0190    0.0250 c         1 SX1      0.916200
      3 O2          1.8430   -0.3440    1.1010 o         1 SX1     -0.832300
      4 C6          2.0960    0.0480   -1.2600 ca        1 SX1     -0.181600
      5 C1          3.5080    0.2100   -1.2720 ca        1 SX1      0.175600
      6 N1          4.2230    0.5350   -0.1160 nv        1 SX1     -0.821200
      7 C5          1.4150   -0.1310   -2.4610 ca        1 SX1     -0.049000
      8 C4          2.1000   -0.1950   -3.6780 ca        1 SX1     -0.084900
      9 Br1         1.1620   -0.4470   -5.2870 br        1 SX1     -0.161100
     10 C3          3.4900   -0.0780   -3.6970 ca        1 SX1     -0.092000
     11 C2          4.1880    0.1200   -2.5130 ca        1 SX1     -0.225000
     12 HN1         5.1140    0.0930   -0.0700 hn        1 SX1      0.398800
     13 HN1A        3.6860    0.4180    0.7280 hn        1 SX1      0.398800
     14 H5          0.3160   -0.2210   -2.4150 ha        1 SX1      0.165000
     15 H3          4.0440   -0.1400   -4.6450 ha        1 SX1      0.115000
     16 H2          5.2820    0.2150   -2.5480 ha        1 SX1      0.112000
@<TRIPOS>BOND
     1    1    2 1   
     2    2    3 1   
     3    2    4 1   
     4    4    5 ar  
     5    4    7 ar  
     6    5    6 1   
     7    5   11 ar  
     8    6   12 1   
     9    6   13 1   
    10    7    8 ar  
    11    7   14 1   
    12    8    9 1   
    13    8   10 ar  
    14   10   11 ar  
    15   10   15 1   
    16   11   16 1   
@<TRIPOS>SUBSTRUCTURE
     1 SX1         1 TEMP              0 ****  ****    0 ROOT
