@<TRIPOS>MOLECULE
SX1
   16    16     1     0     0
SMALL
bcc


@<TRIPOS>ATOM
      1 O1          2.3520    2.3140    0.3800 o         1 SX1     -0.832300
      2 C7          2.6180    1.1510   -0.0270 c         1 SX1      0.916200
      3 O2          3.7450    0.8180   -0.5030 o         1 SX1     -0.832300
      4 C6          1.5080    0.1090    0.0270 ca        1 SX1     -0.181600
      5 C1          1.7620   -1.2880    0.0840 ca        1 SX1      0.175600
      6 N1          3.0500   -1.7950    0.2760 nh        1 SX1     -0.821200
      7 C5          0.1930    0.5660   -0.0190 ca        1 SX1     -0.049000
      8 C4         -0.8820   -0.3270   -0.0510 ca        1 SX1     -0.084900
      9 BR1        -2.6490    0.3110   -0.1240 br        1 SX1     -0.161100
     10 C3         -0.6410   -1.7000   -0.0380 ca        1 SX1     -0.092000
     11 C2          0.6610   -2.1780    0.0270 ca        1 SX1     -0.225000
     12 HN1         3.7710   -1.1050    0.1430 hn        1 SX1      0.398800
     13 HN1A        3.2200   -2.6340   -0.2340 hn        1 SX1      0.398800
     14 H5          0.0330    1.6590   -0.0300 ha        1 SX1      0.165000
     15 H3         -1.4760   -2.4160   -0.0770 ha        1 SX1      0.115000
     16 H2          0.8310   -3.2640    0.0420 ha        1 SX1      0.112000
@<TRIPOS>BOND
     1    1    2 1   
     2    2    3 1   
     3    2    4 1   
     4    4    5 ar  
     5    4    7 ar  
     6    5    6 1   
     7    5   11 ar  
     8    6   12 1   
     9    6   13 1   
    10    7    8 ar  
    11    7   14 1   
    12    8    9 1   
    13    8   10 ar  
    14   10   11 ar  
    15   10   15 1   
    16   11   16 1   
@<TRIPOS>SUBSTRUCTURE
     1 SX1         1 TEMP              0 ****  ****    0 ROOT
