@<TRIPOS>MOLECULE
SX2
   23    23     1     0     0
SMALL
bcc


@<TRIPOS>ATOM
      1 Br1         0.5160    0.3910   -1.2580 br        1 SX2     -0.117100
      2 C8          2.2310    0.2430   -0.5410 ca        1 SX2     -0.224200
      3 C9          2.4510   -0.4300    0.6750 ca        1 SX2      0.457200
      4 N2          3.6460   -0.5810    1.2580 nb        1 SX2     -0.696000
      5 C7          3.3440    0.7950   -1.1900 ca        1 SX2     -0.044000
      6 C6          4.5990    0.6640   -0.6230 ca        1 SX2     -0.302300
      7 C5          4.7420   -0.0400    0.6270 ca        1 SX2      0.582200
      8 N1          6.0240   -0.1540    1.1470 ns        1 SX2     -0.556400
      9 C4          6.4290   -0.7090    2.3610 c         1 SX2      0.666100
     10 O3          5.6520   -1.1990    3.1990 o         1 SX2     -0.592100
     11 C3          7.9330   -0.7030    2.6040 c3        1 SX2     -0.131400
     12 C2          8.5760    0.6560    2.4530 c3        1 SX2     -0.206400
     13 C1          9.2000    0.8680    1.0620 c         1 SX2      0.907600
     14 O2         10.4500    0.9980    0.9850 o         1 SX2     -0.838300
     15 O1          8.4310    0.9210    0.0500 o         1 SX2     -0.838300
     16 H9          1.6100   -0.8860    1.2310 h4        1 SX2      0.020100
     17 H7          3.2280    1.3330   -2.1430 ha        1 SX2      0.137000
     18 H6          5.4860    1.0910   -1.1150 ha        1 SX2      0.172000
     19 HN1         6.7670    0.2700    0.5830 hn        1 SX2      0.399500
     20 H3          8.4050   -1.4290    1.8900 hc        1 SX2      0.062200
     21 H3A         8.0880   -1.0910    3.6460 hc        1 SX2      0.062200
     22 H2          9.3910    0.7570    3.2160 hc        1 SX2      0.040200
     23 H2A         7.8340    1.4720    2.6380 hc        1 SX2      0.040200
@<TRIPOS>BOND
     1    1    2 1   
     2    2    3 ar  
     3    2    5 ar  
     4    3    4 ar  
     5    3   16 1   
     6    4    7 ar  
     7    5    6 ar  
     8    5   17 1   
     9    6    7 ar  
    10    6   18 1   
    11    7    8 1   
    12    8    9 1   
    13    8   19 1   
    14    9   10 2   
    15    9   11 1   
    16   11   12 1   
    17   11   20 1   
    18   11   21 1   
    19   12   13 1   
    20   12   22 1   
    21   12   23 1   
    22   13   14 1   
    23   13   15 1   
@<TRIPOS>SUBSTRUCTURE
     1 SX2         1 TEMP              0 ****  ****    0 ROOT
