@<TRIPOS>MOLECULE
SX2
   23    23     1     0     0
SMALL
bcc


@<TRIPOS>ATOM
      1 BR1        -4.4310   -0.8260   -0.4890 br        1 SX2     -0.117100
      2 C8         -2.5870   -0.6830   -0.2610 ca        1 SX2     -0.224200
      3 C9         -2.0390    0.2360    0.6520 ca        1 SX2      0.457200
      4 N2         -0.7310    0.4020    0.8760 nb        1 SX2     -0.696000
      5 C7         -1.6960   -1.4840   -0.9900 ca        1 SX2     -0.044000
      6 C6         -0.3350   -1.3450   -0.7910 ca        1 SX2     -0.302300
      7 C5          0.1480   -0.3800    0.1630 ca        1 SX2      0.582200
      8 N1          1.5230   -0.2890    0.3330 n         1 SX2     -0.556400
      9 C4          2.2490    0.6030    1.1230 c         1 SX2      0.666100
     10 O3          1.7370    1.4980    1.8180 o         1 SX2     -0.592100
     11 C3          3.7590    0.3980    1.1060 c3        1 SX2     -0.131400
     12 C2          4.3620    0.3720   -0.2790 c3        1 SX2     -0.206400
     13 C1          4.5610   -1.0560   -0.8160 c         1 SX2      0.907600
     14 O2          5.7370   -1.4600   -1.0100 o         1 SX2     -0.838300
     15 O1          3.5320   -1.7640   -1.0600 o         1 SX2     -0.838300
     16 H9         -2.6930    0.8940    1.2560 h4        1 SX2      0.020100
     17 H7         -2.0710   -2.2200   -1.7180 ha        1 SX2      0.137000
     18 H6          0.3820   -1.9640   -1.3550 ha        1 SX2      0.172000
     19 HN1         2.0800   -0.9340   -0.2360 hn        1 SX2      0.399500
     20 H3          4.2000    1.2380    1.7060 hc        1 SX2      0.062200
     21 H3A         3.9870   -0.5640    1.6380 hc        1 SX2      0.062200
     22 H2          3.7250    0.9390   -1.0020 hc        1 SX2      0.040200
     23 H2A         5.3650    0.8710   -0.2450 hc        1 SX2      0.040200
@<TRIPOS>BOND
     1    1    2 1   
     2    2    3 ar  
     3    2    5 ar  
     4    3    4 ar  
     5    3   16 1   
     6    4    7 ar  
     7    5    6 ar  
     8    5   17 1   
     9    6    7 ar  
    10    6   18 1   
    11    7    8 1   
    12    8    9 1   
    13    8   19 1   
    14    9   10 2   
    15    9   11 1   
    16   11   12 1   
    17   11   20 1   
    18   11   21 1   
    19   12   13 1   
    20   12   22 1   
    21   12   23 1   
    22   13   14 1   
    23   13   15 1   
@<TRIPOS>SUBSTRUCTURE
     1 SX2         1 TEMP              0 ****  ****    0 ROOT
