@<TRIPOS>MOLECULE
SX2
   23    23     1     0     0
SMALL
bcc


@<TRIPOS>ATOM
      1 BR1         0.5560    0.1590   -1.3640 br        1 SX2     -0.117100
      2 C8          2.2590    0.0850   -0.6080 ca        1 SX2     -0.224200
      3 C9          2.4650   -0.5000    0.6550 ca        1 SX2      0.457200
      4 N2          3.6510   -0.5940    1.2670 nb        1 SX2     -0.696000
      5 C7          3.3760    0.6080   -1.2730 ca        1 SX2     -0.044000
      6 C6          4.6220    0.5340   -0.6770 ca        1 SX2     -0.302300
      7 C5          4.7520   -0.0810    0.6200 ca        1 SX2      0.582200
      8 N1          6.0250   -0.1400    1.1690 n         1 SX2     -0.556400
      9 C4          6.4150   -0.6060    2.4250 c         1 SX2      0.666100
     10 O3          5.6300   -1.0500    3.2800 o         1 SX2     -0.592100
     11 C3          7.9140   -0.5610    2.6940 c3        1 SX2     -0.131400
     12 C2          8.5410    0.7950    2.4620 c3        1 SX2     -0.206400
     13 C1          9.1880    0.9220    1.0720 c         1 SX2      0.907600
     14 O2         10.4370    1.0670    1.0080 o         1 SX2     -0.838300
     15 O1          8.4370    0.8940    0.0440 o         1 SX2     -0.838300
     16 H9          1.6210   -0.9300    1.2260 h4        1 SX2      0.020100
     17 H7          3.2710    1.0770   -2.2630 ha        1 SX2      0.137000
     18 H6          5.5120    0.9400   -1.1820 ha        1 SX2      0.172000
     19 HN1         6.7720    0.2550    0.5910 hn        1 SX2      0.399500
     20 H3          8.0560   -0.8750    3.7610 hc        1 SX2      0.062200
     21 H3A         8.4100   -1.3260    2.0390 hc        1 SX2      0.062200
     22 H2          7.7840    1.6090    2.5780 hc        1 SX2      0.040200
     23 H2A         9.3400    0.9590    3.2300 hc        1 SX2      0.040200
@<TRIPOS>BOND
     1    1    2 1   
     2    2    3 ar  
     3    2    5 ar  
     4    3    4 ar  
     5    3   16 1   
     6    4    7 ar  
     7    5    6 ar  
     8    5   17 1   
     9    6    7 ar  
    10    6   18 1   
    11    7    8 1   
    12    8    9 1   
    13    8   19 1   
    14    9   10 2   
    15    9   11 1   
    16   11   12 1   
    17   11   20 1   
    18   11   21 1   
    19   12   13 1   
    20   12   22 1   
    21   12   23 1   
    22   13   14 1   
    23   13   15 1   
@<TRIPOS>SUBSTRUCTURE
     1 SX2         1 TEMP              0 ****  ****    0 ROOT
