@<TRIPOS>MOLECULE
SX2
   24    24     1     0     0
SMALL
bcc


@<TRIPOS>ATOM
      1 BR1         0.2850   -0.3010   -1.4870 br        1 SX2     -0.061100
      2 C8          1.8790   -0.1300   -0.5430 ca        1 SX2     -0.181200
      3 C9          1.8700    0.1280    0.8450 ca        1 SX2      0.456200
      4 N2          2.9700    0.2610    1.5900 nb        1 SX2     -0.713000
      5 C7          3.1200   -0.2500   -1.1720 ca        1 SX2     -0.044000
      6 C6          4.2910   -0.1150   -0.4280 ca        1 SX2     -0.258300
      7 C5          4.1910    0.1420    0.9660 ca        1 SX2      0.536200
      8 N1          5.3230    0.3080    1.7920 n         1 SX2     -0.541400
      9 C4          6.6400    0.0270    1.4620 c         1 SX2      0.673100
     10 O3          6.9910   -0.3810    0.3380 o         1 SX2     -0.613100
     11 C3          7.6570    0.2560    2.5720 c3        1 SX2     -0.153400
     12 C2          9.0540   -0.1440    2.1480 c3        1 SX2     -0.171400
     13 C1          9.7200    0.9240    1.3270 c         1 SX2      0.625100
     14 O2         10.4520    1.8150    1.7590 o         1 SX2     -0.496000
     15 O1          9.5540    0.9450   -0.0230 oh        1 SX2     -0.580100
     16 H9          0.9160    0.2350    1.3990 h4        1 SX2      0.039100
     17 H7          3.1890   -0.4490   -2.2540 ha        1 SX2      0.157000
     18 H6          5.2690   -0.2090   -0.9250 ha        1 SX2      0.185000
     19 HN1         8.9200    0.2610   -0.2960 ho        1 SX2      0.452000
     20 H3          7.3610   -0.3550    3.4680 hc        1 SX2      0.086700
     21 H3A         7.6420    1.3390    2.8720 hc        1 SX2      0.086700
     22 H2          9.6780   -0.3110    3.0670 hc        1 SX2      0.088700
     23 H2A         9.0230   -1.1030    1.5650 hc        1 SX2      0.088700
     24 H12         5.1430    0.5870    2.7340 hn        1 SX2      0.337500
@<TRIPOS>BOND
     1    1    2 1   
     2    2    3 ar  
     3    2    5 ar  
     4    3    4 ar  
     5    3   16 1   
     6    4    7 ar  
     7    5    6 ar  
     8    5   17 1   
     9    6    7 ar  
    10    6   18 1   
    11    7    8 1   
    12    8    9 1   
    13    8   24 1   
    14    9   10 2   
    15    9   11 1   
    16   11   12 1   
    17   11   20 1   
    18   11   21 1   
    19   12   13 1   
    20   12   22 1   
    21   12   23 1   
    22   13   14 2   
    23   13   15 1   
    24   15   19 1   
@<TRIPOS>SUBSTRUCTURE
     1 SX2         1 TEMP              0 ****  ****    0 ROOT
