@<TRIPOS>MOLECULE
SX2
   23    21     1     0     0
SMALL
bcc


@<TRIPOS>ATOM
      1 BR1        -5.9270   -0.6670   -0.9540 br        1 SX2      0.023000
      2 C8         -4.0350   -0.3980   -0.9090 c2        1 SX2     -0.299000
      3 C9         -3.3010   -0.8130    0.1910 c2        1 SX2     -0.008000
      4 N2         -1.9560   -0.6020    0.2330 n1        1 SX2     -0.170000
      5 C7         -3.4090    0.2220   -1.9520 c1        1 SX2     -0.044000
      6 C6         -2.0610    0.4330   -1.9090 c1        1 SX2     -0.237000
      7 C5         -1.3300    0.0170   -0.8080 c1        1 SX2      0.174000
      8 N1          0.0790    0.1840   -0.7890 n         1 SX2     -0.323000
      9 C4          0.8280   -0.2400    0.3390 c2        1 SX2      0.310000
     10 O3          0.2630   -0.7460    1.2880 o         1 SX2     -0.353000
     11 C3          2.3360   -0.1170    0.3340 c3        1 SX2     -0.160000
     12 C2          2.8050    0.3770    1.6830 c3        1 SX2     -0.235000
     13 C1          4.3170    0.3550    1.7300 c2        1 SX2      0.327000
     14 O2          4.9740    1.3430    1.3100 o         1 SX2     -0.573000
     15 O1          4.9190   -0.6650    2.1570 o         1 SX2     -0.573000
     16 H9         -3.7490   -1.2560    0.9370 h4        1 SX2      0.157000
     17 H7         -3.9250    0.5140   -2.7270 ha        1 SX2      0.137000
     18 H6         -1.6120    0.8760   -2.6540 ha        1 SX2      0.172000
     19 HN1         0.5020    0.5660   -1.5000 hn        1 SX2      0.313000
     20 H3          2.6090    0.5170   -0.3590 hc        1 SX2      0.101500
     21 H3A         2.7340   -0.9920    0.1500 hc        1 SX2      0.101500
     22 H2          2.4880    1.2920    1.8240 hc        1 SX2      0.079500
     23 H2A         2.4490   -0.2030    2.3850 hc        1 SX2      0.079500
@<TRIPOS>BOND
     1    1    2 1   
     2    2    3 1   
     3    2    5 1   
     4    3    4 1   
     5    3   16 1   
     6    5   17 1   
     7    6    7 1   
     8    6   18 1   
     9    7    8 1   
    10    8    9 1   
    11    8   19 1   
    12    9   10 1   
    13    9   11 1   
    14   11   12 1   
    15   11   20 1   
    16   11   21 1   
    17   12   13 1   
    18   12   22 1   
    19   12   23 1   
    20   13   14 1   
    21   13   15 1   
@<TRIPOS>SUBSTRUCTURE
     1 SX2         1 TEMP              0 ****  ****    0 ROOT
