@<TRIPOS>MOLECULE
SX3
   38    39     1     0     0
SMALL
bcc


@<TRIPOS>ATOM
      1 BR1         0.0040    0.0720   -0.0630 br        1 SX3      0.011900
      2 C11         1.8670    0.0590   -0.1060 ca        1 SX3      0.003100
      3 C10         2.5940   -0.0670    1.0860 ca        1 SX3     -0.065000
      4 C12         2.5460    0.1750   -1.3220 ca        1 SX3     -0.069000
      5 C13         3.9390    0.1970   -1.3530 ca        1 SX3     -0.106000
      6 C14         4.6610    0.0870   -0.1550 ca        1 SX3     -0.019400
      7 N2          6.1200    0.1890   -0.1840 n4        1 SX3     -0.715000
      8 C9          3.9890   -0.0840    1.0770 ca        1 SX3     -0.096600
      9 C8          4.7720   -0.1630    2.3570 c         1 SX3      0.653700
     10 O1          5.7760    0.5920    2.4710 o         1 SX3     -0.665100
     11 N1          4.3880   -0.9920    3.3730 n         1 SX3     -0.416800
     12 C6          3.4500   -2.0860    3.2190 c3        1 SX3      0.076500
     13 C4          4.0060   -3.4450    3.6810 c3        1 SX3     -0.078700
     14 C5          2.8970   -4.4730    3.6340 c3        1 SX3     -0.096100
     15 C3          4.5900   -3.3380    5.0790 c3        1 SX3     -0.082400
     16 C7          5.0540   -0.9110    4.6670 c3        1 SX3      0.076500
     17 C2          5.6440   -2.2460    5.1410 c3        1 SX3     -0.078700
     18 C1          6.1730   -2.0830    6.5490 c3        1 SX3     -0.096100
     19 H10         2.0570   -0.1410    2.0510 ha        1 SX3      0.187000
     20 H12         1.9870    0.2630   -2.2720 ha        1 SX3      0.187000
     21 H13         4.4490    0.3130   -2.3250 ha        1 SX3      0.165000
     22 HN2         6.4200    0.8420    0.5720 hn        1 SX3      0.475800
     23 HN2A        6.5370   -0.7290   -0.0010 hn        1 SX3      0.475800
     24 H6          3.1410   -2.1890    2.1410 h1        1 SX3      0.068950
     25 H6A         2.5340   -1.8410    3.8320 h1        1 SX3      0.068950
     26 H4          4.8230   -3.7590    2.9730 hc        1 SX3      0.053200
     27 H5          2.0690   -4.1980    4.3310 hc        1 SX3      0.048367
     28 H5A         2.4810   -4.5550    2.6010 hc        1 SX3      0.048367
     29 H5B         3.2940   -5.4720    3.9370 hc        1 SX3      0.048367
     30 H3          5.0470   -4.3200    5.3690 hc        1 SX3      0.061200
     31 H3A         3.7730   -3.1170    5.8150 hc        1 SX3      0.061200
     32 H7          5.8730   -0.1380    4.6240 h1        1 SX3      0.068950
     33 H7A         4.2800   -0.5670    5.4120 h1        1 SX3      0.068950
     34 H2          6.4990   -2.5280    4.4640 hc        1 SX3      0.053200
     35 H1          6.9530   -1.2840    6.5830 hc        1 SX3      0.048367
     36 H1A         5.3510   -1.8070    7.2530 hc        1 SX3      0.048367
     37 H1B         6.6290   -3.0410    6.8980 hc        1 SX3      0.048367
     38 H23         6.4360    0.5370   -1.0930 hn        1 SX3      0.475800
@<TRIPOS>BOND
     1    1    2 1   
     2    2    3 ar  
     3    2    4 ar  
     4    3    8 ar  
     5    3   19 1   
     6    4    5 ar  
     7    4   20 1   
     8    5    6 ar  
     9    5   21 1   
    10    6    7 1   
    11    6    8 ar  
    12    7   22 1   
    13    7   23 1   
    14    7   38 1   
    15    8    9 1   
    16    9   10 2   
    17    9   11 1   
    18   11   12 1   
    19   11   16 1   
    20   12   13 1   
    21   12   24 1   
    22   12   25 1   
    23   13   14 1   
    24   13   15 1   
    25   13   26 1   
    26   14   27 1   
    27   14   28 1   
    28   14   29 1   
    29   15   17 1   
    30   15   30 1   
    31   15   31 1   
    32   16   17 1   
    33   16   32 1   
    34   16   33 1   
    35   17   18 1   
    36   17   34 1   
    37   18   35 1   
    38   18   36 1   
    39   18   37 1   
@<TRIPOS>SUBSTRUCTURE
     1 SX3         1 TEMP              0 ****  ****    0 ROOT
