@<TRIPOS>MOLECULE
SX3
   37    38     1     0     0
SMALL
bcc


@<TRIPOS>ATOM
      1 Br1         0.0380    0.5470   -0.1010 br        1 SX3     -0.088100
      2 C11         1.8850    0.2580   -0.0730 ca        1 SX3     -0.092900
      3 C10         2.5670    0.1810    1.1390 ca        1 SX3     -0.030000
      4 C12         2.5950    0.1180   -1.2730 ca        1 SX3     -0.042000
      5 C13         3.9640   -0.0840   -1.2620 ca        1 SX3     -0.214000
      6 C14         4.6820   -0.1600   -0.0380 ca        1 SX3      0.219600
      7 N2          6.0410   -0.4280   -0.0370 nv        1 SX3     -0.831200
      8 C9          3.9460   -0.0350    1.1710 ca        1 SX3     -0.212600
      9 C8          4.6650   -0.0500    2.4780 c         1 SX3      0.677700
     10 O1          5.6620    0.6860    2.6550 o         1 SX3     -0.625100
     11 N1          4.1700   -0.8280    3.5220 n         1 SX3     -0.446800
     12 C6          3.3550   -1.9990    3.2850 c3        1 SX3      0.081500
     13 C4          4.0820   -3.3300    3.5470 c3        1 SX3     -0.090200
     14 C5          3.1030   -4.4740    3.4080 c3        1 SX3     -0.089600
     15 C3          4.7160   -3.3230    4.9280 c3        1 SX3     -0.074400
     16 C7          4.8570   -0.8230    4.7990 c3        1 SX3      0.081500
     17 C2          5.6260   -2.1180    5.1030 c3        1 SX3     -0.090200
     18 C1          6.1800   -2.0590    6.5090 c3        1 SX3     -0.089600
     19 H10         2.0220    0.2990    2.0910 ha        1 SX3      0.155000
     20 H12         2.0660    0.1750   -2.2380 ha        1 SX3      0.147000
     21 H13         4.5020   -0.1840   -2.2170 ha        1 SX3      0.140000
     22 HN2         6.5170   -0.2430   -0.8900 hn        1 SX3      0.418300
     23 HN2A        6.5400   -0.1670    0.7870 hn        1 SX3      0.418300
     24 H6          2.9730   -2.0040    2.2260 h1        1 SX3      0.061950
     25 H6A         2.4660   -1.9340    3.9780 h1        1 SX3      0.061950
     26 H4          4.8960   -3.4540    2.7790 hc        1 SX3      0.057700
     27 H5          2.6570   -4.4820    2.3840 hc        1 SX3      0.037700
     28 H5A         3.6240   -5.4470    3.5770 hc        1 SX3      0.037700
     29 H5B         2.2770   -4.3820    4.1540 hc        1 SX3      0.037700
     30 H3          5.3050   -4.2650    5.0770 hc        1 SX3      0.044200
     31 H3A         3.9110   -3.3020    5.7100 hc        1 SX3      0.044200
     32 H7          4.0710   -0.6750    5.5950 h1        1 SX3      0.061950
     33 H7A         5.5710    0.0470    4.8390 h1        1 SX3      0.061950
     34 H2          6.4840   -2.2060    4.3790 hc        1 SX3      0.057700
     35 H1          5.3550   -1.9670    7.2570 hc        1 SX3      0.037700
     36 H1A         6.7580   -2.9870    6.7330 hc        1 SX3      0.037700
     37 H1B         6.8590   -1.1800    6.6210 hc        1 SX3      0.037700
@<TRIPOS>BOND
     1    1    2 1   
     2    2    3 ar  
     3    2    4 ar  
     4    3    8 ar  
     5    3   19 1   
     6    4    5 ar  
     7    4   20 1   
     8    5    6 ar  
     9    5   21 1   
    10    6    7 1   
    11    6    8 ar  
    12    7   22 1   
    13    7   23 1   
    14    8    9 1   
    15    9   10 2   
    16    9   11 1   
    17   11   12 1   
    18   11   16 1   
    19   12   13 1   
    20   12   24 1   
    21   12   25 1   
    22   13   14 1   
    23   13   15 1   
    24   13   26 1   
    25   14   27 1   
    26   14   28 1   
    27   14   29 1   
    28   15   17 1   
    29   15   30 1   
    30   15   31 1   
    31   16   17 1   
    32   16   32 1   
    33   16   33 1   
    34   17   18 1   
    35   17   34 1   
    36   18   35 1   
    37   18   36 1   
    38   18   37 1   
@<TRIPOS>SUBSTRUCTURE
     1 SX3         1 TEMP              0 ****  ****    0 ROOT
