@<TRIPOS>MOLECULE
SX3
   37    38     1     0     0
SMALL
bcc


@<TRIPOS>ATOM
      1 BR1         0.0300    0.5300   -0.1030 br        1 SX3     -0.088100
      2 C11         1.8780    0.2510   -0.0750 ca        1 SX3     -0.092900
      3 C10         2.5600    0.1770    1.1380 ca        1 SX3     -0.030000
      4 C12         2.5890    0.1170   -1.2740 ca        1 SX3     -0.042000
      5 C13         3.9600   -0.0770   -1.2620 ca        1 SX3     -0.214000
      6 C14         4.6780   -0.1510   -0.0380 ca        1 SX3      0.219600
      7 N2          6.0380   -0.4110   -0.0360 nh        1 SX3     -0.831200
      8 C9          3.9400   -0.0320    1.1710 ca        1 SX3     -0.212600
      9 C8          4.6580   -0.0450    2.4780 c         1 SX3      0.677700
     10 O1          5.6510    0.6970    2.6560 o         1 SX3     -0.625100
     11 N1          4.1660   -0.8260    3.5210 n         1 SX3     -0.447800
     12 C6          3.3580   -2.0020    3.2820 c3        1 SX3      0.081500
     13 C4          4.0910   -3.3290    3.5440 c3        1 SX3     -0.090200
     14 C5          3.1180   -4.4780    3.4030 c3        1 SX3     -0.089600
     15 C3          4.7230   -3.3190    4.9260 c3        1 SX3     -0.074400
     16 C7          4.8510   -0.8180    4.7990 c3        1 SX3      0.081500
     17 C2          5.6270   -2.1100    5.1030 c3        1 SX3     -0.090200
     18 C1          6.1780   -2.0490    6.5090 c3        1 SX3     -0.089600
     19 H10         2.0130    0.2900    2.0900 ha        1 SX3      0.155000
     20 H12         2.0610    0.1720   -2.2400 ha        1 SX3      0.147000
     21 H13         4.4990   -0.1730   -2.2170 ha        1 SX3      0.140000
     22 HN2         6.5130   -0.2220   -0.8880 hn        1 SX3      0.418300
     23 HN2A        6.5350   -0.1480    0.7880 hn        1 SX3      0.418300
     24 H6          2.9770   -2.0080    2.2230 h1        1 SX3      0.061700
     25 H6A         2.4680   -1.9420    3.9740 h1        1 SX3      0.061700
     26 H4          4.9070   -3.4480    2.7770 hc        1 SX3      0.057700
     27 H5          2.2910   -4.3910    4.1480 hc        1 SX3      0.037700
     28 H5A         3.6440   -5.4480    3.5720 hc        1 SX3      0.037700
     29 H5B         2.6730   -4.4870    2.3790 hc        1 SX3      0.037700
     30 H3          3.9170   -3.3030    5.7070 hc        1 SX3      0.044200
     31 H3A         5.3170   -4.2580    5.0750 hc        1 SX3      0.044200
     32 H7          5.5610    0.0550    4.8400 h1        1 SX3      0.061700
     33 H7A         4.0640   -0.6750    5.5940 h1        1 SX3      0.061700
     34 H2          6.4860   -2.1930    4.3800 hc        1 SX3      0.057700
     35 H1          6.7610   -2.9750    6.7340 hc        1 SX3      0.037700
     36 H1A         5.3530   -1.9620    7.2560 hc        1 SX3      0.037700
     37 H1B         6.8530   -1.1660    6.6230 hc        1 SX3      0.037700
@<TRIPOS>BOND
     1    1    2 1   
     2    2    3 ar  
     3    2    4 ar  
     4    3    8 ar  
     5    3   19 1   
     6    4    5 ar  
     7    4   20 1   
     8    5    6 ar  
     9    5   21 1   
    10    6    7 1   
    11    6    8 ar  
    12    7   22 1   
    13    7   23 1   
    14    8    9 1   
    15    9   10 2   
    16    9   11 1   
    17   11   12 1   
    18   11   16 1   
    19   12   13 1   
    20   12   24 1   
    21   12   25 1   
    22   13   14 1   
    23   13   15 1   
    24   13   26 1   
    25   14   27 1   
    26   14   28 1   
    27   14   29 1   
    28   15   17 1   
    29   15   30 1   
    30   15   31 1   
    31   16   17 1   
    32   16   32 1   
    33   16   33 1   
    34   17   18 1   
    35   17   34 1   
    36   18   35 1   
    37   18   36 1   
    38   18   37 1   
@<TRIPOS>SUBSTRUCTURE
     1 SX3         1 TEMP              0 ****  ****    0 ROOT
