@<TRIPOS>MOLECULE
SX3
   37    38     1     0     0
SMALL
bcc


@<TRIPOS>ATOM
      1 BR1         3.7640   -0.8270   -0.8100 br        1 SX3     -0.088100
      2 C11         2.4980    0.3820   -0.1530 ca        1 SX3     -0.092900
      3 C10         1.1780    0.3290   -0.5980 ca        1 SX3     -0.030000
      4 C12         2.8700    1.3500    0.7880 ca        1 SX3     -0.042000
      5 C13         1.9420    2.2570    1.2700 ca        1 SX3     -0.214000
      6 C14         0.5910    2.2260    0.8280 ca        1 SX3      0.219600
      7 N2         -0.3440    3.0950    1.3660 nh        1 SX3     -0.831200
      8 C9          0.2250    1.2260   -0.1140 ca        1 SX3     -0.212600
      9 C8         -1.1670    1.1920   -0.6490 c         1 SX3      0.677700
     10 O1         -1.6930    2.2360   -1.0980 o         1 SX3     -0.625100
     11 N1         -1.8420   -0.0240   -0.7200 n         1 SX3     -0.446800
     12 C6         -1.5200   -1.1310    0.1530 c3        1 SX3      0.081500
     13 C4         -2.5720   -1.3910    1.2470 c3        1 SX3     -0.090200
     14 C5         -2.2080   -2.6480    2.0050 c3        1 SX3     -0.089600
     15 C3         -3.9560   -1.5090    0.6320 c3        1 SX3     -0.074400
     16 C7         -3.1860   -0.0590   -1.2630 c3        1 SX3      0.081500
     17 C2         -4.2830   -0.2870   -0.2110 c3        1 SX3     -0.090200
     18 C1         -5.6190   -0.4480   -0.9000 c3        1 SX3     -0.089600
     19 H10         0.8740   -0.4230   -1.3460 ha        1 SX3      0.155000
     20 H12         3.9100    1.4010    1.1480 ha        1 SX3      0.147000
     21 H13         2.2580    3.0130    2.0040 ha        1 SX3      0.140000
     22 HN2         0.0260    3.9090    1.8010 hn        1 SX3      0.418300
     23 HN2A       -1.1670    3.2470    0.8220 hn        1 SX3      0.418300
     24 H6         -1.4400   -2.0540   -0.4920 h1        1 SX3      0.061950
     25 H6A        -0.5240   -0.9640    0.6490 h1        1 SX3      0.061950
     26 H4         -2.5690   -0.5220    1.9630 hc        1 SX3      0.057700
     27 H5         -1.1970   -2.5440    2.4690 hc        1 SX3      0.037700
     28 H5A        -2.9540   -2.8360    2.8150 hc        1 SX3      0.037700
     29 H5B        -2.1960   -3.5330    1.3240 hc        1 SX3      0.037700
     30 H3         -4.0060   -2.4300   -0.0070 hc        1 SX3      0.044200
     31 H3A        -4.7200   -1.6220    1.4450 hc        1 SX3      0.044200
     32 H7         -3.3970    0.9030   -1.8110 h1        1 SX3      0.061950
     33 H7A        -3.2190   -0.9070   -2.0070 h1        1 SX3      0.061950
     34 H2         -4.3290    0.6140    0.4630 hc        1 SX3      0.057700
     35 H1         -6.4270   -0.5950   -0.1430 hc        1 SX3      0.037700
     36 H1A        -5.8560    0.4610   -1.5030 hc        1 SX3      0.037700
     37 H1B        -5.6100   -1.3330   -1.5820 hc        1 SX3      0.037700
@<TRIPOS>BOND
     1    1    2 1   
     2    2    3 ar  
     3    2    4 ar  
     4    3    8 ar  
     5    3   19 1   
     6    4    5 ar  
     7    4   20 1   
     8    5    6 ar  
     9    5   21 1   
    10    6    7 1   
    11    6    8 ar  
    12    7   22 1   
    13    7   23 1   
    14    8    9 1   
    15    9   10 2   
    16    9   11 1   
    17   11   12 1   
    18   11   16 1   
    19   12   13 1   
    20   12   24 1   
    21   12   25 1   
    22   13   14 1   
    23   13   15 1   
    24   13   26 1   
    25   14   27 1   
    26   14   28 1   
    27   14   29 1   
    28   15   17 1   
    29   15   30 1   
    30   15   31 1   
    31   16   17 1   
    32   16   32 1   
    33   16   33 1   
    34   17   18 1   
    35   17   34 1   
    36   18   35 1   
    37   18   36 1   
    38   18   37 1   
@<TRIPOS>SUBSTRUCTURE
     1 SX3         1 TEMP              0 ****  ****    0 ROOT
