@<TRIPOS>MOLECULE
SX3
   37    36     1     0     0
SMALL
bcc


@<TRIPOS>ATOM
      1 BR1        -1.1730    0.1970   -4.6480 br        1 SX3      0.052000
      2 C11        -2.1250    0.3050   -3.0540 c2        1 SX3     -0.233000
      3 C10        -1.4470    0.4300   -1.8520 c2        1 SX3     -0.030000
      4 C12        -3.4980    0.1780   -3.0630 c1        1 SX3     -0.042000
      5 C13        -4.2160    0.1760   -1.8480 c1        1 SX3     -0.214000
      6 C14        -3.5410    0.3010   -0.6430 c1        1 SX3      0.138000
      7 N2         -4.2540    0.2050    0.5790 n3        1 SX3     -0.340000
      8 C9         -2.1580    0.4280   -0.6370 c1        1 SX3     -0.192000
      9 C8         -1.3770    0.4480    0.7200 c2        1 SX3      0.351000
     10 O1         -1.9710    0.5890    1.7460 o         1 SX3     -0.386000
     11 N1          0.0420    0.4690    0.7180 n         1 SX3     -0.305000
     12 C6          0.8240    0.6550    1.9220 c3        1 SX3     -0.034500
     13 C4          1.8950   -0.4450    2.1060 c3        1 SX3     -0.129500
     14 C5          2.8040   -0.0580    3.2880 c3        1 SX3     -0.207500
     15 C3          2.7240   -0.6190    0.9080 c3        1 SX3     -0.153000
     16 C7          0.8280    0.3020   -0.4740 c3        1 SX3     -0.034500
     17 C2          1.8990   -0.8080   -0.3190 c3        1 SX3     -0.129500
     18 C1          2.7940   -0.7810   -1.5130 c3        1 SX3     -0.207500
     19 H10        -0.4410    0.5230   -1.8480 ha        1 SX3      0.155000
     20 H12        -4.0020    0.0840   -3.9620 ha        1 SX3      0.147000
     21 H13        -5.1800    0.0880   -1.8560 ha        1 SX3      0.140000
     22 HN2        -3.8160    0.2640    1.3580 hn        1 SX3      0.213500
     23 HN2A       -5.1820    0.1250    0.5720 hn        1 SX3      0.213500
     24 H6          0.2090    0.6490    2.7120 h1        1 SX3      0.101250
     25 H6A         1.2830    1.5420    1.8710 h1        1 SX3      0.101250
     26 H4          1.4570   -1.2760    2.3060 hc        1 SX3      0.097000
     27 H5          2.2830    0.0040    4.0800 hc        1 SX3      0.077000
     28 H5A         3.5660   -0.8080    3.4180 hc        1 SX3      0.077000
     29 H5B         3.2240    0.8070    3.1050 hc        1 SX3      0.077000
     30 H3          3.2690    0.1500    0.7970 hc        1 SX3      0.083500
     31 H3A         3.3230   -1.4320    1.0350 hc        1 SX3      0.083500
     32 H7          0.2370    0.0730   -1.2160 h1        1 SX3      0.101250
     33 H7A         1.3030    1.1970   -0.6890 h1        1 SX3      0.101250
     34 H2          1.4760   -1.6380   -0.2760 hc        1 SX3      0.097000
     35 H1          3.6130   -1.2310   -1.3090 hc        1 SX3      0.077000
     36 H1A         2.3430   -1.2420   -2.2790 hc        1 SX3      0.077000
     37 H1B         2.9830    0.1470   -1.7550 hc        1 SX3      0.077000
@<TRIPOS>BOND
     1    1    2 1   
     2    2    3 1   
     3    2    4 1   
     4    3    8 1   
     5    3   19 1   
     6    4   20 1   
     7    5    6 1   
     8    5   21 1   
     9    6    7 1   
    10    7   22 1   
    11    7   23 1   
    12    8    9 1   
    13    9   10 1   
    14    9   11 1   
    15   11   12 1   
    16   11   16 1   
    17   12   13 1   
    18   12   24 1   
    19   12   25 1   
    20   13   14 1   
    21   13   15 1   
    22   13   26 1   
    23   14   27 1   
    24   14   28 1   
    25   14   29 1   
    26   15   17 1   
    27   15   30 1   
    28   15   31 1   
    29   16   17 1   
    30   16   32 1   
    31   16   33 1   
    32   17   18 1   
    33   17   34 1   
    34   18   35 1   
    35   18   36 1   
    36   18   37 1   
@<TRIPOS>SUBSTRUCTURE
     1 SX3         1 TEMP              0 ****  ****    0 ROOT
