@<TRIPOS>MOLECULE
SX4
   41    43     1     0     0
SMALL
bcc


@<TRIPOS>ATOM
      1 CL1         4.1170    1.8270    0.8260 cl        1 SX4     -0.079400
      2 C18         4.7480    0.2590    0.6360 ca        1 SX4      0.017400
      3 C17         6.1380    0.1140    0.5440 ca        1 SX4     -0.126000
      4 C16         6.6980   -1.1520    0.4020 ca        1 SX4     -0.124000
      5 C15         5.8730   -2.2760    0.3540 ca        1 SX4     -0.130000
      6 C14         4.4920   -2.1290    0.4450 ca        1 SX4     -0.125000
      7 C13         3.9050   -0.8620    0.5820 ca        1 SX4     -0.068300
      8 C12         2.4250   -0.7570    0.7020 c3        1 SX4     -0.046100
      9 C11         1.7680   -0.2970   -0.6110 c3        1 SX4      0.103700
     10 C10         2.0410   -1.2810   -1.7700 c3        1 SX4     -0.091400
     11 C9          0.6860   -1.7140   -2.3170 c3        1 SX4     -0.093400
     12 C8         -0.3710   -1.0860   -1.3950 c3        1 SX4      0.085000
     13 N2          0.3100   -0.1820   -0.4860 n         1 SX4     -0.456800
     14 C7         -0.2660    0.9830   -0.0070 c         1 SX4      0.681700
     15 O1          0.4490    1.8730    0.5050 o         1 SX4     -0.621100
     16 C6         -1.7490    1.1290   -0.0650 ca        1 SX4     -0.215600
     17 C1         -2.3160    2.3470   -0.5300 ca        1 SX4      0.223600
     18 N1         -1.5330    3.3650   -1.0440 nh        1 SX4     -0.832200
     19 C5         -2.5710    0.0990    0.3950 ca        1 SX4     -0.030000
     20 C4         -3.9580    0.2350    0.3890 ca        1 SX4     -0.093900
     21 BR1        -5.0440   -1.1550    1.0080 br        1 SX4     -0.089100
     22 C3         -4.5310    1.4230   -0.0810 ca        1 SX4     -0.041000
     23 C2         -3.7330    2.4610   -0.5290 ca        1 SX4     -0.215000
     24 H17         6.7870    1.0020    0.5880 ha        1 SX4      0.146000
     25 H16         7.7900   -1.2640    0.3300 ha        1 SX4      0.136000
     26 H15         6.3130   -3.2780    0.2470 ha        1 SX4      0.135000
     27 H14         3.8460   -3.0210    0.4150 ha        1 SX4      0.135000
     28 H12         2.0010   -1.7500    1.0080 hc        1 SX4      0.068700
     29 H12A        2.1640   -0.0150    1.5070 hc        1 SX4      0.068700
     30 H11         2.1900    0.7220   -0.8610 h1        1 SX4      0.075700
     31 H10         2.6480   -0.7740   -2.5600 hc        1 SX4      0.056700
     32 H10A        2.6240   -2.1610   -1.4030 hc        1 SX4      0.056700
     33 H9          0.5460   -1.3560   -3.3660 hc        1 SX4      0.052700
     34 H9A         0.5870   -2.8260   -2.3180 hc        1 SX4      0.052700
     35 H8         -1.1560   -0.5430   -1.9890 h1        1 SX4      0.050700
     36 H8A        -0.8850   -1.8870   -0.7930 h1        1 SX4      0.050700
     37 HN1        -0.5770    3.3780   -0.7570 hn        1 SX4      0.420300
     38 HN1A       -1.9660    4.2580   -1.1020 hn        1 SX4      0.420300
     39 H5         -2.1080   -0.8270    0.7770 ha        1 SX4      0.153000
     40 H3         -5.6270    1.5420   -0.0920 ha        1 SX4      0.147000
     41 H2         -4.2060    3.3880   -0.8880 ha        1 SX4      0.140000
@<TRIPOS>BOND
     1    1    2 1   
     2    2    3 ar  
     3    2    7 ar  
     4    3    4 ar  
     5    3   24 1   
     6    4    5 ar  
     7    4   25 1   
     8    5    6 ar  
     9    5   26 1   
    10    6    7 ar  
    11    6   27 1   
    12    7    8 1   
    13    8    9 1   
    14    8   28 1   
    15    8   29 1   
    16    9   10 1   
    17    9   13 1   
    18    9   30 1   
    19   10   11 1   
    20   10   31 1   
    21   10   32 1   
    22   11   12 1   
    23   11   33 1   
    24   11   34 1   
    25   12   13 1   
    26   12   35 1   
    27   12   36 1   
    28   13   14 1   
    29   14   15 2   
    30   14   16 1   
    31   16   17 ar  
    32   16   19 ar  
    33   17   18 1   
    34   17   23 ar  
    35   18   37 1   
    36   18   38 1   
    37   19   20 ar  
    38   19   39 1   
    39   20   21 1   
    40   20   22 ar  
    41   22   23 ar  
    42   22   40 1   
    43   23   41 1   
@<TRIPOS>SUBSTRUCTURE
     1 SX4         1 TEMP              0 ****  ****    0 ROOT
