@<TRIPOS>MOLECULE
SX4
   41    43     1     0     0
SMALL
bcc


@<TRIPOS>ATOM
      1 CL1         0.1540   -0.4010   -0.0290 cl        1 SX4     -0.079400
      2 C18         1.8370   -0.1610   -0.0020 ca        1 SX4      0.017400
      3 C17         2.4770   -0.1170    1.2430 ca        1 SX4     -0.126000
      4 C16         3.8560    0.0640    1.3110 ca        1 SX4     -0.124000
      5 C15         4.5980    0.1980    0.1370 ca        1 SX4     -0.130000
      6 C14         3.9590    0.1540   -1.0990 ca        1 SX4     -0.125000
      7 C13         2.5710   -0.0200   -1.1910 ca        1 SX4     -0.068300
      8 C12         1.9350   -0.0870   -2.5350 c3        1 SX4     -0.046100
      9 C11         1.2270    1.2280   -2.9080 c3        1 SX4      0.103700
     10 C10         2.2060    2.4210   -2.9480 c3        1 SX4     -0.091400
     11 C9          2.0970    3.0410   -4.3350 c3        1 SX4     -0.093400
     12 C8          1.1550    2.1330   -5.1410 c3        1 SX4      0.085000
     13 N2          0.5910    1.1550   -4.2290 n         1 SX4     -0.456800
     14 C7         -0.6890    0.6420   -4.3670 c         1 SX4      0.681700
     15 O1         -1.2390    0.0600   -3.4070 o         1 SX4     -0.621100
     16 C6         -1.3680    0.7520   -5.6900 ca        1 SX4     -0.215600
     17 C1         -2.7230    1.1790   -5.7500 ca        1 SX4      0.223600
     18 N1         -3.4000    1.6110   -4.6230 nh        1 SX4     -0.832200
     19 C5         -0.6960    0.3760   -6.8540 ca        1 SX4     -0.030000
     20 C4         -1.3290    0.4300   -8.0940 ca        1 SX4     -0.093900
     21 BR1        -0.4130   -0.0760   -9.6440 br        1 SX4     -0.089100
     22 C3         -2.6580    0.8640   -8.1700 ca        1 SX4     -0.041000
     23 C2         -3.3460    1.2280   -7.0260 ca        1 SX4     -0.215000
     24 H17         1.8900   -0.2290    2.1670 ha        1 SX4      0.146000
     25 H16         4.3570    0.0990    2.2890 ha        1 SX4      0.136000
     26 H15         5.6880    0.3350    0.1880 ha        1 SX4      0.135000
     27 H14         4.5520    0.2520   -2.0220 ha        1 SX4      0.135000
     28 H12         2.7130   -0.3270   -3.3080 hc        1 SX4      0.068700
     29 H12A        1.1740   -0.9150   -2.5510 hc        1 SX4      0.068700
     30 H11         0.4250    1.4110   -2.1310 h1        1 SX4      0.075700
     31 H10         3.2500    2.0750   -2.7470 hc        1 SX4      0.056700
     32 H10A        1.9330    3.1610   -2.1560 hc        1 SX4      0.056700
     33 H9          3.0950    3.1010   -4.8330 hc        1 SX4      0.052700
     34 H9A         1.6800    4.0770   -4.2780 hc        1 SX4      0.052700
     35 H8          1.7310    1.5910   -5.9430 h1        1 SX4      0.050700
     36 H8A         0.3440    2.7300   -5.6410 h1        1 SX4      0.050700
     37 HN1        -4.3900    1.6430   -4.6980 hn        1 SX4      0.420300
     38 HN1A       -3.0540    1.2860   -3.7450 hn        1 SX4      0.420300
     39 H5          0.3470    0.0220   -6.7810 ha        1 SX4      0.153000
     40 H3         -3.1700    0.9120   -9.1460 ha        1 SX4      0.147000
     41 H2         -4.3930    1.5600   -7.1090 ha        1 SX4      0.140000
@<TRIPOS>BOND
     1    1    2 1   
     2    2    3 ar  
     3    2    7 ar  
     4    3    4 ar  
     5    3   24 1   
     6    4    5 ar  
     7    4   25 1   
     8    5    6 ar  
     9    5   26 1   
    10    6    7 ar  
    11    6   27 1   
    12    7    8 1   
    13    8    9 1   
    14    8   28 1   
    15    8   29 1   
    16    9   10 1   
    17    9   13 1   
    18    9   30 1   
    19   10   11 1   
    20   10   31 1   
    21   10   32 1   
    22   11   12 1   
    23   11   33 1   
    24   11   34 1   
    25   12   13 1   
    26   12   35 1   
    27   12   36 1   
    28   13   14 1   
    29   14   15 2   
    30   14   16 1   
    31   16   17 ar  
    32   16   19 ar  
    33   17   18 1   
    34   17   23 ar  
    35   18   37 1   
    36   18   38 1   
    37   19   20 ar  
    38   19   39 1   
    39   20   21 1   
    40   20   22 ar  
    41   22   23 ar  
    42   22   40 1   
    43   23   41 1   
@<TRIPOS>SUBSTRUCTURE
     1 SX4         1 TEMP              0 ****  ****    0 ROOT
