@<TRIPOS>MOLECULE
SX4
   42    44     1     0     0
SMALL
bcc


@<TRIPOS>ATOM
      1 CL1         0.0240   -0.1040   -0.0370 cl        1 SX4     -0.099400
      2 C18         1.7260   -0.0330    0.0050 ca        1 SX4      0.021400
      3 C17         2.3530   -0.0230    1.2560 ca        1 SX4     -0.119000
      4 C16         3.7430    0.0210    1.3340 ca        1 SX4     -0.110000
      5 C15         4.5060    0.0520    0.1670 ca        1 SX4     -0.121000
      6 C14         3.8780    0.0420   -1.0760 ca        1 SX4     -0.121000
      7 C13         2.4800    0.0040   -1.1780 ca        1 SX4     -0.088300
      8 C12         1.8520   -0.0400   -2.5270 c3        1 SX4     -0.043100
      9 C11         1.2710    1.3260   -2.9260 c3        1 SX4      0.102700
     10 C10         2.3570    2.4200   -3.0100 c3        1 SX4     -0.092400
     11 C9          2.2820    3.0220   -4.4070 c3        1 SX4     -0.091400
     12 C8          1.2990    2.1470   -5.2010 c3        1 SX4      0.079000
     13 N2          0.6100    1.2960   -4.2450 n         1 SX4     -0.421800
     14 C7         -0.6310    0.7620   -4.3980 c         1 SX4      0.655700
     15 O1         -1.2150    0.2000   -3.4320 o         1 SX4     -0.662100
     16 C6         -1.3480    0.8220   -5.7170 ca        1 SX4     -0.095600
     17 C1         -2.7520    0.9930   -5.7480 ca        1 SX4     -0.018400
     18 N1         -3.5090    1.0850   -4.4990 n4        1 SX4     -0.715000
     19 C5         -0.6740    0.6340   -6.9230 ca        1 SX4     -0.066000
     20 C4         -1.3570    0.6700   -8.1470 ca        1 SX4      0.003100
     21 BR1        -0.4240    0.4230   -9.7420 br        1 SX4      0.010900
     22 C3         -2.7370    0.8900   -8.1640 ca        1 SX4     -0.069000
     23 C2         -3.4400    1.0440   -6.9700 ca        1 SX4     -0.106000
     24 H17         1.7490   -0.0560    2.1760 ha        1 SX4      0.155000
     25 H16         4.2360    0.0270    2.3180 ha        1 SX4      0.149000
     26 H15         5.6040    0.0790    0.2270 ha        1 SX4      0.146000
     27 H14         4.4880    0.0540   -1.9930 ha        1 SX4      0.136000
     28 H12         2.6120   -0.3640   -3.2880 hc        1 SX4      0.070200
     29 H12A        1.0210   -0.8000   -2.5300 hc        1 SX4      0.070200
     30 H11         0.4910    1.6060   -2.1560 h1        1 SX4      0.081700
     31 H10         2.1720    3.1970   -2.2280 hc        1 SX4      0.073700
     32 H10A        3.3660    1.9750   -2.8180 hc        1 SX4      0.073700
     33 H9          3.2830    3.0230   -4.9040 hc        1 SX4      0.068200
     34 H9A         1.9170    4.0780   -4.3690 hc        1 SX4      0.068200
     35 H8          1.8710    1.5030   -5.9270 h1        1 SX4      0.054200
     36 H8A         0.5660    2.7720   -5.7770 h1        1 SX4      0.054200
     37 HN1        -3.3220    1.9860   -4.0460 hn        1 SX4      0.475800
     38 HN1A       -3.1830    0.3290   -3.8590 hn        1 SX4      0.475800
     39 H5          0.4130    0.4320   -6.9150 ha        1 SX4      0.186000
     40 H3         -3.2890    0.9320   -9.1210 ha        1 SX4      0.187000
     41 H2         -4.5320    1.1930   -7.0110 ha        1 SX4      0.165000
     42 H13        -4.5110    0.9880   -4.6780 hn        1 SX4      0.475800
@<TRIPOS>BOND
     1    1    2 1   
     2    2    3 ar  
     3    2    7 ar  
     4    3    4 ar  
     5    3   24 1   
     6    4    5 ar  
     7    4   25 1   
     8    5    6 ar  
     9    5   26 1   
    10    6    7 ar  
    11    6   27 1   
    12    7    8 1   
    13    8    9 1   
    14    8   28 1   
    15    8   29 1   
    16    9   10 1   
    17    9   13 1   
    18    9   30 1   
    19   10   11 1   
    20   10   31 1   
    21   10   32 1   
    22   11   12 1   
    23   11   33 1   
    24   11   34 1   
    25   12   13 1   
    26   12   35 1   
    27   12   36 1   
    28   13   14 1   
    29   14   15 2   
    30   14   16 1   
    31   16   17 ar  
    32   16   19 ar  
    33   17   18 1   
    34   17   23 ar  
    35   18   37 1   
    36   18   38 1   
    37   18   42 1   
    38   19   20 ar  
    39   19   39 1   
    40   20   21 1   
    41   20   22 ar  
    42   22   23 ar  
    43   22   40 1   
    44   23   41 1   
@<TRIPOS>SUBSTRUCTURE
     1 SX4         1 TEMP              0 ****  ****    0 ROOT
