@<TRIPOS>MOLECULE
SX4
   41    43     1     0     0
SMALL
bcc


@<TRIPOS>ATOM
      1 Cl1         0.1560   -0.3990   -0.0280 cl        1 SX4     -0.079400
      2 C18         1.8390   -0.1560   -0.0010 ca        1 SX4      0.017400
      3 C17         2.4790   -0.1100    1.2440 ca        1 SX4     -0.126000
      4 C16         3.8570    0.0750    1.3110 ca        1 SX4     -0.124000
      5 C15         4.5990    0.2090    0.1380 ca        1 SX4     -0.130000
      6 C14         3.9610    0.1640   -1.0980 ca        1 SX4     -0.125000
      7 C13         2.5720   -0.0140   -1.1900 ca        1 SX4     -0.068300
      8 C12         1.9370   -0.0830   -2.5350 c3        1 SX4     -0.046100
      9 C11         1.2260    1.2300   -2.9090 c3        1 SX4      0.103700
     10 C10         2.2030    2.4260   -2.9500 c3        1 SX4     -0.091400
     11 C9          2.0920    3.0440   -4.3380 c3        1 SX4     -0.093400
     12 C8          1.1530    2.1330   -5.1420 c3        1 SX4      0.085000
     13 N2          0.5910    1.1550   -4.2290 n         1 SX4     -0.456800
     14 C7         -0.6880    0.6390   -4.3670 c         1 SX4      0.681700
     15 O1         -1.2380    0.0560   -3.4060 o         1 SX4     -0.621100
     16 C6         -1.3670    0.7460   -5.6900 ca        1 SX4     -0.215600
     17 C1         -2.7230    1.1710   -5.7500 ca        1 SX4      0.223600
     18 N1         -3.4010    1.6030   -4.6240 nv        1 SX4     -0.832200
     19 C5         -0.6940    0.3710   -6.8540 ca        1 SX4     -0.030000
     20 C4         -1.3280    0.4220   -8.0940 ca        1 SX4     -0.093900
     21 Br1        -0.4110   -0.0840   -9.6430 br        1 SX4     -0.089100
     22 C3         -2.6580    0.8540   -8.1710 ca        1 SX4     -0.041000
     23 C2         -3.3470    1.2180   -7.0270 ca        1 SX4     -0.215000
     24 H17         1.8910   -0.2220    2.1680 ha        1 SX4      0.146000
     25 H16         4.3570    0.1100    2.2900 ha        1 SX4      0.136000
     26 H15         5.6890    0.3490    0.1890 ha        1 SX4      0.135000
     27 H14         4.5530    0.2630   -2.0210 ha        1 SX4      0.135000
     28 H12         2.7160   -0.3220   -3.3070 hc        1 SX4      0.068700
     29 H12A        1.1780   -0.9130   -2.5510 hc        1 SX4      0.068700
     30 H11         0.4240    1.4120   -2.1320 h1        1 SX4      0.075700
     31 H10         3.2470    2.0810   -2.7470 hc        1 SX4      0.056700
     32 H10A        1.9280    3.1650   -2.1590 hc        1 SX4      0.056700
     33 H9          3.0910    3.1050   -4.8350 hc        1 SX4      0.052700
     34 H9A         1.6740    4.0790   -4.2820 hc        1 SX4      0.052700
     35 H8          0.3410    2.7280   -5.6430 h1        1 SX4      0.050700
     36 H8A         1.7300    1.5920   -5.9430 h1        1 SX4      0.050700
     37 HN1        -3.0540    1.2800   -3.7460 hn        1 SX4      0.420300
     38 HN1A       -4.3910    1.6330   -4.6990 hn        1 SX4      0.420300
     39 H5          0.3490    0.0180   -6.7810 ha        1 SX4      0.153000
     40 H3         -3.1690    0.9000   -9.1460 ha        1 SX4      0.147000
     41 H2         -4.3940    1.5480   -7.1110 ha        1 SX4      0.140000
@<TRIPOS>BOND
     1    1    2 1   
     2    2    3 ar  
     3    2    7 ar  
     4    3    4 ar  
     5    3   24 1   
     6    4    5 ar  
     7    4   25 1   
     8    5    6 ar  
     9    5   26 1   
    10    6    7 ar  
    11    6   27 1   
    12    7    8 1   
    13    8    9 1   
    14    8   28 1   
    15    8   29 1   
    16    9   10 1   
    17    9   13 1   
    18    9   30 1   
    19   10   11 1   
    20   10   31 1   
    21   10   32 1   
    22   11   12 1   
    23   11   33 1   
    24   11   34 1   
    25   12   13 1   
    26   12   35 1   
    27   12   36 1   
    28   13   14 1   
    29   14   15 2   
    30   14   16 1   
    31   16   17 ar  
    32   16   19 ar  
    33   17   18 1   
    34   17   23 ar  
    35   18   37 1   
    36   18   38 1   
    37   19   20 ar  
    38   19   39 1   
    39   20   21 1   
    40   20   22 ar  
    41   22   23 ar  
    42   22   40 1   
    43   23   41 1   
@<TRIPOS>SUBSTRUCTURE
     1 SX4         1 TEMP              0 ****  ****    0 ROOT
