@<TRIPOS>MOLECULE
SX5
   47    48     1     0     0
SMALL
bcc


@<TRIPOS>ATOM
      1 O3          0.0190   -2.0300   -3.8140 o         1 SX5     -0.847800
      2 C18         1.0490   -2.2500   -3.1010 c         1 SX5      0.901600
      3 O4          1.6230   -3.3720   -3.0610 o         1 SX5     -0.847800
      4 C17         1.6280   -1.1120   -2.2520 c3        1 SX5     -0.195400
      5 C16         1.1220    0.2560   -2.6470 c3        1 SX5     -0.133400
      6 C15         1.7900    0.7530   -3.9190 c         1 SX5      0.679100
      7 O2          2.6530    1.6530   -3.8830 o         1 SX5     -0.637100
      8 N2          1.3580    0.1610   -5.1040 n         1 SX5     -0.461100
      9 C14         1.8930    0.3310   -6.3730 ca        1 SX5      0.156600
     10 C13         3.0790    1.0680   -6.6260 ca        1 SX5     -0.188000
     11 C12         3.5900    1.1820   -7.9090 ca        1 SX5     -0.070000
     12 C11         2.9510    0.5700   -8.9910 ca        1 SX5     -0.086900
     13 BR1         3.6590    0.7250  -10.7200 br        1 SX5     -0.127100
     14 C10         1.7790   -0.1530   -8.7730 ca        1 SX5     -0.048000
     15 C9          1.2480   -0.2710   -7.4910 ca        1 SX5     -0.192600
     16 C8         -0.0740   -0.9550   -7.3300 c         1 SX5      0.671700
     17 O1         -1.0990   -0.2710   -7.1270 o         1 SX5     -0.607100
     18 N1         -0.1530   -2.3280   -7.5370 n         1 SX5     -0.437800
     19 C6          1.0220   -3.1730   -7.4960 c3        1 SX5      0.091500
     20 C4          1.0870   -4.1360   -6.3010 c3        1 SX5     -0.111700
     21 C5          2.2650   -5.0670   -6.4700 c3        1 SX5     -0.077100
     22 C3         -0.2130   -4.9140   -6.1840 c3        1 SX5     -0.054400
     23 C7         -1.4080   -3.0080   -7.2720 c3        1 SX5      0.091500
     24 C2         -1.3770   -3.9460   -6.0570 c3        1 SX5     -0.111700
     25 C1         -2.6920   -4.6800   -5.9510 c3        1 SX5     -0.077100
     26 H17         2.7440   -1.1500   -2.3110 hc        1 SX5      0.044200
     27 H17A        1.3360   -1.3100   -1.1890 hc        1 SX5      0.044200
     28 H16         0.0080    0.2070   -2.7920 hc        1 SX5      0.066700
     29 H16A        1.3490    1.0040   -1.8440 hc        1 SX5      0.066700
     30 HN2         0.6310   -0.5420   -5.0000 hn        1 SX5      0.387500
     31 H13         3.6080    1.5610   -5.7930 ha        1 SX5      0.177000
     32 H12         4.5130    1.7620   -8.0660 ha        1 SX5      0.134000
     33 H10         1.2540   -0.6360   -9.6130 ha        1 SX5      0.146000
     34 H6          1.0140   -3.7820   -8.4480 h1        1 SX5      0.043200
     35 H6A         1.9530   -2.5410   -7.4990 h1        1 SX5      0.043200
     36 H4          1.2180   -3.5450   -5.3400 hc        1 SX5      0.138200
     37 H5          2.1460   -5.7070   -7.3780 hc        1 SX5      0.024200
     38 H5A         2.3530   -5.7280   -5.5740 hc        1 SX5      0.024200
     39 H5B         3.2100   -4.4810   -6.5710 hc        1 SX5      0.024200
     40 H3         -0.1710   -5.5720   -5.2770 hc        1 SX5      0.028700
     41 H3A        -0.3540   -5.5720   -7.0810 hc        1 SX5      0.028700
     42 H7         -1.6510   -3.6120   -8.1940 h1        1 SX5      0.043200
     43 H7A        -2.2230   -2.2450   -7.1230 h1        1 SX5      0.043200
     44 H2         -1.2120   -3.3260   -5.1220 hc        1 SX5      0.138200
     45 H1         -2.8750   -5.3100   -6.8560 hc        1 SX5      0.024200
     46 H1A        -2.6840   -5.3460   -5.0540 hc        1 SX5      0.024200
     47 H1B        -3.5350   -3.9550   -5.8480 hc        1 SX5      0.024200
@<TRIPOS>BOND
     1    1    2 1   
     2    2    3 1   
     3    2    4 1   
     4    4    5 1   
     5    4   26 1   
     6    4   27 1   
     7    5    6 1   
     8    5   28 1   
     9    5   29 1   
    10    6    7 2   
    11    6    8 1   
    12    8    9 1   
    13    8   30 1   
    14    9   10 ar  
    15    9   15 ar  
    16   10   11 ar  
    17   10   31 1   
    18   11   12 ar  
    19   11   32 1   
    20   12   13 1   
    21   12   14 ar  
    22   14   15 ar  
    23   14   33 1   
    24   15   16 1   
    25   16   17 2   
    26   16   18 1   
    27   18   19 1   
    28   18   23 1   
    29   19   20 1   
    30   19   34 1   
    31   19   35 1   
    32   20   21 1   
    33   20   22 1   
    34   20   36 1   
    35   21   37 1   
    36   21   38 1   
    37   21   39 1   
    38   22   24 1   
    39   22   40 1   
    40   22   41 1   
    41   23   24 1   
    42   23   42 1   
    43   23   43 1   
    44   24   25 1   
    45   24   44 1   
    46   25   45 1   
    47   25   46 1   
    48   25   47 1   
@<TRIPOS>SUBSTRUCTURE
     1 SX5         1 TEMP              0 ****  ****    0 ROOT
