@<TRIPOS>MOLECULE
SX5
   47    48     1     0     0
SMALL
bcc


@<TRIPOS>ATOM
      1 O3         -2.7690   -1.3580   -0.0360 o         1 SX5     -0.847800
      2 C18        -3.2260   -0.7620    0.9910 c         1 SX5      0.901600
      3 O4         -3.1290   -1.2380    2.1550 o         1 SX5     -0.847800
      4 C17        -3.9230    0.5920    0.8210 c3        1 SX5     -0.195400
      5 C16        -3.6590    1.2450   -0.5160 c3        1 SX5     -0.133400
      6 C15        -2.2700    1.8590   -0.5730 c         1 SX5      0.679100
      7 O2         -2.1100    3.0960   -0.5210 o         1 SX5     -0.637100
      8 N2         -1.2140    0.9610   -0.7120 n         1 SX5     -0.461100
      9 C14         0.1430    1.2430   -0.6520 ca        1 SX5      0.156600
     10 C13         0.6590    2.5200   -0.3060 ca        1 SX5     -0.188000
     11 C12         2.0250    2.7420   -0.2310 ca        1 SX5     -0.070000
     12 C11         2.9340    1.7120   -0.4900 ca        1 SX5     -0.086900
     13 BR1         4.7780    2.0250   -0.3740 br        1 SX5     -0.127100
     14 C10         2.4550    0.4500   -0.8410 ca        1 SX5     -0.048000
     15 C9          1.0850    0.2120   -0.9290 ca        1 SX5     -0.192600
     16 C8          0.6270   -1.1240   -1.4260 c         1 SX5      0.671700
     17 O1          0.1920   -1.2300   -2.5920 o         1 SX5     -0.607100
     18 N1          0.8150   -2.2440   -0.6220 n         1 SX5     -0.437800
     19 C6          1.0490   -2.1280    0.8020 c3        1 SX5      0.091500
     20 C4         -0.0970   -2.6380    1.6910 c3        1 SX5     -0.111700
     21 C5          0.3420   -2.6160    3.1360 c3        1 SX5     -0.077100
     22 C3         -0.5060   -4.0380    1.2640 c3        1 SX5     -0.054400
     23 C7          0.2720   -3.5190   -1.0540 c3        1 SX5      0.091500
     24 C2         -0.9000   -4.0280   -0.2030 c3        1 SX5     -0.111700
     25 C1         -1.3040   -5.4060   -0.6710 c3        1 SX5     -0.077100
     26 H17        -5.0250    0.4140    0.9230 hc        1 SX5      0.044200
     27 H17A       -3.6100    1.2660    1.6570 hc        1 SX5      0.044200
     28 H16        -3.7740    0.4770   -1.3280 hc        1 SX5      0.066700
     29 H16A       -4.3920    2.0750   -0.6970 hc        1 SX5      0.066700
     30 HN2        -1.4800   -0.0180   -0.7680 hn        1 SX5      0.387500
     31 H13        -0.0320    3.3530   -0.0940 ha        1 SX5      0.177000
     32 H12         2.3880    3.7460    0.0410 ha        1 SX5      0.134000
     33 H10         3.1530   -0.3740   -1.0580 ha        1 SX5      0.146000
     34 H6          1.9750   -2.7340    1.0280 h1        1 SX5      0.043200
     35 H6A         1.2630   -1.0570    1.0730 h1        1 SX5      0.043200
     36 H4         -1.0040   -1.9650    1.5690 hc        1 SX5      0.138200
     37 H5          0.6550   -1.5850    3.4310 hc        1 SX5      0.024200
     38 H5A        -0.5070   -2.9270    3.7910 hc        1 SX5      0.024200
     39 H5B         1.2000   -3.3110    3.3080 hc        1 SX5      0.024200
     40 H3          0.3370   -4.7580    1.4330 hc        1 SX5      0.028700
     41 H3A        -1.3770   -4.3740    1.8850 hc        1 SX5      0.028700
     42 H7         -0.0630   -3.4390   -2.1260 h1        1 SX5      0.043200
     43 H7A         1.1150   -4.2660   -1.0000 h1        1 SX5      0.043200
     44 H2         -1.7750   -3.3160   -0.3230 hc        1 SX5      0.138200
     45 H1         -2.1730   -5.7720   -0.0730 hc        1 SX5      0.024200
     46 H1A        -1.6000   -5.3800   -1.7480 hc        1 SX5      0.024200
     47 H1B        -0.4630   -6.1320   -0.5530 hc        1 SX5      0.024200
@<TRIPOS>BOND
     1    1    2 1   
     2    2    3 1   
     3    2    4 1   
     4    4    5 1   
     5    4   26 1   
     6    4   27 1   
     7    5    6 1   
     8    5   28 1   
     9    5   29 1   
    10    6    7 2   
    11    6    8 1   
    12    8    9 1   
    13    8   30 1   
    14    9   10 ar  
    15    9   15 ar  
    16   10   11 ar  
    17   10   31 1   
    18   11   12 ar  
    19   11   32 1   
    20   12   13 1   
    21   12   14 ar  
    22   14   15 ar  
    23   14   33 1   
    24   15   16 1   
    25   16   17 2   
    26   16   18 1   
    27   18   19 1   
    28   18   23 1   
    29   19   20 1   
    30   19   34 1   
    31   19   35 1   
    32   20   21 1   
    33   20   22 1   
    34   20   36 1   
    35   21   37 1   
    36   21   38 1   
    37   21   39 1   
    38   22   24 1   
    39   22   40 1   
    40   22   41 1   
    41   23   24 1   
    42   23   42 1   
    43   23   43 1   
    44   24   25 1   
    45   24   44 1   
    46   25   45 1   
    47   25   46 1   
    48   25   47 1   
@<TRIPOS>SUBSTRUCTURE
     1 SX5         1 TEMP              0 ****  ****    0 ROOT
