@<TRIPOS>MOLECULE
SX5
   47    48     1     0     0
SMALL
bcc


@<TRIPOS>ATOM
      1 O3          0.0050   -2.0060   -3.8200 o         1 SX5     -0.847800
      2 C18         1.0280   -2.2380   -3.0990 c         1 SX5      0.901600
      3 O4          1.5840   -3.3690   -3.0500 o         1 SX5     -0.847800
      4 C17         1.6180   -1.1050   -2.2520 c3        1 SX5     -0.195400
      5 C16         1.1370    0.2680   -2.6570 c3        1 SX5     -0.133400
      6 C15         1.8210    0.7480   -3.9270 c         1 SX5      0.679100
      7 O2          2.6980    1.6350   -3.8900 o         1 SX5     -0.637100
      8 N2          1.3870    0.1570   -5.1110 ns        1 SX5     -0.461100
      9 C14         1.9340    0.3110   -6.3780 ca        1 SX5      0.156600
     10 C13         3.1330    1.0280   -6.6270 ca        1 SX5     -0.188000
     11 C12         3.6540    1.1270   -7.9070 ca        1 SX5     -0.070000
     12 C11         3.0120    0.5190   -8.9900 ca        1 SX5     -0.086900
     13 Br1         3.7350    0.6530  -10.7140 br        1 SX5     -0.127100
     14 C10         1.8280   -0.1840   -8.7760 ca        1 SX5     -0.048000
     15 C9          1.2860   -0.2860   -7.4970 ca        1 SX5     -0.192600
     16 C8         -0.0480   -0.9480   -7.3410 c         1 SX5      0.671700
     17 O1         -1.0630   -0.2460   -7.1480 o         1 SX5     -0.607100
     18 N1         -0.1480   -2.3210   -7.5420 n         1 SX5     -0.437800
     19 C6          1.0130   -3.1840   -7.4900 c3        1 SX5      0.091500
     20 C4          1.0540   -4.1420   -6.2890 c3        1 SX5     -0.111700
     21 C5          2.2180   -5.0920   -6.4460 c3        1 SX5     -0.077100
     22 C3         -0.2590   -4.8980   -6.1760 c3        1 SX5     -0.054400
     23 C7         -1.4160   -2.9780   -7.2820 c3        1 SX5      0.091500
     24 C2         -1.4070   -3.9100   -6.0620 c3        1 SX5     -0.111700
     25 C1         -2.7350   -4.6230   -5.9600 c3        1 SX5     -0.077100
     26 H17         1.3170   -1.2930   -1.1890 hc        1 SX5      0.044200
     27 H17A        2.7350   -1.1620   -2.3030 hc        1 SX5      0.044200
     28 H16         0.0240    0.2360   -2.8090 hc        1 SX5      0.066700
     29 H16A        1.3710    1.0160   -1.8560 hc        1 SX5      0.066700
     30 HN2         0.6480   -0.5340   -5.0090 hn        1 SX5      0.387500
     31 H13         3.6640    1.5170   -5.7930 ha        1 SX5      0.177000
     32 H12         4.5880    1.6910   -8.0610 ha        1 SX5      0.134000
     33 H10         1.3000   -0.6630   -9.6170 ha        1 SX5      0.146000
     34 H6          1.9540   -2.5670   -7.4900 h1        1 SX5      0.043200
     35 H6A         1.0010   -3.7980   -8.4380 h1        1 SX5      0.043200
     36 H4          1.1890   -3.5480   -5.3300 hc        1 SX5      0.138200
     37 H5          3.1740   -4.5230   -6.5440 hc        1 SX5      0.024200
     38 H5A         2.2900   -5.7500   -5.5460 hc        1 SX5      0.024200
     39 H5B         2.0940   -5.7360   -7.3510 hc        1 SX5      0.024200
     40 H3         -0.2330   -5.5510   -5.2660 hc        1 SX5      0.028700
     41 H3A        -0.4050   -5.5590   -7.0710 hc        1 SX5      0.028700
     42 H7         -1.6630   -3.5830   -8.2020 h1        1 SX5      0.043200
     43 H7A        -2.2190   -2.2010   -7.1420 h1        1 SX5      0.043200
     44 H2         -1.2380   -3.2880   -5.1280 hc        1 SX5      0.138200
     45 H1         -3.5660   -3.8840   -5.8660 hc        1 SX5      0.024200
     46 H1A        -2.7440   -5.2830   -5.0590 hc        1 SX5      0.024200
     47 H1B        -2.9220   -5.2540   -6.8630 hc        1 SX5      0.024200
@<TRIPOS>BOND
     1    1    2 1   
     2    2    3 1   
     3    2    4 1   
     4    4    5 1   
     5    4   26 1   
     6    4   27 1   
     7    5    6 1   
     8    5   28 1   
     9    5   29 1   
    10    6    7 2   
    11    6    8 1   
    12    8    9 1   
    13    8   30 1   
    14    9   10 ar  
    15    9   15 ar  
    16   10   11 ar  
    17   10   31 1   
    18   11   12 ar  
    19   11   32 1   
    20   12   13 1   
    21   12   14 ar  
    22   14   15 ar  
    23   14   33 1   
    24   15   16 1   
    25   16   17 2   
    26   16   18 1   
    27   18   19 1   
    28   18   23 1   
    29   19   20 1   
    30   19   34 1   
    31   19   35 1   
    32   20   21 1   
    33   20   22 1   
    34   20   36 1   
    35   21   37 1   
    36   21   38 1   
    37   21   39 1   
    38   22   24 1   
    39   22   40 1   
    40   22   41 1   
    41   23   24 1   
    42   23   42 1   
    43   23   43 1   
    44   24   25 1   
    45   24   44 1   
    46   25   45 1   
    47   25   46 1   
    48   25   47 1   
@<TRIPOS>SUBSTRUCTURE
     1 SX5         1 TEMP              0 ****  ****    0 ROOT
