@<TRIPOS>MOLECULE
SX5
   48    49     1     0     0
SMALL
bcc


@<TRIPOS>ATOM
      1 O3          3.0860    1.6930   -0.9400 oh        1 SX5     -0.582100
      2 C18         1.9860    1.0260   -0.4970 c         1 SX5      0.626100
      3 O4          1.3320    1.6380    0.3480 o         1 SX5     -0.497000
      4 C17         1.6810   -0.3490   -1.0230 c3        1 SX5     -0.170400
      5 C16         0.8660   -0.3020   -2.2980 c3        1 SX5     -0.153400
      6 C15         1.7390   -0.0670   -3.5220 c         1 SX5      0.670100
      7 O2          2.9570    0.1780   -3.4140 o         1 SX5     -0.620100
      8 N2          1.0970   -0.1590   -4.7460 n         1 SX5     -0.469100
      9 C14         1.6650    0.0670   -6.0080 ca        1 SX5      0.123600
     10 C13         2.8420    0.8310   -6.1780 ca        1 SX5     -0.159000
     11 C12         3.3430    1.0900   -7.4470 ca        1 SX5     -0.061000
     12 C11         2.6920    0.6030   -8.5840 ca        1 SX5     -0.062900
     13 BR1         3.3580    0.9800  -10.2900 br        1 SX5     -0.075100
     14 C10         1.5420   -0.1710   -8.4360 ca        1 SX5     -0.054000
     15 C9          1.0350   -0.4620   -7.1670 ca        1 SX5     -0.182600
     16 C8         -0.2150   -1.2720   -7.0510 c         1 SX5      0.673700
     17 O1         -1.1850   -0.8420   -6.3860 o         1 SX5     -0.627100
     18 N1         -0.3170   -2.4690   -7.7480 n         1 SX5     -0.447800
     19 C6          0.8410   -3.2180   -8.1840 c3        1 SX5      0.081500
     20 C4          1.0440   -4.5450   -7.4300 c3        1 SX5     -0.087700
     21 C5          2.1870   -5.3090   -8.0590 c3        1 SX5     -0.090600
     22 C3         -0.2350   -5.3660   -7.4490 c3        1 SX5     -0.075400
     23 C7         -1.5440   -3.2390   -7.6740 c3        1 SX5      0.081500
     24 C2         -1.4060   -4.5630   -6.9060 c3        1 SX5     -0.087700
     25 C1         -2.6950   -5.3460   -7.0140 c3        1 SX5     -0.090600
     26 H17         2.6400   -0.9060   -1.1960 hc        1 SX5      0.087700
     27 H17A        1.0930   -0.8940   -0.2360 hc        1 SX5      0.087700
     28 H16         0.3210   -1.2780   -2.4150 hc        1 SX5      0.087700
     29 H16A        0.0960    0.5140   -2.2360 hc        1 SX5      0.087700
     30 HN2         0.1170   -0.3700   -4.7410 hn        1 SX5      0.353500
     31 H13         3.3740    1.2330   -5.2990 ha        1 SX5      0.177000
     32 H12         4.2600    1.6960   -7.5460 ha        1 SX5      0.155000
     33 H10         1.0170   -0.5620   -9.3240 ha        1 SX5      0.158000
     34 H6          1.7740   -2.6000   -8.0730 h1        1 SX5      0.063200
     35 H6A         0.7000   -3.4470   -9.2800 h1        1 SX5      0.063200
     36 H4          1.3070   -4.3150   -6.3590 hc        1 SX5      0.054200
     37 H5          3.1250   -4.7050   -8.0240 hc        1 SX5      0.039367
     38 H5A         2.3570   -6.2650   -7.5070 hc        1 SX5      0.039367
     39 H5B         1.9620   -5.5530   -9.1250 hc        1 SX5      0.039367
     40 H3         -0.4580   -5.6890   -8.5000 hc        1 SX5      0.046200
     41 H3A        -0.0960   -6.2920   -6.8340 hc        1 SX5      0.046200
     42 H7         -1.8550   -3.4680   -8.7340 h1        1 SX5      0.063200
     43 H7A        -2.3520   -2.6170   -7.1940 h1        1 SX5      0.063200
     44 H2         -1.2120   -4.3320   -5.8210 hc        1 SX5      0.054200
     45 H1         -2.9210   -5.5910   -8.0790 hc        1 SX5      0.039367
     46 H1A        -3.5450   -4.7530   -6.5980 hc        1 SX5      0.039367
     47 H1B        -2.6130   -6.3010   -6.4410 hc        1 SX5      0.039367
     48 H22         3.5270    1.1900   -1.6450 ho        1 SX5      0.453000
@<TRIPOS>BOND
     1    1    2 1   
     2    1   48 1   
     3    2    3 2   
     4    2    4 1   
     5    4    5 1   
     6    4   26 1   
     7    4   27 1   
     8    5    6 1   
     9    5   28 1   
    10    5   29 1   
    11    6    7 2   
    12    6    8 1   
    13    8    9 1   
    14    8   30 1   
    15    9   10 ar  
    16    9   15 ar  
    17   10   11 ar  
    18   10   31 1   
    19   11   12 ar  
    20   11   32 1   
    21   12   13 1   
    22   12   14 ar  
    23   14   15 ar  
    24   14   33 1   
    25   15   16 1   
    26   16   17 2   
    27   16   18 1   
    28   18   19 1   
    29   18   23 1   
    30   19   20 1   
    31   19   34 1   
    32   19   35 1   
    33   20   21 1   
    34   20   22 1   
    35   20   36 1   
    36   21   37 1   
    37   21   38 1   
    38   21   39 1   
    39   22   24 1   
    40   22   40 1   
    41   22   41 1   
    42   23   24 1   
    43   23   42 1   
    44   23   43 1   
    45   24   25 1   
    46   24   44 1   
    47   25   45 1   
    48   25   46 1   
    49   25   47 1   
@<TRIPOS>SUBSTRUCTURE
     1 SX5         1 TEMP              0 ****  ****    0 ROOT
