@<TRIPOS>MOLECULE
SX6
   60    62     1     0     0
SMALL
bcc


@<TRIPOS>ATOM
      1 O3         -4.7120   -1.8030    0.9680 o         1 SX6     -0.615100
      2 C18        -4.9190   -0.7780    0.2840 c         1 SX6      0.663100
      3 N3         -6.1880   -0.5230   -0.2090 n         1 SX6     -0.476800
      4 C22        -6.4950    0.5850   -1.0800 c3        1 SX6      0.059500
      5 C21        -7.8910    1.1750   -0.8210 c3        1 SX6      0.112900
      6 O4         -8.8940    0.1700   -0.7720 os        1 SX6     -0.409600
      7 C20        -8.6160   -0.8210    0.2120 c3        1 SX6      0.112900
      8 C19        -7.2530   -1.4850   -0.0210 c3        1 SX6      0.059500
      9 C17        -3.8050    0.2070   -0.0100 c3        1 SX6     -0.139400
     10 C16        -2.4960   -0.2940    0.5630 c3        1 SX6     -0.147400
     11 C15        -1.3710    0.6680    0.2230 c         1 SX6      0.667100
     12 O2         -1.5620    1.6740   -0.4850 o         1 SX6     -0.599100
     13 N2         -0.1230    0.3330    0.7400 n         1 SX6     -0.476100
     14 C14         1.0640    1.0600    0.6080 ca        1 SX6      0.132600
     15 C13         1.0820    2.4200    0.2180 ca        1 SX6     -0.167000
     16 C12         2.2760    3.1250    0.1470 ca        1 SX6     -0.061000
     17 C11         3.4900    2.5070    0.4620 ca        1 SX6     -0.068900
     18 BR1         5.0900    3.4710    0.3870 br        1 SX6     -0.081100
     19 C10         3.4970    1.1620    0.8290 ca        1 SX6     -0.051000
     20 C9          2.3090    0.4310    0.8870 ca        1 SX6     -0.189600
     21 C8          2.3580   -0.9980    1.3180 c         1 SX6      0.671700
     22 O1          1.6510   -1.3930    2.2720 o         1 SX6     -0.622100
     23 N1          3.2520   -1.8650    0.6990 n         1 SX6     -0.447800
     24 C6          3.7780   -1.6200   -0.6250 c3        1 SX6      0.081500
     25 C4          3.2330   -2.5780   -1.7000 c3        1 SX6     -0.088700
     26 C5          3.9510   -2.3280   -3.0060 c3        1 SX6     -0.090100
     27 C3          3.3990   -4.0210   -1.2550 c3        1 SX6     -0.074400
     28 C7          3.3200   -3.2480    1.1300 c3        1 SX6      0.081500
     29 C2          2.7610   -4.2500    0.1050 c3        1 SX6     -0.088700
     30 C1          3.0110   -5.6590    0.5900 c3        1 SX6     -0.090100
     31 H22        -5.7420    1.4110   -0.9490 h1        1 SX6      0.060700
     32 H22A       -6.4480    0.2330   -2.1520 h1        1 SX6      0.060700
     33 H21        -7.9000    1.7630    0.1350 h1        1 SX6      0.057700
     34 H21A       -8.1910    1.8300   -1.6810 h1        1 SX6      0.057700
     35 H20        -8.6670   -0.3600    1.2340 h1        1 SX6      0.057700
     36 H20A       -9.4350   -1.5760    0.0870 h1        1 SX6      0.057700
     37 H19        -7.3200   -2.1350   -0.9410 h1        1 SX6      0.060700
     38 H19A       -7.0080   -2.1430    0.8610 h1        1 SX6      0.060700
     39 H17        -3.7010    0.3500   -1.1190 hc        1 SX6      0.081700
     40 H17A       -4.0520    1.2050    0.4400 hc        1 SX6      0.081700
     41 H16        -2.5870   -0.4050    1.6770 hc        1 SX6      0.090200
     42 H16A       -2.2630   -1.3120    0.1480 hc        1 SX6      0.090200
     43 HN2        -0.0710   -0.4920    1.3060 hn        1 SX6      0.350500
     44 H13         0.1410    2.9380   -0.0320 ha        1 SX6      0.179000
     45 H12         2.2530    4.1850   -0.1540 ha        1 SX6      0.152000
     46 H10         4.4470    0.6600    1.0810 ha        1 SX6      0.157000
     47 H6          3.5620   -0.5630   -0.9460 h1        1 SX6      0.062950
     48 H6A         4.8990   -1.7460   -0.5690 h1        1 SX6      0.062950
     49 H4          2.1350   -2.3710   -1.8440 hc        1 SX6      0.055700
     50 H5          5.0460   -2.5200   -2.9010 hc        1 SX6      0.038533
     51 H5A         3.5490   -3.0030   -3.7990 hc        1 SX6      0.038533
     52 H5B         3.8070   -1.2700   -3.3340 hc        1 SX6      0.038533
     53 H3          2.9300   -4.7030   -2.0100 hc        1 SX6      0.045700
     54 H3A         4.4910   -4.2740   -1.2040 hc        1 SX6      0.045700
     55 H7          4.4080   -3.4850    1.3090 h1        1 SX6      0.062950
     56 H7A         2.7650   -3.3690    2.1030 h1        1 SX6      0.062950
     57 H2          1.6500   -4.0900    0.0140 hc        1 SX6      0.055700
     58 H1          4.1060   -5.8540    0.6960 hc        1 SX6      0.038533
     59 H1A         2.5250   -5.8210    1.5820 hc        1 SX6      0.038533
     60 H1B         2.5910   -6.3950   -0.1370 hc        1 SX6      0.038533
@<TRIPOS>BOND
     1    1    2 2   
     2    2    3 1   
     3    2    9 1   
     4    3    4 1   
     5    3    8 1   
     6    4    5 1   
     7    4   31 1   
     8    4   32 1   
     9    5    6 1   
    10    5   33 1   
    11    5   34 1   
    12    6    7 1   
    13    7    8 1   
    14    7   35 1   
    15    7   36 1   
    16    8   37 1   
    17    8   38 1   
    18    9   10 1   
    19    9   39 1   
    20    9   40 1   
    21   10   11 1   
    22   10   41 1   
    23   10   42 1   
    24   11   12 2   
    25   11   13 1   
    26   13   14 1   
    27   13   43 1   
    28   14   15 ar  
    29   14   20 ar  
    30   15   16 ar  
    31   15   44 1   
    32   16   17 ar  
    33   16   45 1   
    34   17   18 1   
    35   17   19 ar  
    36   19   20 ar  
    37   19   46 1   
    38   20   21 1   
    39   21   22 2   
    40   21   23 1   
    41   23   24 1   
    42   23   28 1   
    43   24   25 1   
    44   24   47 1   
    45   24   48 1   
    46   25   26 1   
    47   25   27 1   
    48   25   49 1   
    49   26   50 1   
    50   26   51 1   
    51   26   52 1   
    52   27   29 1   
    53   27   53 1   
    54   27   54 1   
    55   28   29 1   
    56   28   55 1   
    57   28   56 1   
    58   29   30 1   
    59   29   57 1   
    60   30   58 1   
    61   30   59 1   
    62   30   60 1   
@<TRIPOS>SUBSTRUCTURE
     1 SX6         1 TEMP              0 ****  ****    0 ROOT
