@<TRIPOS>MOLECULE
SX6
   61    63     1     0     0
SMALL
bcc


@<TRIPOS>ATOM
      1 O3          1.3380    0.5150   -2.2860 o         1 SX6     -0.714100
      2 C18         1.8710   -0.3230   -1.5090 c         1 SX6      0.672100
      3 N3          1.4780   -0.4060   -0.2030 n         1 SX6     -0.433800
      4 C22         2.1110   -1.2590    0.7810 c3        1 SX6      0.048000
      5 C21         1.0990   -1.9070    1.7420 c3        1 SX6      0.110900
      6 O4          0.2140   -0.9430    2.2930 os        1 SX6     -0.393600
      7 C20        -0.5050   -0.2370    1.2890 c3        1 SX6      0.110900
      8 C19         0.4430    0.4750    0.3140 c3        1 SX6      0.048000
      9 C17         2.9760   -1.2240   -2.0370 c3        1 SX6     -0.153400
     10 C16         3.0960   -1.1570   -3.5480 c3        1 SX6     -0.144400
     11 C15         3.3860    0.2440   -4.0050 c         1 SX6      0.588100
     12 O2          4.4030    0.8970   -3.8220 o         1 SX6     -0.441100
     13 N2          2.2740    0.9520   -4.7660 n4        1 SX6     -0.543200
     14 C14         2.5170    0.9900   -6.2070 ca        1 SX6     -0.002400
     15 C13         3.6380    1.6910   -6.6850 ca        1 SX6     -0.107000
     16 C12         3.9150    1.7120   -8.0500 ca        1 SX6     -0.072000
     17 C11         3.0880    1.0320   -8.9490 ca        1 SX6     -0.001900
     18 BR1         3.4780    1.0340  -10.7730 br        1 SX6     -0.000100
     19 C10         1.9620    0.3490   -8.4740 ca        1 SX6     -0.071000
     20 C9          1.6520    0.3370   -7.1120 ca        1 SX6     -0.099600
     21 C8          0.4720   -0.4450   -6.6150 c         1 SX6      0.655700
     22 O1          0.6480   -1.2020   -5.6240 o         1 SX6     -0.661100
     23 N1         -0.7390   -0.3690   -7.2500 n         1 SX6     -0.422800
     24 C6         -1.0910    0.6720   -8.1950 c3        1 SX6      0.078000
     25 C4         -2.3450    1.4690   -7.7950 c3        1 SX6     -0.080700
     26 C5         -2.7120    2.4110   -8.9200 c3        1 SX6     -0.095100
     27 C3         -3.4950    0.5300   -7.4740 c3        1 SX6     -0.081400
     28 C7         -1.8330   -1.2350   -6.8370 c3        1 SX6      0.078000
     29 C2         -3.0930   -0.4710   -6.4040 c3        1 SX6     -0.080700
     30 C1         -4.2080   -1.4590   -6.1420 c3        1 SX6     -0.095100
     31 H22         2.6950   -2.0800    0.2830 h1        1 SX6      0.069700
     32 H22A        2.8260   -0.6280    1.3850 h1        1 SX6      0.069700
     33 H21         0.5130   -2.7090    1.2190 h1        1 SX6      0.069450
     34 H21A        1.6390   -2.3340    2.6280 h1        1 SX6      0.069450
     35 H20        -1.1060    0.5220    1.8560 h1        1 SX6      0.069450
     36 H20A       -1.1860   -0.9410    0.7430 h1        1 SX6      0.069450
     37 H19         0.9470    1.3290    0.8510 h1        1 SX6      0.069700
     38 H19A       -0.1570    0.8940   -0.5420 h1        1 SX6      0.069700
     39 H17         2.7660   -2.2960   -1.7680 hc        1 SX6      0.099700
     40 H17A        3.9450   -0.9240   -1.5540 hc        1 SX6      0.099700
     41 H16         3.9660   -1.7940   -3.8780 hc        1 SX6      0.125200
     42 H16A        2.1630   -1.5710   -4.0260 hc        1 SX6      0.125200
     43 HN2         2.2020    1.9140   -4.4070 hn        1 SX6      0.486300
     44 H13         4.3170    2.2150   -5.9880 ha        1 SX6      0.177000
     45 H12         4.8010    2.2650   -8.4090 ha        1 SX6      0.183000
     46 H10         1.3090   -0.1970   -9.1800 ha        1 SX6      0.182000
     47 H6         -0.2390    1.3980   -8.3160 h1        1 SX6      0.067700
     48 H6A        -1.2790    0.1770   -9.1920 h1        1 SX6      0.067700
     49 H4         -2.1090    2.0760   -6.8750 hc        1 SX6      0.054200
     50 H5         -2.9580    1.8440   -9.8500 hc        1 SX6      0.047033
     51 H5A        -3.6050    3.0170   -8.6310 hc        1 SX6      0.047033
     52 H5B        -1.8670    3.1070   -9.1410 hc        1 SX6      0.047033
     53 H3         -3.8080   -0.0140   -8.4030 hc        1 SX6      0.059200
     54 H3A        -4.3760    1.1260   -7.1200 hc        1 SX6      0.059200
     55 H7         -2.0870   -1.8880   -7.7210 h1        1 SX6      0.067700
     56 H7A        -1.4940   -1.8980   -5.9910 h1        1 SX6      0.067700
     57 H2         -2.8720    0.0860   -5.4510 hc        1 SX6      0.054200
     58 H1         -5.1240   -0.9190   -5.8030 hc        1 SX6      0.047033
     59 H1A        -3.9080   -2.1850   -5.3480 hc        1 SX6      0.047033
     60 H1B        -4.4590   -2.0300   -7.0690 hc        1 SX6      0.047033
     61 H221        1.3850    0.4590   -4.5420 hn        1 SX6      0.486300
@<TRIPOS>BOND
     1    1    2 2   
     2    2    3 1   
     3    2    9 1   
     4    3    4 1   
     5    3    8 1   
     6    4    5 1   
     7    4   31 1   
     8    4   32 1   
     9    5    6 1   
    10    5   33 1   
    11    5   34 1   
    12    6    7 1   
    13    7    8 1   
    14    7   35 1   
    15    7   36 1   
    16    8   37 1   
    17    8   38 1   
    18    9   10 1   
    19    9   39 1   
    20    9   40 1   
    21   10   11 1   
    22   10   41 1   
    23   10   42 1   
    24   11   12 2   
    25   11   13 1   
    26   13   14 1   
    27   13   43 1   
    28   13   61 1   
    29   14   15 ar  
    30   14   20 ar  
    31   15   16 ar  
    32   15   44 1   
    33   16   17 ar  
    34   16   45 1   
    35   17   18 1   
    36   17   19 ar  
    37   19   20 ar  
    38   19   46 1   
    39   20   21 1   
    40   21   22 2   
    41   21   23 1   
    42   23   24 1   
    43   23   28 1   
    44   24   25 1   
    45   24   47 1   
    46   24   48 1   
    47   25   26 1   
    48   25   27 1   
    49   25   49 1   
    50   26   50 1   
    51   26   51 1   
    52   26   52 1   
    53   27   29 1   
    54   27   53 1   
    55   27   54 1   
    56   28   29 1   
    57   28   55 1   
    58   28   56 1   
    59   29   30 1   
    60   29   57 1   
    61   30   58 1   
    62   30   59 1   
    63   30   60 1   
@<TRIPOS>SUBSTRUCTURE
     1 SX6         1 TEMP              0 ****  ****    0 ROOT
