@<TRIPOS>MOLECULE
SX6
   60    62     1     0     0
SMALL
bcc


@<TRIPOS>ATOM
      1 O3          0.0880   -1.4300   -0.5040 o         1 SX6     -0.615100
      2 C18         1.0920   -0.6990   -0.3780 c         1 SX6      0.663100
      3 N3          1.4880   -0.2800    0.8820 n         1 SX6     -0.476800
      4 C22         2.5780    0.6360    1.1110 c3        1 SX6      0.059500
      5 C21         3.3620    0.3180    2.3940 c3        1 SX6      0.112900
      6 O4          2.5030    0.1340    3.5120 os        1 SX6     -0.409600
      7 C20         1.5390   -0.8890    3.2880 c3        1 SX6      0.112900
      8 C19         0.6880   -0.6040    2.0440 c3        1 SX6      0.059500
      9 C17         1.9020   -0.2650   -1.5830 c3        1 SX6     -0.139400
     10 C16         1.2640   -0.7760   -2.8570 c3        1 SX6     -0.147400
     11 C15         2.0470   -0.2950   -4.0670 c         1 SX6      0.667100
     12 O2          3.0280    0.4630   -3.9530 o         1 SX6     -0.599100
     13 N2          1.5790   -0.7460   -5.2970 ns        1 SX6     -0.476100
     14 C14         2.1320   -0.4840   -6.5540 ca        1 SX6      0.132600
     15 C13         3.4540   -0.0040   -6.7180 ca        1 SX6     -0.167000
     16 C12         3.9880    0.1960   -7.9820 ca        1 SX6     -0.061000
     17 C11         3.2320   -0.0750   -9.1280 ca        1 SX6     -0.068900
     18 Br1         3.9700    0.1740  -10.8280 br        1 SX6     -0.081100
     19 C10         1.9220   -0.5300   -8.9900 ca        1 SX6     -0.051000
     20 C9          1.3610   -0.7180   -7.7260 ca        1 SX6     -0.189600
     21 C8         -0.0360   -1.2390   -7.6240 c         1 SX6      0.671700
     22 O1         -0.2780   -2.2650   -6.9470 o         1 SX6     -0.622100
     23 N1         -1.0480   -0.6200   -8.3490 n         1 SX6     -0.447800
     24 C6         -0.9510    0.7510   -8.7990 c3        1 SX6      0.081500
     25 C4         -1.8880    1.7180   -8.0530 c3        1 SX6     -0.088700
     26 C5         -1.8110    3.0850   -8.6940 c3        1 SX6     -0.090100
     27 C3         -3.3130    1.1910   -8.0660 c3        1 SX6     -0.074400
     28 C7         -2.4010   -1.1370   -8.2710 c3        1 SX6      0.081500
     29 C2         -3.3760   -0.2230   -7.5110 c3        1 SX6     -0.088700
     30 C1         -4.7760   -0.7820   -7.6150 c3        1 SX6     -0.090100
     31 H22         3.3010    0.6110    0.2500 h1        1 SX6      0.060700
     32 H22A        2.1640    1.6840    1.1940 h1        1 SX6      0.060700
     33 H21         3.9960   -0.5960    2.2530 h1        1 SX6      0.057700
     34 H21A        4.0030    1.1940    2.6740 h1        1 SX6      0.057700
     35 H20         2.0570   -1.8800    3.1990 h1        1 SX6      0.057700
     36 H20A        0.8940   -0.8710    4.2050 h1        1 SX6      0.057700
     37 H19         0.0040    0.2660    2.2660 h1        1 SX6      0.060700
     38 H19A        0.0520   -1.5060    1.8180 h1        1 SX6      0.060700
     39 H17         2.9480   -0.6650   -1.5020 hc        1 SX6      0.081700
     40 H17A        1.9700    0.8560   -1.6180 hc        1 SX6      0.081700
     41 H16         0.2030   -0.4120   -2.9240 hc        1 SX6      0.090200
     42 H16A        1.2280   -1.8980   -2.8400 hc        1 SX6      0.090200
     43 HN2         0.7870   -1.3610   -5.2870 hn        1 SX6      0.350500
     44 H13         4.0770    0.2150   -5.8340 ha        1 SX6      0.179000
     45 H12         5.0230    0.5650   -8.0730 ha        1 SX6      0.152000
     46 H10         1.3130   -0.7490   -9.8840 ha        1 SX6      0.157000
     47 H6         -1.2220    0.7640   -9.8950 h1        1 SX6      0.062950
     48 H6A         0.1050    1.1250   -8.6960 h1        1 SX6      0.062950
     49 H4         -1.5450    1.8000   -6.9840 hc        1 SX6      0.055700
     50 H5         -2.1410    3.0430   -9.7600 hc        1 SX6      0.038533
     51 H5A        -0.7640    3.4720   -8.6630 hc        1 SX6      0.038533
     52 H5B        -2.4710    3.8020   -8.1490 hc        1 SX6      0.038533
     53 H3         -3.7060    1.1990   -9.1170 hc        1 SX6      0.045700
     54 H3A        -3.9690    1.8650   -7.4570 hc        1 SX6      0.045700
     55 H7         -2.3900   -2.1510   -7.7820 h1        1 SX6      0.062950
     56 H7A        -2.7700   -1.2560   -9.3300 h1        1 SX6      0.062950
     57 H2         -3.0750   -0.1980   -6.4260 hc        1 SX6      0.055700
     58 H1         -5.4900   -0.1370   -7.0480 hc        1 SX6      0.038533
     59 H1A        -5.1090   -0.8260   -8.6800 hc        1 SX6      0.038533
     60 H1B        -4.8140   -1.8140   -7.1890 hc        1 SX6      0.038533
@<TRIPOS>BOND
     1    1    2 2   
     2    2    3 1   
     3    2    9 1   
     4    3    4 1   
     5    3    8 1   
     6    4    5 1   
     7    4   31 1   
     8    4   32 1   
     9    5    6 1   
    10    5   33 1   
    11    5   34 1   
    12    6    7 1   
    13    7    8 1   
    14    7   35 1   
    15    7   36 1   
    16    8   37 1   
    17    8   38 1   
    18    9   10 1   
    19    9   39 1   
    20    9   40 1   
    21   10   11 1   
    22   10   41 1   
    23   10   42 1   
    24   11   12 2   
    25   11   13 1   
    26   13   14 1   
    27   13   43 1   
    28   14   15 ar  
    29   14   20 ar  
    30   15   16 ar  
    31   15   44 1   
    32   16   17 ar  
    33   16   45 1   
    34   17   18 1   
    35   17   19 ar  
    36   19   20 ar  
    37   19   46 1   
    38   20   21 1   
    39   21   22 2   
    40   21   23 1   
    41   23   24 1   
    42   23   28 1   
    43   24   25 1   
    44   24   47 1   
    45   24   48 1   
    46   25   26 1   
    47   25   27 1   
    48   25   49 1   
    49   26   50 1   
    50   26   51 1   
    51   26   52 1   
    52   27   29 1   
    53   27   53 1   
    54   27   54 1   
    55   28   29 1   
    56   28   55 1   
    57   28   56 1   
    58   29   30 1   
    59   29   57 1   
    60   30   58 1   
    61   30   59 1   
    62   30   60 1   
@<TRIPOS>SUBSTRUCTURE
     1 SX6         1 TEMP              0 ****  ****    0 ROOT
