@<TRIPOS>MOLECULE
SX6
   60    62     1     0     0
SMALL
bcc


@<TRIPOS>ATOM
      1 O3          0.1000   -1.4250   -0.5040 o         1 SX6     -0.616100
      2 C18         1.1040   -0.6930   -0.3790 c         1 SX6      0.663100
      3 N3          1.5020   -0.2750    0.8800 n         1 SX6     -0.476800
      4 C22         2.5940    0.6400    1.1080 c3        1 SX6      0.059500
      5 C21         3.3830    0.3160    2.3870 c3        1 SX6      0.112900
      6 O4          2.5300    0.1280    3.5080 os        1 SX6     -0.409600
      7 C20         1.5630   -0.8940    3.2830 c3        1 SX6      0.112900
      8 C19         0.7070   -0.6020    2.0440 c3        1 SX6      0.059500
      9 C17         1.9110   -0.2560   -1.5860 c3        1 SX6     -0.139400
     10 C16         1.2690   -0.7660   -2.8590 c3        1 SX6     -0.147400
     11 C15         2.0480   -0.2830   -4.0710 c         1 SX6      0.667100
     12 O2          3.0260    0.4790   -3.9590 o         1 SX6     -0.599100
     13 N2          1.5790   -0.7350   -5.3000 n         1 SX6     -0.476100
     14 C14         2.1290   -0.4710   -6.5580 ca        1 SX6      0.132600
     15 C13         3.4470    0.0150   -6.7240 ca        1 SX6     -0.167000
     16 C12         3.9780    0.2170   -7.9900 ca        1 SX6     -0.061000
     17 C11         3.2220   -0.0580   -9.1340 ca        1 SX6     -0.068900
     18 BR1         3.9540    0.1940  -10.8350 br        1 SX6     -0.081100
     19 C10         1.9140   -0.5190   -8.9930 ca        1 SX6     -0.051000
     20 C9          1.3560   -0.7100   -7.7280 ca        1 SX6     -0.189600
     21 C8         -0.0370   -1.2380   -7.6230 c         1 SX6      0.671700
     22 O1         -0.2730   -2.2640   -6.9450 o         1 SX6     -0.622100
     23 N1         -1.0540   -0.6240   -8.3460 n         1 SX6     -0.447800
     24 C6         -0.9660    0.7470   -8.7970 c3        1 SX6      0.081500
     25 C4         -1.9050    1.7100   -8.0490 c3        1 SX6     -0.088700
     26 C5         -1.8370    3.0770   -8.6910 c3        1 SX6     -0.090100
     27 C3         -3.3280    1.1750   -8.0590 c3        1 SX6     -0.074400
     28 C7         -2.4040   -1.1480   -8.2650 c3        1 SX6      0.081500
     29 C2         -3.3820   -0.2390   -7.5030 c3        1 SX6     -0.088700
     30 C1         -4.7800   -0.8050   -7.6040 c3        1 SX6     -0.090100
     31 H22         2.1820    1.6870    1.1980 h1        1 SX6      0.061200
     32 H22A        3.3140    0.6180    0.2440 h1        1 SX6      0.061200
     33 H21         4.0160   -0.5990    2.2390 h1        1 SX6      0.057700
     34 H21A        4.0270    1.1900    2.6680 h1        1 SX6      0.057700
     35 H20         2.0800   -1.8850    3.1890 h1        1 SX6      0.057700
     36 H20A        0.9220   -0.8780    4.2030 h1        1 SX6      0.057700
     37 H19         0.0690   -1.5030    1.8180 h1        1 SX6      0.061200
     38 H19A        0.0250    0.2670    2.2730 h1        1 SX6      0.061200
     39 H17         2.9580   -0.6550   -1.5080 hc        1 SX6      0.081700
     40 H17A        1.9770    0.8640   -1.6190 hc        1 SX6      0.081700
     41 H16         0.2080   -0.4040   -2.9220 hc        1 SX6      0.090200
     42 H16A        1.2360   -1.8890   -2.8430 hc        1 SX6      0.090200
     43 HN2         0.7900   -1.3530   -5.2870 hn        1 SX6      0.350500
     44 H13         4.0720    0.2380   -5.8420 ha        1 SX6      0.179000
     45 H12         5.0110    0.5910   -8.0830 ha        1 SX6      0.152000
     46 H10         1.3040   -0.7420   -9.8860 ha        1 SX6      0.157000
     47 H6         -1.2390    0.7580   -9.8920 h1        1 SX6      0.062950
     48 H6A         0.0890    1.1270   -8.6970 h1        1 SX6      0.062950
     49 H4         -1.5610    1.7940   -6.9810 hc        1 SX6      0.055700
     50 H5         -2.1700    3.0330   -9.7560 hc        1 SX6      0.038533
     51 H5A        -2.5000    3.7900   -8.1450 hc        1 SX6      0.038533
     52 H5B        -0.7920    3.4690   -8.6620 hc        1 SX6      0.038533
     53 H3         -3.7230    1.1810   -9.1090 hc        1 SX6      0.045700
     54 H3A        -3.9860    1.8460   -7.4480 hc        1 SX6      0.045700
     55 H7         -2.3880   -2.1620   -7.7760 h1        1 SX6      0.062950
     56 H7A        -2.7750   -1.2690   -9.3240 h1        1 SX6      0.062950
     57 H2         -3.0800   -0.2120   -6.4190 hc        1 SX6      0.055700
     58 H1         -5.4960   -0.1640   -7.0360 hc        1 SX6      0.038533
     59 H1A        -4.8120   -1.8370   -7.1780 hc        1 SX6      0.038533
     60 H1B        -5.1140   -0.8510   -8.6690 hc        1 SX6      0.038533
@<TRIPOS>BOND
     1    1    2 2   
     2    2    3 1   
     3    2    9 1   
     4    3    4 1   
     5    3    8 1   
     6    4    5 1   
     7    4   31 1   
     8    4   32 1   
     9    5    6 1   
    10    5   33 1   
    11    5   34 1   
    12    6    7 1   
    13    7    8 1   
    14    7   35 1   
    15    7   36 1   
    16    8   37 1   
    17    8   38 1   
    18    9   10 1   
    19    9   39 1   
    20    9   40 1   
    21   10   11 1   
    22   10   41 1   
    23   10   42 1   
    24   11   12 2   
    25   11   13 1   
    26   13   14 1   
    27   13   43 1   
    28   14   15 ar  
    29   14   20 ar  
    30   15   16 ar  
    31   15   44 1   
    32   16   17 ar  
    33   16   45 1   
    34   17   18 1   
    35   17   19 ar  
    36   19   20 ar  
    37   19   46 1   
    38   20   21 1   
    39   21   22 2   
    40   21   23 1   
    41   23   24 1   
    42   23   28 1   
    43   24   25 1   
    44   24   47 1   
    45   24   48 1   
    46   25   26 1   
    47   25   27 1   
    48   25   49 1   
    49   26   50 1   
    50   26   51 1   
    51   26   52 1   
    52   27   29 1   
    53   27   53 1   
    54   27   54 1   
    55   28   29 1   
    56   28   55 1   
    57   28   56 1   
    58   29   30 1   
    59   29   57 1   
    60   30   58 1   
    61   30   59 1   
    62   30   60 1   
@<TRIPOS>SUBSTRUCTURE
     1 SX6         1 TEMP              0 ****  ****    0 ROOT
