@<TRIPOS>MOLECULE
SX7
   50    52     1     0     0
SMALL
bcc


@<TRIPOS>ATOM
      1 O1          0.9210   -1.1630   -0.9130 os        1 SX7     -0.260000
      2 C7          7.3770    4.0400   -7.4630 c2        1 SX7     -0.096000
      3 C6          7.0750    2.9050   -6.7060 c2        1 SX7     -0.046000
      4 C1          8.6490   -1.1330   -5.2050 c3        1 SX7     -0.226000
      5 N1          8.1350    0.6320   -6.9070 n3        1 SX7     -0.089000
      6 C5          6.9440    1.5310   -7.2140 c3        1 SX7     -0.008000
      7 C4          6.9280    1.4210   -8.7360 c2        1 SX7     -0.266000
      8 C3          7.9520    0.5800   -9.1270 c1        1 SX7     -0.273000
      9 C19         1.4750   -0.7660    0.3040 c2        1 SX7      0.135000
     10 N6          1.5080   -1.5990    1.2940 n2        1 SX7     -0.288000
     11 C21         0.2650   -2.4260   -0.9780 c3        1 SX7     -0.061000
     12 C20         2.0730   -1.2580    2.5550 c3        1 SX7     -0.118000
     13 C17         1.9340    0.6430    0.2410 c2        1 SX7     -0.305000
     14 C16         2.7180    1.0970   -0.8520 c2        1 SX7      0.275000
     15 N5          3.1410    0.3050   -1.8480 n3        1 SX7     -0.309000
     16 C15         3.0600    2.5720   -0.8730 c3        1 SX7     -0.071000
     17 C14         4.2440    2.8890   -1.6100 c1        1 SX7     -0.154000
     18 C18         1.6560    1.5540    1.2330 c1        1 SX7     -0.231000
     19 C13         5.2370    3.1770   -2.2120 c1        1 SX7     -0.129000
     20 C10         6.4300    3.4860   -2.9470 c3        1 SX7     -0.051000
     21 C9          6.5720    4.9840   -3.1270 c2        1 SX7     -0.018000
     22 N4          6.8730    5.6040   -4.2290 n2        1 SX7     -0.144000
     23 C11         6.5310    2.6560   -4.1820 c1        1 SX7     -0.077000
     24 C12         6.8540    3.3380   -5.3450 c2        1 SX7     -0.236000
     25 C8          7.0260    4.7820   -5.3600 c2        1 SX7      0.063000
     26 N3          7.3460    5.1790   -6.6420 na        1 SX7     -0.135000
     27 N2          8.6330    0.1350   -7.9720 n2        1 SX7      0.083000
     28 H7          7.6090    4.1230   -8.5290 h4        1 SX7      0.199000
     29 H1          7.6930   -1.6810   -5.3820 hc        1 SX7      0.094333
     30 H1A         8.9220   -1.2320   -4.1260 hc        1 SX7      0.094333
     31 H1B         9.4500   -1.6070   -5.8230 hc        1 SX7      0.094333
     32 H4          6.0410    1.0310   -6.7570 h1        1 SX7      0.166000
     33 H3          6.1960    1.9390   -9.3440 ha        1 SX7      0.165000
     34 H2          9.4830    0.8670   -5.3230 h1        1 SX7      0.131000
     35 H2A         7.7080    0.8070   -4.8610 h1        1 SX7      0.131000
     36 H21        -0.5700   -2.4770   -0.2390 h1        1 SX7      0.083333
     37 H21A       -0.1300   -2.4580   -2.0250 h1        1 SX7      0.083333
     38 H21B        0.9900   -3.2560   -0.8010 h1        1 SX7      0.083333
     39 H20         2.6470   -2.1530    2.9180 h1        1 SX7      0.078333
     40 H20A        1.2440   -1.0480    3.2860 h1        1 SX7      0.078333
     41 H20B        2.7610   -0.3680    2.5440 h1        1 SX7      0.078333
     42 HN5         2.8580   -0.6500   -1.8850 hn        1 SX7      0.253500
     43 HN5A        3.6940    0.6680   -2.5910 hn        1 SX7      0.253500
     44 H15         2.1720    3.1130   -1.3150 hc        1 SX7      0.173000
     45 H14         3.1400    2.9230    0.2050 hc        1 SX7      0.173000
     46 H18         1.0200    1.2770    2.0790 ha        1 SX7      0.069000
     47 H9          6.4230    5.6160   -2.2290 h4        1 SX7      0.175000
     48 H11         7.3330    3.1580   -2.3250 hc        1 SX7      0.176000
     49 HN3         7.5150    6.1070   -6.9410 hn        1 SX7      0.270000
     50 C2          8.5040    0.3440   -5.5220 c3        1 SX7     -0.066000
@<TRIPOS>BOND
     1    1    9 1   
     2    1   11 1   
     3    2    3 1   
     4    2   26 1   
     5    2   28 1   
     6    3    6 1   
     7    3   24 1   
     8    4   29 1   
     9    4   30 1   
    10    4   31 1   
    11    4   50 1   
    12    5    6 1   
    13    5   27 1   
    14    5   50 1   
    15    6    7 1   
    16    6   32 1   
    17    7    8 1   
    18    7   33 1   
    19    8   27 1   
    20    9   10 1   
    21    9   13 1   
    22   10   12 1   
    23   11   36 1   
    24   11   37 1   
    25   11   38 1   
    26   12   39 1   
    27   12   40 1   
    28   12   41 1   
    29   13   14 1   
    30   13   18 1   
    31   14   15 1   
    32   14   16 1   
    33   15   42 1   
    34   15   43 1   
    35   16   17 1   
    36   16   44 1   
    37   16   45 1   
    38   17   19 1   
    39   18   46 1   
    40   19   20 1   
    41   20   21 1   
    42   20   23 1   
    43   20   48 1   
    44   21   22 1   
    45   21   47 1   
    46   22   25 1   
    47   23   24 1   
    48   24   25 1   
    49   25   26 1   
    50   26   49 1   
    51   34   50 1   
    52   35   50 1   
@<TRIPOS>SUBSTRUCTURE
     1 SX7         1 TEMP              0 ****  ****    0 ROOT
