@<TRIPOS>MOLECULE
SX7
   50    53     1     0     0
SMALL
bcc


@<TRIPOS>ATOM
      1 O1          6.1950   -0.0200    0.4510 o         1 SX7     -0.631100
      2 C7         -4.0610    1.7900    1.0440 cc        1 SX7     -0.086100
      3 C6         -3.4700    0.5870    0.6430 cd        1 SX7     -0.066400
      4 C1         -4.9180    0.3690   -3.2030 c3        1 SX7     -0.113100
      5 N1         -5.0760   -0.6110   -0.9050 na        1 SX7      0.090400
      6 C5         -4.1340   -0.5840    0.1510 cd        1 SX7     -0.038100
      7 C4         -4.0250   -1.9080    0.6140 cc        1 SX7     -0.287300
      8 C3         -4.9190   -2.6680   -0.2240 cc        1 SX7      0.290200
      9 C19         5.1400    0.1230   -0.2080 c         1 SX7      0.685700
     10 N6          5.1390    0.9170   -1.3440 n         1 SX7     -0.472800
     11 C21         6.3250    1.6330   -1.7290 c3        1 SX7      0.078300
     12 C20         4.0290    0.9920   -2.2470 c3        1 SX7      0.078300
     13 C17         3.8790   -0.5440    0.2240 ca        1 SX7     -0.209600
     14 C16         3.8920   -1.9290    0.5410 ca        1 SX7      0.211600
     15 N5          5.0160   -2.7130    0.3330 nh        1 SX7     -0.829200
     16 C15         2.6810   -2.5130    1.0030 ca        1 SX7     -0.209000
     17 C14         1.5340   -1.7530    1.1470 ca        1 SX7     -0.057000
     18 C18         2.7140    0.2060    0.3870 ca        1 SX7     -0.052000
     19 C13         1.5320   -0.3800    0.8480 cp        1 SX7     -0.092000
     20 C10         0.3230    0.4130    1.0180 cp        1 SX7     -0.165300
     21 C9          0.4120    1.7370    1.5470 ca        1 SX7      0.421200
     22 N4         -0.6160    2.5640    1.7490 nb        1 SX7     -0.666000
     23 C11        -0.9300   -0.0940    0.6750 ca        1 SX7     -0.041000
     24 C12        -2.0470    0.7200    0.8640 ca        1 SX7     -0.176100
     25 C8         -1.8390    2.0560    1.4070 ca        1 SX7      0.416800
     26 N3         -3.0920    2.6840    1.4950 na        1 SX7     -0.281100
     27 N2         -5.5200   -1.8570   -1.1300 nd        1 SX7     -0.509800
     28 H7         -5.1170    2.0710    1.0470 h4        1 SX7      0.174000
     29 H1         -5.2120    1.2870   -3.7670 hc        1 SX7      0.050700
     30 H1A        -3.8080    0.2620   -3.2470 hc        1 SX7      0.050700
     31 H1B        -5.3800   -0.5190   -3.6980 hc        1 SX7      0.050700
     32 H4         -3.4170   -2.2740    1.4320 ha        1 SX7      0.165000
     33 H3         -5.1280   -3.7370   -0.1800 h4        1 SX7      0.041100
     34 H2         -4.9380    1.4280   -1.3060 h1        1 SX7      0.060200
     35 H2A        -6.5220    0.6360   -1.7690 h1        1 SX7      0.060200
     36 H21         6.7890    1.1580   -2.6350 h1        1 SX7      0.044700
     37 H21A        6.0550    2.6940   -1.9780 h1        1 SX7      0.044700
     38 H21B        7.0730    1.6280   -0.8930 h1        1 SX7      0.044700
     39 H20         3.4700    1.9560   -2.0950 h1        1 SX7      0.044700
     40 H20A        4.4010    0.9620   -3.3070 h1        1 SX7      0.044700
     41 H20B        3.3210    0.1350   -2.0920 h1        1 SX7      0.044700
     42 HN5         5.8890   -2.2280    0.3150 hn        1 SX7      0.415800
     43 HN5A        5.0320   -3.5760    0.8260 hn        1 SX7      0.415800
     44 H15         2.6550   -3.5840    1.2520 ha        1 SX7      0.138000
     45 H14         0.6100   -2.2280    1.5130 ha        1 SX7      0.137000
     46 H18         2.7280    1.2820    0.1460 ha        1 SX7      0.140000
     47 H9          1.4010    2.1420    1.8350 h4        1 SX7      0.028100
     48 H11        -1.0440   -1.1080    0.2610 ha        1 SX7      0.151000
     49 HN3        -3.2530    3.5830    1.8660 hn        1 SX7      0.312700
     50 C2         -5.4010    0.5110   -1.7690 c3        1 SX7      0.055300
@<TRIPOS>BOND
     1    1    9 2   
     2    2    3 2   
     3    2   26 1   
     4    2   28 1   
     5    3    6 1   
     6    3   24 1   
     7    4   29 1   
     8    4   30 1   
     9    4   31 1   
    10    4   50 1   
    11    5    6 1   
    12    5   27 1   
    13    5   50 1   
    14    6    7 2   
    15    7    8 1   
    16    7   32 1   
    17    8   27 2   
    18    8   33 1   
    19    9   10 1   
    20    9   13 1   
    21   10   11 1   
    22   10   12 1   
    23   11   36 1   
    24   11   37 1   
    25   11   38 1   
    26   12   39 1   
    27   12   40 1   
    28   12   41 1   
    29   13   14 ar  
    30   13   18 ar  
    31   14   15 1   
    32   14   16 ar  
    33   15   42 1   
    34   15   43 1   
    35   16   17 ar  
    36   16   44 1   
    37   17   19 ar  
    38   17   45 1   
    39   18   19 ar  
    40   18   46 1   
    41   19   20 1   
    42   20   21 ar  
    43   20   23 ar  
    44   21   22 ar  
    45   21   47 1   
    46   22   25 ar  
    47   23   24 ar  
    48   23   48 1   
    49   24   25 ar  
    50   25   26 1   
    51   26   49 1   
    52   34   50 1   
    53   35   50 1   
@<TRIPOS>SUBSTRUCTURE
     1 SX7         1 TEMP              0 ****  ****    0 ROOT
