@<TRIPOS>MOLECULE
SX7
   51    54     1     0     0
SMALL
bcc


@<TRIPOS>ATOM
      1 O1          0.8720    0.4740   -0.8480 os        1 SX7     -0.234000
      2 C7          7.3990    3.8480   -4.1820 c2        1 SX7     -0.100000
      3 C6          6.8990    2.6260   -4.6470 c2        1 SX7     -0.024000
      4 C1          9.0350    2.8240   -8.4170 c3        1 SX7     -0.219000
      5 N1          6.8840    2.5970   -7.1710 n3        1 SX7     -0.001000
      6 C5          6.4330    2.2730   -5.9530 c2        1 SX7      0.013000
      7 C4          5.2230    1.3520   -6.1460 c3        1 SX7     -0.178000
      8 C3          5.1490    1.2910   -7.6670 c1        1 SX7     -0.227000
      9 C19         2.1900    0.4820   -0.5150 c2        1 SX7      0.377000
     10 N6          2.7150    1.0930    0.5560 n3        1 SX7     -0.253000
     11 C21        -0.1610    0.8120    0.0860 c3        1 SX7     -0.082000
     12 C20         2.0710    1.9030    1.5490 c3        1 SX7     -0.115000
     13 C17         3.0690   -0.2400   -1.4350 c2        1 SX7     -0.310000
     14 C16         2.6660   -0.8400   -2.6870 c2        1 SX7      0.297000
     15 N5          1.4600   -0.7220   -3.2510 n3        1 SX7     -0.273000
     16 C15         3.6840   -1.6030   -3.4040 c2        1 SX7     -0.276000
     17 C14         4.9630   -1.6850   -2.9790 c2        1 SX7      0.047000
     18 C18         4.3880   -0.2880   -1.0080 c1        1 SX7     -0.184000
     19 C13         5.4180   -1.0500   -1.7090 c3        1 SX7     -0.079000
     20 C10         6.6490   -0.1880   -2.0230 c3        1 SX7     -0.146000
     21 C9          6.9820    0.7660   -0.9100 c2        1 SX7      0.005000
     22 N4          7.3230    2.0150   -1.0500 n2        1 SX7     -0.149000
     23 C11         6.4750    0.3980   -3.3770 c1        1 SX7     -0.086000
     24 C12         6.8420    1.7270   -3.5120 c2        1 SX7     -0.217000
     25 C8          7.2990    2.5020   -2.3690 c2        1 SX7      0.071000
     26 N3          7.6350    3.7690   -2.8010 na        1 SX7     -0.131000
     27 N2          6.0970    1.9990   -8.2060 n2        1 SX7     -0.159000
     28 H7          7.5880    4.7820   -4.7180 h4        1 SX7      0.194000
     29 H1          9.4590    1.8770   -8.0060 hc        1 SX7      0.101000
     30 H1A         8.5610    2.6010   -9.4040 hc        1 SX7      0.101000
     31 H1B         9.8660    3.5540   -8.5720 hc        1 SX7      0.101000
     32 H4          5.4270    0.3530   -5.6870 hc        1 SX7      0.149500
     33 H3          4.3010    1.7970   -5.7090 hc        1 SX7      0.149500
     34 H2          7.6360    4.4000   -7.9030 h1        1 SX7      0.102500
     35 H2A         8.5510    3.6870   -6.4830 h1        1 SX7      0.102500
     36 H21        -0.1670    1.9100    0.2790 h1        1 SX7      0.117667
     37 H21A       -1.0890    0.5090   -0.4700 h1        1 SX7      0.117667
     38 H21B       -0.0570    0.2150    1.0230 h1        1 SX7      0.117667
     39 H20         1.5440    2.7750    1.0750 h1        1 SX7      0.117333
     40 H20A        1.3460    1.3030    2.1600 h1        1 SX7      0.117333
     41 H20B        2.8660    2.3040    2.2380 h1        1 SX7      0.117333
     42 HN5         0.7230   -0.2040   -2.8270 hn        1 SX7      0.263000
     43 HN5A        1.2750   -1.1400   -4.1390 hn        1 SX7      0.263000
     44 H15         3.3900   -2.0960   -4.3490 ha        1 SX7      0.168000
     45 H14         5.7230   -2.2290   -3.5690 ha        1 SX7      0.175000
     46 H18         5.7270   -1.8720   -0.9850 hc        1 SX7      0.168000
     47 H9          6.9540    0.3720    0.1260 h4        1 SX7      0.177000
     48 H11         7.5450   -0.8810   -2.1380 hc        1 SX7      0.177000
     49 HN3         7.9880    4.5050   -2.2370 hn        1 SX7      0.278000
     50 H61         3.7260    0.9740    0.6390 hn        1 SX7      0.315000
     51 C2          8.0350    3.4420   -7.4550 c3        1 SX7     -0.052000
@<TRIPOS>BOND
     1    1    9 1   
     2    1   11 1   
     3    2    3 1   
     4    2   26 1   
     5    2   28 1   
     6    3    6 1   
     7    3   24 1   
     8    4   29 1   
     9    4   30 1   
    10    4   31 1   
    11    4   51 1   
    12    5    6 1   
    13    5   27 1   
    14    5   51 1   
    15    6    7 1   
    16    7    8 1   
    17    7   32 1   
    18    7   33 1   
    19    8   27 1   
    20    9   10 1   
    21    9   13 1   
    22   10   12 1   
    23   10   50 1   
    24   11   36 1   
    25   11   37 1   
    26   11   38 1   
    27   12   39 1   
    28   12   40 1   
    29   12   41 1   
    30   13   14 1   
    31   13   18 1   
    32   14   15 1   
    33   14   16 1   
    34   15   42 1   
    35   15   43 1   
    36   16   17 1   
    37   16   44 1   
    38   17   19 1   
    39   17   45 1   
    40   18   19 1   
    41   19   20 1   
    42   19   46 1   
    43   20   21 1   
    44   20   23 1   
    45   20   48 1   
    46   21   22 1   
    47   21   47 1   
    48   22   25 1   
    49   23   24 1   
    50   24   25 1   
    51   25   26 1   
    52   26   49 1   
    53   34   51 1   
    54   35   51 1   
@<TRIPOS>SUBSTRUCTURE
     1 SX7         1 TEMP              0 ****  ****    0 ROOT
