@<TRIPOS>MOLECULE
SX7
   50    40     1     0     0
SMALL
bcc


@<TRIPOS>ATOM
      1 O1         -3.0850   -3.6820    1.8100 o         1 SX7     -0.391000
      2 C7          2.2690    3.5820   -2.1550 c1        1 SX7     -0.061000
      3 C6          1.9550    2.2280   -2.2010 c2        1 SX7     -0.088000
      4 C1          0.3220    2.1710   -6.3670 c3        1 SX7     -0.233000
      5 N1          1.8570    1.6550   -4.6030 n2        1 SX7     -0.122000
      6 C5          2.4450    1.6080   -3.4010 c2        1 SX7      0.002000
      7 C4          3.5400    0.7800   -3.4960 c1        1 SX7     -0.225000
      8 C3          3.6090    0.3240   -4.7730 c1        1 SX7     -0.174000
      9 C2          0.6210    2.3070   -4.9060 c2        1 SX7     -0.008000
     10 C19        -2.6880   -2.8570    2.6440 c1        1 SX7      0.359000
     11 N6         -3.5720   -2.4410    3.7350 n2        1 SX7     -0.332000
     12 C21        -3.0960   -2.4220    5.0510 c3        1 SX7     -0.076500
     13 C20        -4.9740   -2.1530    3.4620 c3        1 SX7     -0.076500
     14 C17        -1.2820   -2.1910    2.4750 c2        1 SX7     -0.189000
     15 C16        -0.1360   -2.7910    3.0620 c2        1 SX7      0.130000
     16 N5         -0.2800   -3.8950    3.9170 n3        1 SX7     -0.338000
     17 C15         1.1130   -2.2100    2.8890 c1        1 SX7     -0.209000
     18 C14         1.2430   -1.0520    2.1510 c1        1 SX7     -0.048000
     19 C18        -1.1470   -1.0310    1.7360 c1        1 SX7     -0.051000
     20 C13         0.1180   -0.4550    1.5700 c1        1 SX7     -0.095000
     21 C10         0.2780    0.6580    0.7410 c1        1 SX7     -0.095000
     22 C9          0.2320    1.8090    1.5210 c1        1 SX7     -0.045000
     23 N4          0.7420    2.9770    1.0460 n1        1 SX7     -0.141000
     24 C11         0.8450    0.7030   -0.5220 c1        1 SX7     -0.048000
     25 C12         1.3630    1.8910   -1.0010 c1        1 SX7     -0.098000
     26 C8          1.3110    3.0260   -0.2190 c1        1 SX7      0.026000
     27 N3          1.8730    4.0690   -0.9380 n1        1 SX7     -0.195000
     28 N2          2.5760    0.8590   -5.4620 n2        1 SX7     -0.078000
     29 H7          2.7490    4.0550   -2.8040 DU        1 SX7      0.194500
     30 H1         -0.0330    1.2390   -6.5560 hc        1 SX7      0.087333
     31 H1A         1.1150    2.3140   -6.8680 hc        1 SX7      0.087333
     32 H1B        -0.3350    2.8180   -6.6180 hc        1 SX7      0.087333
     33 H4          4.1590    0.5580   -2.7730 DU        1 SX7      0.194500
     34 H3          4.2930   -0.2900   -5.1370 DU        1 SX7      0.194500
     35 H2          0.6910    3.2880   -4.6660 ha        1 SX7      0.105500
     36 H2A        -0.0990    1.8960   -4.3890 ha        1 SX7      0.105500
     37 H21        -2.8660   -3.3510    5.3320 h1        1 SX7      0.083500
     38 H21A       -3.7940   -2.0600    5.6490 h1        1 SX7      0.083500
     39 H21B       -2.3120   -1.8680    5.1010 h1        1 SX7      0.083500
     40 H20        -5.4380   -2.9710    3.2900 h1        1 SX7      0.083500
     41 H20A       -5.3690   -1.7130    4.2240 h1        1 SX7      0.083500
     42 H20B       -5.0380   -1.5850    2.6980 h1        1 SX7      0.083500
     43 HN5        -0.9280   -4.4630    3.7870 hn        1 SX7      0.211000
     44 HN5A        0.3540   -4.0630    4.5580 hn        1 SX7      0.211000
     45 H15         1.9160   -2.6300    3.2980 ha        1 SX7      0.138000
     46 H14         2.1180   -0.6480    2.0330 ha        1 SX7      0.144000
     47 H18        -1.9730   -0.5910    1.3090 ha        1 SX7      0.140000
     48 H9         -0.2190    1.7860    2.4380 ha        1 SX7      0.159000
     49 H11         0.9900   -0.1380   -1.0280 ha        1 SX7      0.144000
     50 HN3         1.9660    4.9500   -0.6430 DU        1 SX7      0.194500
@<TRIPOS>BOND
     1    1   10 1   
     2    2    3 1   
     3    2   27 1   
     4    3    6 1   
     5    3   25 1   
     6    4    9 1   
     7    4   30 1   
     8    4   31 1   
     9    4   32 1   
    10    5    6 1   
    11    5   28 1   
    12    6    7 1   
    13    7    8 1   
    14    8   28 1   
    15    9   35 1   
    16    9   36 1   
    17   10   14 1   
    18   11   12 1   
    19   11   13 1   
    20   12   37 1   
    21   12   38 1   
    22   12   39 1   
    23   13   40 1   
    24   13   41 1   
    25   13   42 1   
    26   14   15 1   
    27   14   19 1   
    28   15   16 1   
    29   15   17 1   
    30   16   43 1   
    31   16   44 1   
    32   17   45 1   
    33   18   20 1   
    34   18   46 1   
    35   19   47 1   
    36   21   24 1   
    37   22   23 1   
    38   22   48 1   
    39   24   49 1   
    40   25   26 1   
@<TRIPOS>SUBSTRUCTURE
     1 SX7         1 TEMP              0 ****  ****    0 ROOT
