@<TRIPOS>MOLECULE
SX8
   39    30     1     0     0
SMALL
bcc


@<TRIPOS>ATOM
      1 C7          0.5000   -0.3180   -3.4420 c1        1 SX8     -0.108750
      2 C6          1.8780   -0.3080   -3.4670 c1        1 SX8     -0.108750
      3 C1          7.2750    0.8810   -3.4000 c3        1 SX8     -0.063000
      4 N1          6.0530    0.1470   -3.2210 n3        1 SX8     -0.120000
      5 C5          2.5960   -0.2440   -2.2710 c1        1 SX8     -0.013000
      6 C4          4.5550   -1.4870   -3.2500 c1        1 SX8     -0.134000
      7 C3          3.9850   -0.3800   -2.6620 c1        1 SX8     -0.187000
      8 C2          4.9220    0.6230   -2.6510 c1        1 SX8     -0.048000
      9 N2          5.8260   -1.1680   -3.5950 n2        1 SX8     -0.071000
     10 N7          1.9330   -0.1920   -1.0750 n1        1 SX8     -0.033500
     11 N6          0.5140   -0.2020   -1.0460 n1        1 SX8     -0.033500
     12 C8         -0.1860   -0.2640   -2.2010 c1        1 SX8     -0.013000
     13 C9         -0.3820   -0.1600   -0.0100 c1        1 SX8     -0.327000
     14 N4         -1.6320   -0.1960   -0.5350 n2        1 SX8     -0.001000
     15 N3         -1.5180   -0.2600   -1.8870 n1        1 SX8     -0.065000
     16 S1         -0.4250   -0.3570    1.7860 s         1 SX8      0.489000
     17 C10        -2.0400    0.1130    2.4020 c2        1 SX8     -0.266000
     18 C18        -2.9880   -0.8400    2.8070 c2        1 SX8     -0.105000
     19 C17        -4.1520   -0.4320    3.4690 c1        1 SX8     -0.069000
     20 C13        -4.3670    0.9080    3.7230 c1        1 SX8     -0.005000
     21 C12        -3.4160    1.8640    3.3170 c1        1 SX8     -0.087000
     22 C11        -2.2570    1.4580    2.6580 c1        1 SX8     -0.115000
     23 C16        -5.1190   -1.3730    3.8260 c1        1 SX8     -0.080000
     24 C15        -6.2740   -0.9670    4.4250 c1        1 SX8     -0.108750
     25 C14        -6.4880    0.3860    4.6800 c1        1 SX8     -0.108750
     26 N5         -5.5340    1.3140    4.3280 n1        1 SX8     -0.129000
     27 H7         -0.0070   -0.3620   -4.2830 ha        1 SX8      0.159750
     28 H6          2.3590   -0.3180   -4.3360 ha        1 SX8      0.159750
     29 H1          7.0800    1.7340   -3.8500 h1        1 SX8      0.104333
     30 H1A         7.6840    1.0620   -2.5120 h1        1 SX8      0.104333
     31 H1B         7.9060    0.3500   -3.9540 h1        1 SX8      0.104333
     32 H4          4.1200   -2.3500   -3.3920 DU        1 SX8      0.190500
     33 H2          4.8240    1.5010   -2.2100 DU        1 SX8      0.190500
     34 H18        -2.8530   -1.8060    2.5820 ha        1 SX8      0.143000
     35 H12        -3.5690    2.8150    3.4970 ha        1 SX8      0.152000
     36 H11        -1.5940    2.1430    2.3360 ha        1 SX8      0.142000
     37 H16        -4.9620   -2.3600    3.6380 ha        1 SX8      0.141000
     38 H15        -6.9520   -1.6240    4.6740 ha        1 SX8      0.159750
     39 H14        -7.2990    0.6700    5.1020 ha        1 SX8      0.159750
@<TRIPOS>BOND
     1    1    2 1   
     2    1   27 1   
     3    2   28 1   
     4    3    4 1   
     5    3   29 1   
     6    3   30 1   
     7    3   31 1   
     8    4    8 1   
     9    4    9 1   
    10    5   10 1   
    11    6    7 1   
    12    6    9 1   
    13    7    8 1   
    14   11   12 1   
    15   13   14 1   
    16   14   15 1   
    17   16   17 1   
    18   17   18 1   
    19   17   22 1   
    20   18   19 1   
    21   18   34 1   
    22   19   23 1   
    23   20   21 1   
    24   20   26 1   
    25   21   35 1   
    26   22   36 1   
    27   23   37 1   
    28   24   25 1   
    29   24   38 1   
    30   25   39 1   
@<TRIPOS>SUBSTRUCTURE
     1 SX8         1 TEMP              0 ****  ****    0 ROOT
