@<TRIPOS>MOLECULE
SX8
   39    39     1     0     0
SMALL
bcc


@<TRIPOS>ATOM
      1 C7          0.5510    0.0350   -0.4590 c3        1 SX8     -0.173000
      2 C6          1.9940   -0.1710   -0.4270 c1        1 SX8      0.001000
      3 N1          5.6560   -0.2780    2.8300 n2        1 SX8     -0.144000
      4 C5          2.6560   -0.2080    0.8820 c2        1 SX8     -0.075000
      5 C4          5.5410   -0.8310   -2.2680 c1        1 SX8      0.106000
      6 C3          4.0930   -0.4060    0.8250 c2        1 SX8     -0.188000
      7 C2          4.8840   -0.4380    1.8870 c1        1 SX8      0.063000
      8 N2          5.2970   -0.7360   -3.4160 n2        1 SX8     -0.378000
      9 N7          2.0400   -0.0800    2.0650 n2        1 SX8      0.006000
     10 N6          0.7260    0.0990    2.0430 na        1 SX8     -0.111000
     11 C8         -0.1020    0.1740    0.8660 c2        1 SX8     -0.121000
     12 C9         -0.1860    0.2680    3.1240 c2        1 SX8     -0.250000
     13 N4         -1.4300    0.4240    2.5830 n2        1 SX8     -0.071000
     14 N3         -1.3830    0.3680    1.2620 n2        1 SX8     -0.049000
     15 S1          0.3020    0.2610    4.7420 ss        1 SX8      0.527000
     16 C10        -1.1450    0.4160    5.6470 c2        1 SX8     -0.551000
     17 C18        -1.9720   -0.6880    6.0490 c2        1 SX8     -0.072000
     18 C17        -3.0750   -0.5550    6.8100 c2        1 SX8     -0.127000
     19 C13        -6.9970    1.5750    7.9980 c1        1 SX8     -0.148000
     20 C12        -7.7070    2.6690    7.9920 c2        1 SX8     -0.132000
     21 C11        -1.2170    1.7180    5.9170 c1        1 SX8      0.291000
     22 C16        -3.8890   -1.6800    7.2030 c2        1 SX8     -0.139000
     23 C15        -5.0450   -1.5790    7.8860 c2        1 SX8     -0.095000
     24 C14        -5.5730   -0.3820    8.4350 c1        1 SX8     -0.068000
     25 N5         -6.2970    0.5650    8.1230 n2        1 SX8      0.027000
     26 H7          0.0910   -0.8300   -1.0270 hc        1 SX8      0.184500
     27 H6          0.3480    0.9550   -1.0880 hc        1 SX8      0.184500
     28 H1          7.3060   -1.2240    3.6390 h1        1 SX8      0.097333
     29 H1A         5.8330   -2.3030    3.5320 h1        1 SX8      0.097333
     30 H1B         5.8930   -0.9550    4.7670 h1        1 SX8      0.097333
     31 H4          5.0830   -0.6540   -4.3550 hn        1 SX8      0.276000
     32 H2          4.5250   -0.5240   -0.1910 ha        1 SX8      0.215000
     33 H18        -1.6500   -1.6790    5.6850 ha        1 SX8      0.137000
     34 H12        -8.2470    2.9940    7.0920 ha        1 SX8      0.136500
     35 H11        -7.7920    3.3110    8.8810 ha        1 SX8      0.136500
     36 H16        -3.3980    0.4380    7.1700 ha        1 SX8      0.128000
     37 H15        -3.5170   -2.6800    6.9220 ha        1 SX8      0.133000
     38 H14        -5.6150   -2.4820    8.1750 ha        1 SX8      0.156000
     39 C1          6.1860   -1.2540    3.7240 c3        1 SX8     -0.109000
@<TRIPOS>BOND
     1    1    2 1   
     2    1   11 1   
     3    1   26 1   
     4    1   27 1   
     5    2    4 1   
     6    3    7 1   
     7    3   39 1   
     8    4    6 1   
     9    4    9 1   
    10    5    8 1   
    11    6    7 1   
    12    6   32 1   
    13    8   31 1   
    14    9   10 1   
    15   10   11 1   
    16   10   12 1   
    17   11   14 1   
    18   12   13 1   
    19   12   15 1   
    20   13   14 1   
    21   15   16 1   
    22   16   17 1   
    23   16   21 1   
    24   17   18 1   
    25   17   33 1   
    26   18   22 1   
    27   18   36 1   
    28   19   20 1   
    29   19   25 1   
    30   20   34 1   
    31   20   35 1   
    32   22   23 1   
    33   22   37 1   
    34   23   24 1   
    35   23   38 1   
    36   24   25 1   
    37   28   39 1   
    38   29   39 1   
    39   30   39 1   
@<TRIPOS>SUBSTRUCTURE
     1 SX8         1 TEMP              0 ****  ****    0 ROOT
