@<TRIPOS>MOLECULE
SX8
   39    39     1     0     0
SMALL
bcc


@<TRIPOS>ATOM
      1 C7          0.8400    0.1610   -0.2520 c3        1 SX8     -0.163000
      2 C6          2.2420   -0.2230   -0.2140 c1        1 SX8     -0.041000
      3 N1          5.6360   -1.6380    3.0210 n2        1 SX8     -0.135000
      4 C5          2.8610   -0.4960    1.0790 c2        1 SX8     -0.076000
      5 C4          4.3620   -0.4170   -3.7610 c1        1 SX8      0.060000
      6 C3          4.2590   -0.8810    1.0190 c2        1 SX8     -0.192000
      7 C2          4.9980   -1.1750    2.0790 c1        1 SX8      0.067000
      8 N2          3.7730   -0.3780   -2.7430 n2        1 SX8     -0.401000
      9 N7          2.2350   -0.4110    2.2630 n2        1 SX8      0.028000
     10 N6          0.9610   -0.0570    2.2470 na        1 SX8     -0.115000
     11 C8          0.1760    0.2450    1.0710 c2        1 SX8     -0.120000
     12 C9          0.0470    0.1140    3.3290 c2        1 SX8     -0.239000
     13 N4         -1.1510    0.4850    2.7910 n2        1 SX8     -0.068000
     14 N3         -1.0760    0.5610    1.4710 n2        1 SX8     -0.038000
     15 S1          0.4860   -0.1290    4.9410 ss        1 SX8      0.526000
     16 C10        -0.9470    0.1240    5.8410 c2        1 SX8     -0.550000
     17 C18        -1.9170   -0.9020    6.1100 c2        1 SX8     -0.083000
     18 C17        -3.1080   -0.6680    6.6930 c2        1 SX8     -0.116000
     19 C13        -7.0160    1.7800    7.2240 c1        1 SX8     -0.147000
     20 C12        -7.6360    2.9180    7.0930 c2        1 SX8     -0.130000
     21 C11        -0.8720    1.3850    6.2630 c1        1 SX8      0.296000
     22 C16        -4.0630   -1.7160    6.9620 c2        1 SX8     -0.145000
     23 C15        -5.3020   -1.5060    7.4480 c2        1 SX8     -0.088000
     24 C14        -5.8080   -0.2570    7.8880 c1        1 SX8     -0.071000
     25 N5         -6.4130    0.7270    7.4620 n2        1 SX8      0.029000
     26 H7          0.2920   -0.5790   -0.9150 hc        1 SX8      0.192000
     27 H6          0.7630    1.1570   -0.7890 hc        1 SX8      0.192000
     28 H1          6.6080    0.1260    3.7670 h1        1 SX8      0.102000
     29 H1A         7.5190   -1.4590    3.8520 h1        1 SX8      0.102000
     30 H1B         6.1060   -1.1560    4.9720 h1        1 SX8      0.102000
     31 H4          3.2750   -0.3440   -1.8900 hn        1 SX8      0.310000
     32 H2          4.6990   -0.9350    0.0080 ha        1 SX8      0.190000
     33 H18        -1.6270   -1.9210    5.7990 ha        1 SX8      0.139000
     34 H12        -8.0270    3.2460    6.1190 ha        1 SX8      0.137500
     35 H11        -7.7930    3.5950    7.9450 ha        1 SX8      0.137500
     36 H16        -3.4000    0.3540    6.9950 ha        1 SX8      0.129000
     37 H15        -3.7350   -2.7490    6.7550 ha        1 SX8      0.134000
     38 H14        -5.9830   -2.3540    7.6520 ha        1 SX8      0.157000
     39 C1          6.5060   -0.9790    3.9370 c3        1 SX8     -0.110000
@<TRIPOS>BOND
     1    1    2 1   
     2    1   11 1   
     3    1   26 1   
     4    1   27 1   
     5    2    4 1   
     6    3    7 1   
     7    3   39 1   
     8    4    6 1   
     9    4    9 1   
    10    5    8 1   
    11    6    7 1   
    12    6   32 1   
    13    8   31 1   
    14    9   10 1   
    15   10   11 1   
    16   10   12 1   
    17   11   14 1   
    18   12   13 1   
    19   12   15 1   
    20   13   14 1   
    21   15   16 1   
    22   16   17 1   
    23   16   21 1   
    24   17   18 1   
    25   17   33 1   
    26   18   22 1   
    27   18   36 1   
    28   19   20 1   
    29   19   25 1   
    30   20   34 1   
    31   20   35 1   
    32   22   23 1   
    33   22   37 1   
    34   23   24 1   
    35   23   38 1   
    36   24   25 1   
    37   28   39 1   
    38   29   39 1   
    39   30   39 1   
@<TRIPOS>SUBSTRUCTURE
     1 SX8         1 TEMP              0 ****  ****    0 ROOT
