@<TRIPOS>MOLECULE
SX8
   39    43     1     0     0
SMALL
bcc


@<TRIPOS>ATOM
      1 C7         -2.3370    3.3780    0.8470 cc        1 SX8     -0.037000
      2 C6         -3.1190    2.2680    0.9980 cd        1 SX8     -0.224300
      3 N1         -4.5020   -2.1800    0.3750 na        1 SX8      0.093400
      4 C5         -2.7870    1.0470    0.2870 cd        1 SX8      0.506800
      5 C4         -4.8350   -0.2240    1.2580 cd        1 SX8      0.331200
      6 C3         -3.6230   -0.1130    0.4680 cd        1 SX8     -0.359800
      7 C2         -3.4450   -1.4000   -0.0860 cc        1 SX8     -0.072300
      8 N2         -5.3310   -1.4800    1.1760 nc        1 SX8     -0.503800
      9 N7         -1.7240    0.9440   -0.5400 nc        1 SX8     -0.478800
     10 N6         -0.9710    2.0220   -0.6820 na        1 SX8      0.134300
     11 C8         -1.2060    3.2760   -0.0240 cc        1 SX8     -0.121300
     12 C9          0.1980    2.2420   -1.4660 cc        1 SX8      0.223700
     13 N4          0.5830    3.5490   -1.2370 nd        1 SX8     -0.288700
     14 N3         -0.2120    4.1570   -0.4160 nd        1 SX8     -0.065000
     15 S1          0.8750    1.1500   -2.5430 ss        1 SX8      0.037900
     16 C10         2.0090    0.2610   -1.6560 ca        1 SX8     -0.039100
     17 C18         2.4390    0.5040   -0.3720 ca        1 SX8     -0.105000
     18 C17         3.4130   -0.3270    0.2350 ca        1 SX8     -0.134300
     19 C13         3.9630   -1.4280   -0.4890 ca        1 SX8      0.388600
     20 C12         3.5030   -1.6530   -1.8290 ca        1 SX8     -0.152300
     21 C11         2.5580   -0.8340   -2.3840 ca        1 SX8     -0.115000
     22 C16         3.8760   -0.0970    1.5630 ca        1 SX8     -0.080000
     23 C15         4.8220   -0.9340    2.1000 ca        1 SX8     -0.247300
     24 C14         5.3110   -2.0140    1.2990 ca        1 SX8      0.408200
     25 N5          4.9140   -2.2650    0.0640 nb        1 SX8     -0.655000
     26 H7         -2.5300    4.3340    1.3540 ha        1 SX8      0.175000
     27 H6         -4.0030    2.2710    1.6510 ha        1 SX8      0.161000
     28 H1         -4.6970   -4.1920    0.9800 h1        1 SX8      0.065033
     29 H1A        -5.6840   -3.7050   -0.4790 h1        1 SX8      0.065033
     30 H1B        -3.8670   -3.9020   -0.6290 h1        1 SX8      0.065033
     31 H4         -5.3260    0.5490    1.8510 h4        1 SX8      0.047100
     32 H2         -2.6650   -1.7820   -0.7470 h4        1 SX8      0.197000
     33 H18         2.0390    1.3520    0.2060 ha        1 SX8      0.143000
     34 H12         3.9220   -2.4950   -2.4020 ha        1 SX8      0.152000
     35 H11         2.2050   -1.0110   -3.4130 ha        1 SX8      0.142000
     36 H16         3.4660    0.7510    2.1320 ha        1 SX8      0.141000
     37 H15         5.2110   -0.7970    3.1170 ha        1 SX8      0.144000
     38 H14         6.0730   -2.6990    1.7150 h4        1 SX8      0.022100
     39 C1         -4.7000   -3.5720    0.0440 c3        1 SX8      0.035600
@<TRIPOS>BOND
     1    1    2 2   
     2    1   11 1   
     3    1   26 1   
     4    2    4 1   
     5    2   27 1   
     6    3    7 1   
     7    3    8 1   
     8    3   39 1   
     9    4    6 1   
    10    4    9 2   
    11    5    6 1   
    12    5    8 2   
    13    5   31 1   
    14    6    7 2   
    15    7   32 1   
    16    9   10 1   
    17   10   11 1   
    18   10   12 1   
    19   11   14 2   
    20   12   13 2   
    21   12   15 1   
    22   13   14 1   
    23   15   16 1   
    24   16   17 ar  
    25   16   21 ar  
    26   17   18 ar  
    27   17   33 1   
    28   18   19 ar  
    29   18   22 ar  
    30   19   20 ar  
    31   19   25 ar  
    32   20   21 ar  
    33   20   34 1   
    34   21   35 1   
    35   22   23 ar  
    36   22   36 1   
    37   23   24 ar  
    38   23   37 1   
    39   24   25 ar  
    40   24   38 1   
    41   28   39 1   
    42   29   39 1   
    43   30   39 1   
@<TRIPOS>SUBSTRUCTURE
     1 SX8         1 TEMP              0 ****  ****    0 ROOT
