@<TRIPOS>MOLECULE
SXA
   48    47     1     0     0
SMALL
bcc


@<TRIPOS>ATOM
      1 P24         0.2240    0.8390    2.4690 p5        1 SXA      1.346900
      2 O26        -0.6820    1.4020    1.4000 o         1 SXA     -0.923500
      3 O23         0.1120   -0.6720    2.3930 o         1 SXA     -0.923500
      4 O27         1.7960    1.0760    1.8140 os        1 SXA     -0.560200
      5 C28         1.9450    0.6300    0.5250 c3        1 SXA      0.230400
      6 C29         3.0880   -0.4190    0.3800 c3        1 SXA     -0.109000
      7 C30         4.3560    0.3310   -0.0220 c3        1 SXA     -0.080100
      8 C31         3.3580   -1.1360    1.6900 c3        1 SXA     -0.080100
      9 C32         2.7970   -1.4470   -0.7300 c3        1 SXA      0.092100
     10 O33         2.2580   -0.8570   -1.9010 oh        1 SXA     -0.616800
     11 C34         1.9310   -2.6560   -0.3210 c         1 SXA      0.620100
     12 O35         2.3400   -3.8070   -0.6200 o         1 SXA     -0.695100
     13 N36         0.7040   -2.4320    0.2430 n         1 SXA     -0.540900
     14 C37        -0.1300   -3.5450    0.6200 c3        1 SXA      0.111000
     15 C38        -1.3250   -3.1310    1.4770 c3        1 SXA     -0.174400
     16 C39        -2.3500   -2.3740    0.6500 c         1 SXA      0.660100
     17 O40        -3.3120   -2.9980    0.1220 o         1 SXA     -0.724100
     18 N41        -2.1810   -1.0290    0.4920 n         1 SXA     -0.541900
     19 C42        -3.0850   -0.2470   -0.3040 c3        1 SXA      0.120000
     20 C43        -3.4670    1.0790    0.3410 c3        1 SXA     -0.068300
     21 S1         -4.1760    2.1860   -0.8410 ss        1 SXA     -0.224700
     22 C1         -5.8650    2.0150   -0.8200 c         1 SXA      0.536700
     23 O1         -6.5780    1.2950   -0.1040 o         1 SXA     -0.566100
     24 C2         -6.4810    2.9320   -1.8370 c3        1 SXA     -0.191100
     25 H28         0.9700    0.2140    0.1420 h1        1 SXA     -0.004300
     26 H28A        2.2170    1.5000   -0.1480 h1        1 SXA     -0.004300
     27 H30         4.5290    1.1720    0.6920 hc        1 SXA      0.030533
     28 H30A        5.2430   -0.3480   -0.0020 hc        1 SXA      0.030533
     29 H30B        4.2480    0.7440   -1.0530 hc        1 SXA      0.030533
     30 H31         2.4310   -1.6100    2.0940 hc        1 SXA      0.030533
     31 H31A        4.1440   -1.9180    1.5500 hc        1 SXA      0.030533
     32 H31B        3.7070   -0.3920    2.4470 hc        1 SXA      0.030533
     33 H32         3.7780   -1.8850   -1.0850 h1        1 SXA      0.063700
     34 HO33        1.4330   -0.4180   -1.6570 ho        1 SXA      0.419000
     35 HN36        0.5730   -1.5870    0.8120 hn        1 SXA      0.400500
     36 H37        -0.4920   -4.0540   -0.3190 h1        1 SXA      0.022700
     37 H37A        0.4720   -4.3070    1.1970 h1        1 SXA      0.022700
     38 H38        -1.8180   -4.0590    1.8640 hc        1 SXA      0.094700
     39 H38A       -0.9760   -2.4980    2.3470 hc        1 SXA      0.094700
     40 HN41       -1.4390   -0.5280    0.9950 hn        1 SXA      0.410500
     41 H42        -2.5840   -0.0230   -1.2930 h1        1 SXA      0.033700
     42 H42A       -4.0160   -0.8480   -0.5180 h1        1 SXA      0.033700
     43 H43        -4.1500    0.9250    1.2070 h1        1 SXA      0.148200
     44 H43A       -2.5270    1.6130    0.7100 h1        1 SXA      0.148200
     45 H2         -5.7050    3.5540   -2.3460 hc        1 SXA      0.052033
     46 H2A        -7.0200    2.3240   -2.6050 hc        1 SXA      0.052033
     47 H2B        -7.2180    3.6060   -1.3380 hc        1 SXA      0.052033
     48 O8          0.2950    1.5000    3.8020 o         1 SXA     -0.923500
@<TRIPOS>BOND
     1    1    2 1   
     2    1    3 1   
     3    1    4 1   
     4    1   48 1   
     5    4    5 1   
     6    5    6 1   
     7    5   25 1   
     8    5   26 1   
     9    6    7 1   
    10    6    8 1   
    11    6    9 1   
    12    7   27 1   
    13    7   28 1   
    14    7   29 1   
    15    8   30 1   
    16    8   31 1   
    17    8   32 1   
    18    9   10 1   
    19    9   11 1   
    20    9   33 1   
    21   10   34 1   
    22   11   12 2   
    23   11   13 1   
    24   13   14 1   
    25   13   35 1   
    26   14   15 1   
    27   14   36 1   
    28   14   37 1   
    29   15   16 1   
    30   15   38 1   
    31   15   39 1   
    32   16   17 2   
    33   16   18 1   
    34   18   19 1   
    35   18   40 1   
    36   19   20 1   
    37   19   41 1   
    38   19   42 1   
    39   20   21 1   
    40   20   43 1   
    41   20   44 1   
    42   21   22 1   
    43   22   23 2   
    44   22   24 1   
    45   24   45 1   
    46   24   46 1   
    47   24   47 1   
@<TRIPOS>SUBSTRUCTURE
     1 SXA         1 TEMP              0 ****  ****    0 ROOT
