@<TRIPOS>MOLECULE
SXD
   59    58     1     0     0
SMALL
bcc


@<TRIPOS>ATOM
      1 O25        -2.4370   -4.4100    7.4900 o         1 SXD     -0.735833
      2 P24        -2.5520   -2.9710    7.0370 p5        1 SXD      1.363900
      3 O26        -3.4830   -2.2200    7.9730 o         1 SXD     -0.735833
      4 O23        -1.1830   -2.3260    7.0610 o         1 SXD     -0.735833
      5 O27        -3.1490   -2.9230    5.5220 os        1 SXD     -0.595200
      6 C28        -2.3340   -3.4160    4.4520 c3        1 SXD      0.209400
      7 C29        -3.0340   -3.1210    3.0740 c3        1 SXD     -0.112000
      8 C30        -3.4480   -1.6530    3.0160 c3        1 SXD     -0.074100
      9 C31        -4.2810   -4.0140    2.9270 c3        1 SXD     -0.074100
     10 C32        -2.0440   -3.4230    1.9180 c3        1 SXD      0.248100
     11 O33        -0.8500   -2.7690    2.1530 oh        1 SXD     -1.020800
     12 C34        -2.6310   -2.9440    0.6090 c         1 SXD      0.575100
     13 O35        -3.7190   -2.3910    0.5930 o         1 SXD     -0.680100
     14 N36        -1.8850   -3.1280   -0.6390 n         1 SXD     -0.558900
     15 C37        -2.1430   -2.2610   -1.7730 c3        1 SXD      0.094000
     16 C38        -1.0340   -2.4320   -2.8050 c3        1 SXD     -0.188400
     17 C39        -0.9930   -1.2030   -3.7180 c         1 SXD      0.650100
     18 O40        -2.0260   -0.6710   -4.0660 o         1 SXD     -0.692100
     19 N41         0.2820   -0.6460   -4.1270 n         1 SXD     -0.564900
     20 C42         0.3210    0.5430   -4.9300 c3        1 SXD      0.094000
     21 C43         1.6840    1.1710   -4.8320 c3        1 SXD     -0.012300
     22 S1          1.5940    2.6400   -3.8060 ss        1 SXD     -0.400200
     23 C1          3.2000    3.3920   -3.7040 c3        1 SXD      0.022700
     24 C2          3.0830    4.7740   -2.9770 c3        1 SXD     -0.197400
     25 C3          4.1970    4.8980   -1.9290 c         1 SXD      0.604100
     26 O3          5.3060    4.4980   -2.1780 o         1 SXD     -0.588100
     27 C4          3.9120    5.5910   -0.5790 c3        1 SXD     -0.324400
     28 C5          5.2390    5.9080    0.1230 c         1 SXD      0.618100
     29 O5          6.2450    6.1020   -0.5350 o         1 SXD     -0.608100
     30 C6          5.2980    5.9850    1.6380 c3        1 SXD     -0.222100
     31 H28        -2.2100   -4.3860    4.5540 h1        1 SXD      0.022200
     32 H28A       -1.4510   -2.9660    4.4760 h1        1 SXD      0.022200
     33 H30        -3.7230   -1.3580    3.9040 hc        1 SXD      0.023700
     34 H30A       -2.6860   -1.1100    2.7110 hc        1 SXD      0.023700
     35 H30B       -4.1990   -1.5490    2.3870 hc        1 SXD      0.023700
     36 H31        -4.0010   -4.9360    2.7160 hc        1 SXD      0.023700
     37 H31A       -4.8500   -3.6680    2.1990 hc        1 SXD      0.023700
     38 H31B       -4.7860   -4.0100    3.7660 hc        1 SXD      0.023700
     39 H32        -1.8840   -4.3820    1.8710 h1        1 SXD     -0.033300
     40 HO33       -0.1660   -3.2830    1.8700 ho        1 SXD      0.422000
     41 HN36       -1.2650   -3.7940   -0.7050 hn        1 SXD      0.305500
     42 H37        -2.1690   -1.3330   -1.4740 h1        1 SXD      0.038700
     43 H37A       -3.0040   -2.4990   -2.1770 h1        1 SXD      0.038700
     44 H38        -0.1700   -2.5280   -2.3460 hc        1 SXD      0.066200
     45 H38A       -1.2100   -3.2360   -3.3460 hc        1 SXD      0.066200
     46 HN41        1.0650   -1.0810   -3.9120 hn        1 SXD      0.387500
     47 H42         0.1350    0.3120   -5.8640 h1        1 SXD      0.062200
     48 H42A       -0.3520    1.1740   -4.6110 h1        1 SXD      0.062200
     49 H43         2.3070    0.5360   -4.4350 h1        1 SXD      0.060700
     50 H43A        1.9960    1.4180   -5.7310 h1        1 SXD      0.060700
     51 H1          3.5540    3.5270   -4.6050 h1        1 SXD      0.096700
     52 H1A         3.8010    2.8090   -3.2020 h1        1 SXD      0.096700
     53 H2          3.1710    5.5040   -3.6390 hc        1 SXD      0.115700
     54 H2A         2.2100    4.8370   -2.5340 hc        1 SXD      0.115700
     55 H4          3.4200    6.4210   -0.7360 hc        1 SXD      0.126700
     56 H4A         3.3780    4.9980   -0.0140 hc        1 SXD      0.126700
     57 H6          4.4200    6.2030    1.9850 hc        1 SXD      0.079367
     58 H6A         5.5890    5.1140    2.0000 hc        1 SXD      0.079367
     59 H6B         5.9430    6.6850    1.9070 hc        1 SXD      0.079367
@<TRIPOS>BOND
     1    1    2 1   
     2    2    3 1   
     3    2    4 1   
     4    2    5 1   
     5    5    6 1   
     6    6    7 1   
     7    6   31 1   
     8    6   32 1   
     9    7    8 1   
    10    7    9 1   
    11    7   10 1   
    12    8   33 1   
    13    8   34 1   
    14    8   35 1   
    15    9   36 1   
    16    9   37 1   
    17    9   38 1   
    18   10   11 1   
    19   10   12 1   
    20   10   39 1   
    21   11   40 1   
    22   12   13 2   
    23   12   14 1   
    24   14   15 1   
    25   14   41 1   
    26   15   16 1   
    27   15   42 1   
    28   15   43 1   
    29   16   17 1   
    30   16   44 1   
    31   16   45 1   
    32   17   18 2   
    33   17   19 1   
    34   19   20 1   
    35   19   46 1   
    36   20   21 1   
    37   20   47 1   
    38   20   48 1   
    39   21   22 1   
    40   21   49 1   
    41   21   50 1   
    42   22   23 1   
    43   23   24 1   
    44   23   51 1   
    45   23   52 1   
    46   24   25 1   
    47   24   53 1   
    48   24   54 1   
    49   25   26 2   
    50   25   27 1   
    51   27   28 1   
    52   27   55 1   
    53   27   56 1   
    54   28   29 2   
    55   28   30 1   
    56   30   57 1   
    57   30   58 1   
    58   30   59 1   
@<TRIPOS>SUBSTRUCTURE
     1 SXD         1 TEMP              0 ****  ****    0 ROOT
