@<TRIPOS>MOLECULE
SXD
   59    58     1     0     0
SMALL
bcc


@<TRIPOS>ATOM
      1 O25         0.7970    1.2150   -0.1130 o         1 SXD     -0.912500
      2 P24         0.0870    0.9930    1.2090 p5        1 SXD      1.333900
      3 O26         0.5570    1.7660    2.3930 o         1 SXD     -0.912500
      4 O23        -1.4000    0.8280    1.0030 o         1 SXD     -0.912500
      5 O27         0.6210   -0.6050    1.4740 os        1 SXD     -0.587200
      6 C28         1.8070   -0.7170    2.1660 c3        1 SXD      0.214400
      7 C29         2.7620   -1.7660    1.5430 c3        1 SXD     -0.106000
      8 C30         4.0220   -1.7900    2.4030 c3        1 SXD     -0.080600
      9 C31         2.0990   -3.1300    1.5840 c3        1 SXD     -0.080600
     10 C32         3.1980   -1.4300    0.1000 c3        1 SXD      0.123100
     11 O33         3.4030   -0.0580   -0.1150 oh        1 SXD     -0.643800
     12 C34         2.2730   -2.0770   -0.9510 c         1 SXD      0.638100
     13 O35         2.6020   -3.1810   -1.4620 o         1 SXD     -0.717100
     14 N36         1.1520   -1.4010   -1.3320 n         1 SXD     -0.545900
     15 C37         0.1820   -1.9520   -2.2320 c3        1 SXD      0.111000
     16 C38        -1.2710   -1.6820   -1.8370 c3        1 SXD     -0.176400
     17 C39        -1.8370   -0.4120   -2.4510 c         1 SXD      0.648100
     18 O40        -2.8430   -0.4870   -3.2050 o         1 SXD     -0.706100
     19 N41        -1.1960    0.7700   -2.1920 n         1 SXD     -0.533900
     20 C42        -1.7980    2.0400   -2.5040 c3        1 SXD      0.098000
     21 C43        -2.0090    2.9390   -1.2880 c3        1 SXD     -0.026300
     22 S1         -3.7220    3.2960   -0.9840 ss        1 SXD     -0.402200
     23 C1         -4.2120    2.0240    0.1480 c3        1 SXD     -0.015300
     24 C2         -4.8340    0.8510   -0.5660 c3        1 SXD     -0.175400
     25 C3         -5.2010   -0.2380    0.4060 c         1 SXD      0.596100
     26 O3         -6.3860   -0.5300    0.6250 o         1 SXD     -0.589100
     27 C4         -4.0580   -0.9700    1.0490 c3        1 SXD     -0.326400
     28 C5         -4.1470   -0.9750    2.5500 c         1 SXD      0.612100
     29 O5         -4.4380   -1.9940    3.1910 o         1 SXD     -0.589100
     30 C6         -3.8050    0.3230    3.1990 c3        1 SXD     -0.224100
     31 H28         2.3340    0.2780    2.2240 h1        1 SXD      0.013200
     32 H28A        1.6010   -1.0720    3.2210 h1        1 SXD      0.013200
     33 H30         4.6970   -2.6230    2.0890 hc        1 SXD      0.025867
     34 H30A        4.5690   -0.8220    2.2960 hc        1 SXD      0.025867
     35 H30B        3.7560   -1.9370    3.4770 hc        1 SXD      0.025867
     36 H31         2.0010   -3.4790    2.6400 hc        1 SXD      0.025867
     37 H31A        1.0750   -3.0570    1.1390 hc        1 SXD      0.025867
     38 H31B        2.6940   -3.8790    1.0070 hc        1 SXD      0.025867
     39 H32         4.2160   -1.8910   -0.0840 h1        1 SXD      0.050700
     40 HO33        2.5590    0.4300    0.0300 ho        1 SXD      0.482000
     41 HN36        0.9080   -0.5560   -0.8180 hn        1 SXD      0.390500
     42 H37         0.3630   -1.5280   -3.2640 h1        1 SXD      0.034200
     43 H37A        0.3340   -3.0690   -2.2980 h1        1 SXD      0.034200
     44 H38        -1.9000   -2.5370   -2.2000 hc        1 SXD      0.078200
     45 H38A       -1.3870   -1.6120   -0.7200 hc        1 SXD      0.078200
     46 HN41       -0.5200    0.8050   -1.4240 hn        1 SXD      0.392500
     47 H42        -1.1010    2.5700   -3.2180 h1        1 SXD      0.041700
     48 H42A       -2.7800    1.8800   -3.0370 h1        1 SXD      0.041700
     49 H43        -1.5430    2.4780   -0.3610 h1        1 SXD      0.108200
     50 H43A       -1.5330    3.9320   -1.4620 h1        1 SXD      0.108200
     51 H1         -3.3110    1.6840    0.7430 h1        1 SXD      0.108200
     52 H1A        -4.9480    2.4960    0.8420 h1        1 SXD      0.108200
     53 H2         -5.7500    1.1760   -1.1260 hc        1 SXD      0.076200
     54 H2A        -4.1030    0.4300   -1.3150 hc        1 SXD      0.076200
     55 H4         -4.0580   -2.0230    0.6620 hc        1 SXD      0.130700
     56 H4A        -3.0640   -0.4840    0.7730 hc        1 SXD      0.130700
     57 H6         -2.7860    0.6460    2.8380 hc        1 SXD      0.078700
     58 H6A        -4.5410    1.1030    2.8860 hc        1 SXD      0.078700
     59 H6B        -3.8040    0.2350    4.3100 hc        1 SXD      0.078700
@<TRIPOS>BOND
     1    1    2 1   
     2    2    3 1   
     3    2    4 1   
     4    2    5 1   
     5    5    6 1   
     6    6    7 1   
     7    6   31 1   
     8    6   32 1   
     9    7    8 1   
    10    7    9 1   
    11    7   10 1   
    12    8   33 1   
    13    8   34 1   
    14    8   35 1   
    15    9   36 1   
    16    9   37 1   
    17    9   38 1   
    18   10   11 1   
    19   10   12 1   
    20   10   39 1   
    21   11   40 1   
    22   12   13 2   
    23   12   14 1   
    24   14   15 1   
    25   14   41 1   
    26   15   16 1   
    27   15   42 1   
    28   15   43 1   
    29   16   17 1   
    30   16   44 1   
    31   16   45 1   
    32   17   18 2   
    33   17   19 1   
    34   19   20 1   
    35   19   46 1   
    36   20   21 1   
    37   20   47 1   
    38   20   48 1   
    39   21   22 1   
    40   21   49 1   
    41   21   50 1   
    42   22   23 1   
    43   23   24 1   
    44   23   51 1   
    45   23   52 1   
    46   24   25 1   
    47   24   53 1   
    48   24   54 1   
    49   25   26 2   
    50   25   27 1   
    51   27   28 1   
    52   27   55 1   
    53   27   56 1   
    54   28   29 2   
    55   28   30 1   
    56   30   57 1   
    57   30   58 1   
    58   30   59 1   
@<TRIPOS>SUBSTRUCTURE
     1 SXD         1 TEMP              0 ****  ****    0 ROOT
