@<TRIPOS>MOLECULE
SXE
   34    33     1     0     0
SMALL
bcc


@<TRIPOS>ATOM
      1 N           0.4110    4.6980    6.7810 n3        1 SXE     -0.885800
      2 CA         -0.2400    3.8030    5.8340 c3        1 SXE      0.012500
      3 C          -1.3800    2.9320    6.4560 c         1 SXE      0.889600
      4 O          -1.7760    1.9230    5.8060 o         1 SXE     -0.846300
      5 CB          0.7630    2.9010    5.0980 c3        1 SXE      0.187400
      6 OG          0.5250    3.0320    3.7050 os        1 SXE     -0.595200
      7 O1          2.6530    1.8510    2.8590 o         1 SXE     -0.833300
      8 P1          1.1880    1.8980    2.7760 p5        1 SXE      1.621400
      9 N1          0.5750    2.1390    1.3340 n3        1 SXE     -0.972300
     10 C1          1.4310    2.2540    0.1910 c3        1 SXE      0.224500
     11 C3          1.3450    3.6190   -0.5030 c3        1 SXE     -0.108100
     12 C2          1.1770    1.1750   -0.8690 c3        1 SXE     -0.108100
     13 O2          0.5670    0.5180    3.3430 os        1 SXE     -0.587200
     14 C4         -0.8180    0.4410    3.6100 c3        1 SXE      0.149400
     15 C5         -1.5070   -0.4690    2.6160 c3        1 SXE     -0.114100
     16 OXT        -1.8600    3.2970    7.5650 o         1 SXE     -0.846300
     17 HN1         0.9280    4.1440    7.4420 hn        1 SXE      0.333800
     18 HN2        -0.3190    5.1540    7.3040 hn        1 SXE      0.333800
     19 HA         -0.7410    4.4580    5.0610 h1        1 SXE      0.066700
     20 HBC1        0.5940    1.8250    5.3790 h1        1 SXE      0.043200
     21 HBC2        1.8350    3.1850    5.2770 h1        1 SXE      0.043200
     22 H1         -0.3840    2.2870    1.1560 hn        1 SXE      0.433800
     23 HB          2.4960    2.1240    0.5700 h1        1 SXE      0.089700
     24 H3C1        2.0820    3.6510   -1.3400 hc        1 SXE      0.034200
     25 H3C2        0.3230    3.7890   -0.9190 hc        1 SXE      0.034200
     26 H3C3        1.5800    4.4450    0.2100 hc        1 SXE      0.034200
     27 H2C1        1.2860    0.1530   -0.4340 hc        1 SXE      0.034200
     28 H2C2        1.9200    1.2910   -1.6940 hc        1 SXE      0.034200
     29 H2C3        0.1510    1.2720   -1.2970 hc        1 SXE      0.034200
     30 H4C1       -0.9240    0.0250    4.6540 h1        1 SXE      0.086700
     31 H4C2       -1.2670    1.4740    3.6190 h1        1 SXE      0.086700
     32 H5C1       -2.5560   -0.6440    2.9550 hc        1 SXE      0.029367
     33 H5C2       -1.5330   -0.0170    1.5950 hc        1 SXE      0.029367
     34 H5C3       -0.9750   -1.4470    2.5520 hc        1 SXE      0.029367
@<TRIPOS>BOND
     1    1    2 1   
     2    1   17 1   
     3    1   18 1   
     4    2    3 1   
     5    2    5 1   
     6    2   19 1   
     7    3    4 1   
     8    3   16 1   
     9    5    6 1   
    10    5   20 1   
    11    5   21 1   
    12    6    8 1   
    13    7    8 2   
    14    8    9 1   
    15    8   13 1   
    16    9   10 1   
    17    9   22 1   
    18   10   11 1   
    19   10   12 1   
    20   10   23 1   
    21   11   24 1   
    22   11   25 1   
    23   11   26 1   
    24   12   27 1   
    25   12   28 1   
    26   12   29 1   
    27   13   14 1   
    28   14   15 1   
    29   14   30 1   
    30   14   31 1   
    31   15   32 1   
    32   15   33 1   
    33   15   34 1   
@<TRIPOS>SUBSTRUCTURE
     1 SXE         1 TEMP              0 ****  ****    0 ROOT
