@<TRIPOS>MOLECULE
SXH
   62    61     1     0     0
SMALL
bcc


@<TRIPOS>ATOM
      1 O25         0.0000    0.0000    0.0000 o         1 SXH     -0.491500
      2 P24         1.6100    0.0000    0.0000 p5        1 SXH      0.797900
      3 O26         2.1460    0.0000    1.5180 o         1 SXH     -0.491500
      4 O23         2.1040    1.2080   -0.6970 o         1 SXH     -0.491500
      5 O27         2.1460   -1.3150   -0.7590 os        1 SXH     -0.489200
      6 C28         1.9280   -1.5530   -2.1510 c3        1 SXH      0.304400
      7 C29         2.5670   -2.8870   -2.5460 c3        1 SXH     -0.114000
      8 C30         1.9350   -4.0160   -1.7300 c3        1 SXH      0.015400
      9 C31         4.0700   -2.8350   -2.2660 c3        1 SXH      0.015400
     10 C32         2.3330   -3.1420   -4.0350 c3        1 SXH      0.144100
     11 O33         3.0320   -2.1590   -4.8020 oh        1 SXH     -0.509800
     12 C34         0.8580   -3.0580   -4.3350 c         1 SXH      0.304100
     13 O35         0.4170   -2.1090   -4.9470 o         1 SXH     -0.390100
     14 N36         0.0300   -4.0380   -3.9220 ny        1 SXH      0.102200
     15 C37        -1.3820   -4.0140   -4.3090 c3        1 SXH     -0.000200
     16 C38        -2.0950   -5.2310   -3.7130 c3        1 SXH     -0.012400
     17 C39        -3.5480   -5.2060   -4.1100 c         1 SXH     -0.038900
     18 O40        -3.9730   -4.3050   -4.8020 o         1 SXH     -0.660100
     19 N41        -4.3760   -6.1850   -3.6980 ny        1 SXH      0.328200
     20 C42        -5.7890   -6.1620   -4.0840 c3        1 SXH     -0.005200
     21 C43        -6.5010   -7.3780   -3.4890 c3        1 SXH      0.049700
     22 S1         -8.2470   -7.3490   -3.9660 ss        1 SXH     -0.287700
     23 C1         -8.7910   -8.7750   -3.1910 c         1 SXH      0.638700
     24 O1         -8.0140   -9.4520   -2.5510 o         1 SXH     -0.557100
     25 C2        -10.2360   -9.1900   -3.3040 c3        1 SXH     -0.095400
     26 C3        -10.4560  -10.4890   -2.5260 c3        1 SXH     -0.022400
     27 C4        -11.9220  -10.9090   -2.6400 c3        1 SXH     -0.029400
     28 C5        -12.1420  -12.2080   -1.8620 c3        1 SXH     -0.026400
     29 C6        -13.6080  -12.6290   -1.9770 c3        1 SXH      0.006900
     30 H28         0.8640   -1.5890   -2.3480 h1        1 SXH     -0.012800
     31 H28A        2.3760   -0.7530   -2.7280 h1        1 SXH     -0.012800
     32 H30         2.5440   -4.2160   -0.8570 hc        1 SXH      0.012867
     33 H30A        0.9400   -3.7230   -1.4160 hc        1 SXH      0.012867
     34 H30B        1.8720   -4.9100   -2.3380 hc        1 SXH      0.012867
     35 H31         4.2380   -2.8230   -1.1960 hc        1 SXH      0.012867
     36 H31A        4.4880   -1.9380   -2.7080 hc        1 SXH      0.012867
     37 H31B        4.5480   -3.7060   -2.6970 hc        1 SXH      0.012867
     38 H32         2.6990   -4.1280   -4.2940 h1        1 SXH      0.011700
     39 HO33        3.3260   -2.5430   -5.6110 ho        1 SXH      0.393000
     40 HN36        0.4090   -4.9010   -4.2580 hn        1 SXH      0.270300
     41 H37        -1.8430   -3.1070   -3.9360 hx        1 SXH      0.102700
     42 H37A       -1.4620   -4.0420   -5.3890 hx        1 SXH      0.102700
     43 H38        -2.0150   -5.2030   -2.6330 hc        1 SXH      0.000700
     44 H38A       -1.6340   -6.1370   -4.0850 hc        1 SXH      0.000700
     45 HN41       -3.9970   -7.0480   -4.0350 hn        1 SXH      0.145800
     46 H42        -6.2500   -5.2560   -3.7110 hx        1 SXH      0.089200
     47 H42A       -5.8690   -6.1900   -5.1640 hx        1 SXH      0.089200
     48 H43        -6.4210   -7.3500   -2.4090 h1        1 SXH      0.055700
     49 H43A       -6.0400   -8.2840   -3.8620 h1        1 SXH      0.055700
     50 H2        -10.8680   -8.4120   -2.8940 hc        1 SXH      0.048200
     51 H2A       -10.4860   -9.3470   -4.3470 hc        1 SXH      0.048200
     52 H3         -9.8240  -11.2670   -2.9370 hc        1 SXH      0.028200
     53 H3A       -10.2050  -10.3320   -1.4840 hc        1 SXH      0.028200
     54 H4        -12.5540  -10.1310   -2.2300 hc        1 SXH      0.015700
     55 H4A       -12.1730  -11.0660   -3.6820 hc        1 SXH      0.015700
     56 H5        -11.5100  -12.9860   -2.2720 hc        1 SXH      0.014200
     57 H5A       -11.8920  -12.0510   -0.8200 hc        1 SXH      0.014200
     58 H6        -13.8610  -12.7770   -3.0200 hc        1 SXH      0.001700
     59 H6A       -14.2400  -11.8540   -1.5590 hc        1 SXH      0.001700
     60 H6B       -13.7620  -13.5530   -1.4330 hc        1 SXH      0.001700
     61 H362        0.0580   -4.0400   -2.9220 hn        1 SXH      0.270300
     62 H412       -4.3470   -6.1880   -2.6980 hn        1 SXH      0.145800
@<TRIPOS>BOND
     1    1    2 1   
     2    2    3 1   
     3    2    4 1   
     4    2    5 1   
     5    5    6 1   
     6    6    7 1   
     7    6   30 1   
     8    6   31 1   
     9    7    8 1   
    10    7    9 1   
    11    7   10 1   
    12    8   32 1   
    13    8   33 1   
    14    8   34 1   
    15    9   35 1   
    16    9   36 1   
    17    9   37 1   
    18   10   11 1   
    19   10   12 1   
    20   10   38 1   
    21   11   39 1   
    22   12   13 2   
    23   12   14 1   
    24   14   15 1   
    25   14   40 1   
    26   14   61 1   
    27   15   16 1   
    28   15   41 1   
    29   15   42 1   
    30   16   17 1   
    31   16   43 1   
    32   16   44 1   
    33   17   18 2   
    34   17   19 1   
    35   19   20 1   
    36   19   45 1   
    37   19   62 1   
    38   20   21 1   
    39   20   46 1   
    40   20   47 1   
    41   21   22 1   
    42   21   48 1   
    43   21   49 1   
    44   22   23 1   
    45   23   24 2   
    46   23   25 1   
    47   25   26 1   
    48   25   50 1   
    49   25   51 1   
    50   26   27 1   
    51   26   52 1   
    52   26   53 1   
    53   27   28 1   
    54   27   54 1   
    55   27   55 1   
    56   28   29 1   
    57   28   56 1   
    58   28   57 1   
    59   29   58 1   
    60   29   59 1   
    61   29   60 1   
@<TRIPOS>SUBSTRUCTURE
     1 SXH         1 TEMP              0 ****  ****    0 ROOT
