@<TRIPOS>MOLECULE
SXH
   60    59     1     0     0
SMALL
bcc


@<TRIPOS>ATOM
      1 O25        -1.6970    0.8800    2.6260 o         1 SXH     -0.923500
      2 P24        -1.6000   -0.6240    2.8090 p5        1 SXH      1.347900
      3 O26        -0.3620   -1.0760    2.0730 o         1 SXH     -0.923500
      4 O23        -1.9340   -1.2210    4.1330 o         1 SXH     -0.923500
      5 O27        -2.8780   -1.1540    1.7900 os        1 SXH     -0.560200
      6 C28        -2.7340   -0.8010    0.4720 c3        1 SXH      0.230400
      7 C29        -3.9370    0.0310   -0.0640 c3        1 SXH     -0.109000
      8 C30        -4.9200   -0.9410   -0.7130 c3        1 SXH     -0.080100
      9 C31        -4.6600    0.7550    1.0580 c3        1 SXH     -0.080100
     10 C32        -3.5120    1.0380   -1.1490 c3        1 SXH      0.092100
     11 O33        -2.5910    0.4930   -2.0780 oh        1 SXH     -0.616800
     12 C34        -2.9820    2.3950   -0.6400 c         1 SXH      0.621100
     13 O35        -3.4620    3.4450   -1.1410 o         1 SXH     -0.695100
     14 N36        -1.9370    2.4100    0.2430 n         1 SXH     -0.540900
     15 C37        -1.4150    3.6650    0.7220 c3        1 SXH      0.111000
     16 C38        -0.4530    3.5010    1.8980 c3        1 SXH     -0.174400
     17 C39         0.8610    2.8900    1.4430 c         1 SXH      0.660100
     18 O40         1.8270    3.6410    1.1330 o         1 SXH     -0.724100
     19 N41         0.9450    1.5290    1.3700 n         1 SXH     -0.541900
     20 C42         2.1400    0.8740    0.9180 c3        1 SXH      0.120000
     21 C43         2.5240   -0.3350    1.7620 c3        1 SXH     -0.070300
     22 S1          3.6920   -1.3600    0.9200 ss        1 SXH     -0.220700
     23 C1          5.2600   -0.9000    1.3770 c         1 SXH      0.536700
     24 O1          5.6260   -0.0270    2.1760 o         1 SXH     -0.562100
     25 C2          6.2710   -1.7750    0.6720 c3        1 SXH     -0.173400
     26 C3          7.2680   -0.9380   -0.1010 c3        1 SXH     -0.073400
     27 C4          8.3510   -1.8030   -0.7100 c3        1 SXH     -0.077400
     28 C5          9.3410   -0.9700   -1.4960 c3        1 SXH     -0.081400
     29 C6         10.4260   -1.8220   -2.1020 c3        1 SXH     -0.090100
     30 H28        -1.7650   -0.2440    0.3210 h1        1 SXH     -0.004300
     31 H28A       -2.6770   -1.7350   -0.1670 h1        1 SXH     -0.004300
     32 H30        -5.8700   -0.4220   -0.9880 hc        1 SXH      0.030700
     33 H30A       -4.4730   -1.3790   -1.6380 hc        1 SXH      0.030700
     34 H30B       -5.1530   -1.7640    0.0050 hc        1 SXH      0.030700
     35 H31        -3.9600    1.3970    1.6460 hc        1 SXH      0.030700
     36 H31A       -5.4850    1.3850    0.6460 hc        1 SXH      0.030700
     37 H31B       -5.0870   -0.0010    1.7620 hc        1 SXH      0.030700
     38 H32        -4.4130    1.2860   -1.7870 h1        1 SXH      0.063700
     39 HO33       -1.8080    0.2120   -1.5870 ho        1 SXH      0.419000
     40 HN36       -1.8410    1.6280    0.9010 hn        1 SXH      0.400500
     41 H37        -0.8890    4.1820   -0.1320 h1        1 SXH      0.022700
     42 H37A       -2.2590    4.3410    1.0470 h1        1 SXH      0.022700
     43 H38        -0.2300    4.5170    2.3130 hc        1 SXH      0.094700
     44 H38A       -0.9290    2.8610    2.7000 hc        1 SXH      0.094700
     45 HN41        0.1770    0.9350    1.7040 hn        1 SXH      0.410500
     46 H42         1.9710    0.5200   -0.1430 h1        1 SXH      0.033700
     47 H42A        2.9930    1.6120    0.9030 h1        1 SXH      0.033700
     48 H43         2.9060   -0.0260    2.7600 h1        1 SXH      0.148700
     49 H43A        1.6090   -1.0030    1.9150 h1        1 SXH      0.148700
     50 H2          6.8070   -2.3840    1.4480 hc        1 SXH      0.059200
     51 H2A         5.7490   -2.4880   -0.0210 hc        1 SXH      0.059200
     52 H3          6.7360   -0.3730   -0.9110 hc        1 SXH      0.053700
     53 H3A         7.7250   -0.1800    0.5890 hc        1 SXH      0.053700
     54 H4          8.8900   -2.3590    0.1020 hc        1 SXH      0.034700
     55 H4A         7.8860   -2.5700   -1.3840 hc        1 SXH      0.034700
     56 H5          8.7990   -0.4150   -2.3080 hc        1 SXH      0.040200
     57 H5A         9.7990   -0.2000   -0.8210 hc        1 SXH      0.040200
     58 H6         10.9920   -2.3640   -1.3070 hc        1 SXH      0.025700
     59 H6A         9.9890   -2.5800   -2.7970 hc        1 SXH      0.025700
     60 H6B        11.1430   -1.1890   -2.6780 hc        1 SXH      0.025700
@<TRIPOS>BOND
     1    1    2 1   
     2    2    3 1   
     3    2    4 1   
     4    2    5 1   
     5    5    6 1   
     6    6    7 1   
     7    6   30 1   
     8    6   31 1   
     9    7    8 1   
    10    7    9 1   
    11    7   10 1   
    12    8   32 1   
    13    8   33 1   
    14    8   34 1   
    15    9   35 1   
    16    9   36 1   
    17    9   37 1   
    18   10   11 1   
    19   10   12 1   
    20   10   38 1   
    21   11   39 1   
    22   12   13 2   
    23   12   14 1   
    24   14   15 1   
    25   14   40 1   
    26   15   16 1   
    27   15   41 1   
    28   15   42 1   
    29   16   17 1   
    30   16   43 1   
    31   16   44 1   
    32   17   18 2   
    33   17   19 1   
    34   19   20 1   
    35   19   45 1   
    36   20   21 1   
    37   20   46 1   
    38   20   47 1   
    39   21   22 1   
    40   21   48 1   
    41   21   49 1   
    42   22   23 1   
    43   23   24 2   
    44   23   25 1   
    45   25   26 1   
    46   25   50 1   
    47   25   51 1   
    48   26   27 1   
    49   26   52 1   
    50   26   53 1   
    51   27   28 1   
    52   27   54 1   
    53   27   55 1   
    54   28   29 1   
    55   28   56 1   
    56   28   57 1   
    57   29   58 1   
    58   29   59 1   
    59   29   60 1   
@<TRIPOS>SUBSTRUCTURE
     1 SXH         1 TEMP              0 ****  ****    0 ROOT
