@<TRIPOS>MOLECULE
SXH
   60    59     1     0     0
SMALL
bcc


@<TRIPOS>ATOM
      1 O25        -3.9740    2.3250    8.5930 o         1 SXH     -0.911833
      2 P24        -3.2720    1.2650    7.7830 p5        1 SXH      1.339900
      3 O26        -3.8080   -0.1090    8.1690 o         1 SXH     -0.911833
      4 O23        -1.8000    1.3210    8.0570 o         1 SXH     -0.911833
      5 O27        -3.5330    1.5230    6.2300 os        1 SXH     -0.587200
      6 C28        -3.0060    2.7270    5.6350 c3        1 SXH      0.219400
      7 C29        -3.3400    2.7480    4.1280 c3        1 SXH     -0.105000
      8 C30        -3.0520    1.3630    3.5180 c3        1 SXH     -0.075600
      9 C31        -4.7760    3.0820    3.9450 c3        1 SXH     -0.075600
     10 C32        -2.4570    3.8300    3.4110 c3        1 SXH      0.092100
     11 O33        -2.9230    5.0660    3.7080 oh        1 SXH     -0.624800
     12 C34        -2.5160    3.6170    1.9090 c         1 SXH      0.631100
     13 O35        -3.5880    3.4250    1.3650 o         1 SXH     -0.737100
     14 N36        -1.3110    3.7560    1.1080 n         1 SXH     -0.534900
     15 C37        -1.3730    3.5750   -0.3310 c3        1 SXH      0.120000
     16 C38         0.0220    3.8230   -0.9420 c3        1 SXH     -0.168400
     17 C39         0.1680    3.0050   -2.2340 c         1 SXH      0.655100
     18 O40        -0.7940    2.8710   -2.9870 o         1 SXH     -0.725100
     19 N41         1.4450    2.3940   -2.5690 n         1 SXH     -0.541900
     20 C42         1.5270    1.4590   -3.6520 c3        1 SXH      0.119000
     21 C43         2.3080    0.2350   -3.2060 c3        1 SXH     -0.080300
     22 S1          2.6070   -0.8410   -4.6260 ss        1 SXH     -0.209700
     23 C1          2.3720   -2.5770   -4.1340 c         1 SXH      0.531700
     24 O1          1.3060   -2.9440   -3.7180 o         1 SXH     -0.564100
     25 C2          3.5670   -3.5520   -4.1600 c3        1 SXH     -0.175400
     26 C3          3.0560   -5.0010   -4.4560 c3        1 SXH     -0.067400
     27 C4          4.0320   -6.0270   -3.8330 c3        1 SXH     -0.084400
     28 C5          3.5990   -7.4290   -4.2050 c3        1 SXH     -0.076400
     29 C6          4.3330   -8.4440   -3.3080 c3        1 SXH     -0.092100
     30 H28        -2.0280    2.7510    5.7540 h1        1 SXH      0.009200
     31 H28A       -3.4100    3.5150    6.0730 h1        1 SXH      0.009200
     32 H30        -2.0860    1.2130    3.4930 hc        1 SXH      0.024200
     33 H30A       -3.4090    1.3250    2.6170 hc        1 SXH      0.024200
     34 H30B       -3.4860    0.6540    4.0790 hc        1 SXH      0.024200
     35 H31        -4.9290    4.0130    4.1990 hc        1 SXH      0.024200
     36 H31A       -5.0210    2.9560    3.0110 hc        1 SXH      0.024200
     37 H31B       -5.3240    2.4920    4.5100 hc        1 SXH      0.024200
     38 H32        -1.5210    3.7500    3.7200 h1        1 SXH      0.103700
     39 HO33       -2.2480    5.6930    3.5720 ho        1 SXH      0.407000
     40 HN36       -0.5320    4.0110    1.4990 hn        1 SXH      0.417500
     41 H37        -2.0300    4.2240   -0.7230 h1        1 SXH      0.026700
     42 H37A       -1.6570    2.6680   -0.5300 h1        1 SXH      0.026700
     43 H38         0.1250    4.7840   -1.1470 hc        1 SXH      0.085700
     44 H38A        0.7090    3.5500   -0.3040 hc        1 SXH      0.085700
     45 HN41        2.1750    2.5530   -2.0520 hn        1 SXH      0.410500
     46 H42         1.9810    1.8770   -4.4090 h1        1 SXH      0.030700
     47 H42A        0.6300    1.1930   -3.9200 h1        1 SXH      0.030700
     48 H43         1.7960   -0.2490   -2.5360 h1        1 SXH      0.156200
     49 H43A        3.1650    0.5160   -2.8230 h1        1 SXH      0.156200
     50 H2          4.2010   -3.2760   -4.8660 hc        1 SXH      0.059200
     51 H2A         4.0180   -3.5370   -3.2940 hc        1 SXH      0.059200
     52 H3          3.0110   -5.1410   -5.4380 hc        1 SXH      0.039200
     53 H3A         2.1690   -5.1180   -4.0700 hc        1 SXH      0.039200
     54 H4          4.9330   -5.8640   -4.1730 hc        1 SXH      0.051700
     55 H4A         4.0280   -5.9330   -2.8730 hc        1 SXH      0.051700
     56 H5          2.6340   -7.5180   -4.0770 hc        1 SXH      0.030200
     57 H5A         3.8220   -7.6010   -5.1410 hc        1 SXH      0.030200
     58 H6          4.1960   -9.3550   -3.6610 hc        1 SXH      0.029700
     59 H6A         3.9760   -8.3900   -2.3890 hc        1 SXH      0.029700
     60 H6B         5.2920   -8.2380   -3.3000 hc        1 SXH      0.029700
@<TRIPOS>BOND
     1    1    2 1   
     2    2    3 1   
     3    2    4 1   
     4    2    5 1   
     5    5    6 1   
     6    6    7 1   
     7    6   30 1   
     8    6   31 1   
     9    7    8 1   
    10    7    9 1   
    11    7   10 1   
    12    8   32 1   
    13    8   33 1   
    14    8   34 1   
    15    9   35 1   
    16    9   36 1   
    17    9   37 1   
    18   10   11 1   
    19   10   12 1   
    20   10   38 1   
    21   11   39 1   
    22   12   13 2   
    23   12   14 1   
    24   14   15 1   
    25   14   40 1   
    26   15   16 1   
    27   15   41 1   
    28   15   42 1   
    29   16   17 1   
    30   16   43 1   
    31   16   44 1   
    32   17   18 2   
    33   17   19 1   
    34   19   20 1   
    35   19   45 1   
    36   20   21 1   
    37   20   46 1   
    38   20   47 1   
    39   21   22 1   
    40   21   48 1   
    41   21   49 1   
    42   22   23 1   
    43   23   24 2   
    44   23   25 1   
    45   25   26 1   
    46   25   50 1   
    47   25   51 1   
    48   26   27 1   
    49   26   52 1   
    50   26   53 1   
    51   27   28 1   
    52   27   54 1   
    53   27   55 1   
    54   28   29 1   
    55   28   56 1   
    56   28   57 1   
    57   29   58 1   
    58   29   59 1   
    59   29   60 1   
@<TRIPOS>SUBSTRUCTURE
     1 SXH         1 TEMP              0 ****  ****    0 ROOT
