@<TRIPOS>MOLECULE
SXI
   45    48     1     0     0
SMALL
bcc


@<TRIPOS>ATOM
      1 O1          2.3170   -0.4660    4.8240 os        1 SXI     -0.273000
      2 C7          3.4460   -0.3410    2.5390 c3        1 SXI     -0.052000
      3 O2          1.8530   -1.9910    3.3950 o         1 SXI     -0.371000
      4 C6          2.6280   -1.3650    0.4680 c3        1 SXI     -0.141000
      5 C1          2.3000    0.1810    7.5670 c2        1 SXI     -0.284000
      6 N1          0.1130   -1.8270    5.9470 na        1 SXI     -0.192000
      7 C5          4.6540    2.1910    3.5260 c2        1 SXI     -0.189000
      8 C4          3.2150    2.1270    3.1470 c3        1 SXI     -0.076000
      9 C3          2.3420    1.9500    4.3750 c3        1 SXI     -0.176000
     10 C2          2.8020    0.8100    5.2920 c3        1 SXI      0.203000
     11 C15         1.8510   -1.7250    8.9760 c2        1 SXI     -0.230000
     12 C           1.5000   -0.9400    7.9090 c2        1 SXI      0.096000
     13 C16         0.2440   -1.1970    7.1980 c2        1 SXI      0.044000
     14 N4         -1.0460   -0.9240    7.5900 n2        1 SXI     -0.137000
     15 N3         -1.8400   -1.3590    6.6190 n2        1 SXI     -0.098000
     16 N2         -1.1890   -1.8830    5.6410 n2        1 SXI     -0.080000
     17 C14         3.0580   -1.4810    9.8040 c3        1 SXI      0.006000
     18 C13         3.6220   -0.1310    9.5730 c2        1 SXI     -0.332000
     19 C12         3.2730    0.6240    8.5040 c2        1 SXI     -0.036000
     20 O           2.0030    0.9600    6.4650 os        1 SXI     -0.165000
     21 C11         4.3110    0.7580    5.5360 c3        1 SXI     -0.182000
     22 C10         5.1310    1.5690    4.6080 c2        1 SXI     -0.144000
     23 N           3.7110   -1.2250    1.4100 n7        1 SXI     -0.278000
     24 C9          2.4980   -0.9440    3.5720 c2        1 SXI      0.276000
     25 C8          2.9590    1.0480    2.1030 c3        1 SXI     -0.143000
     26 H2          4.4450   -0.2220    3.0660 h1        1 SXI      0.132000
     27 H3          2.4460   -0.3790   -0.0350 h1        1 SXI      0.075333
     28 H4          2.9340   -2.1110   -0.3110 h1        1 SXI      0.075333
     29 H6          1.6660   -1.7080    0.9380 h1        1 SXI      0.075333
     30 H7          5.3040    2.7740    2.8570 ha        1 SXI      0.117000
     31 H8          2.9290    3.1110    2.6710 hc        1 SXI      0.089000
     32 H9          1.2800    1.7570    4.0750 hc        1 SXI      0.110500
     33 H10         2.3580    2.8920    4.9840 hc        1 SXI      0.110500
     34 H11         2.8070   -1.6070   10.8960 hc        1 SXI      0.034000
     35 H12         3.8370   -2.2680    9.5780 hc        1 SXI      0.034000
     36 H13         4.3270    0.2350   10.3270 ha        1 SXI      0.089000
     37 H14         3.7110    1.6250    8.3600 ha        1 SXI      0.085000
     38 H15         4.5090    1.1130    6.5850 hc        1 SXI      0.128500
     39 H16         4.6480   -0.3140    5.4960 hc        1 SXI      0.128500
     40 H17         6.1990    1.6330    4.8740 ha        1 SXI      0.118000
     41 H18         3.9580   -2.1310    1.7710 hn        1 SXI      0.163000
     42 H20         3.4930    1.3430    1.1610 hc        1 SXI      0.093000
     43 H21         1.8610    1.0040    1.8780 hc        1 SXI      0.093000
     44 Cl          0.8730   -3.0420    9.4770 cl        1 SXI     -0.102000
     45 H5          0.8340   -2.0690    5.2960 hn        1 SXI      0.306000
@<TRIPOS>BOND
     1    1   10 1   
     2    1   24 1   
     3    2   23 1   
     4    2   24 1   
     5    2   25 1   
     6    2   26 1   
     7    3   24 1   
     8    4   23 1   
     9    4   27 1   
    10    4   28 1   
    11    4   29 1   
    12    5   12 1   
    13    5   19 1   
    14    5   20 1   
    15    6   13 1   
    16    6   16 1   
    17    6   45 1   
    18    7    8 1   
    19    7   22 1   
    20    7   30 1   
    21    8    9 1   
    22    8   25 1   
    23    8   31 1   
    24    9   10 1   
    25    9   32 1   
    26    9   33 1   
    27   10   20 1   
    28   10   21 1   
    29   11   12 1   
    30   11   17 1   
    31   11   44 1   
    32   12   13 1   
    33   13   14 1   
    34   14   15 1   
    35   15   16 1   
    36   17   18 1   
    37   17   34 1   
    38   17   35 1   
    39   18   19 1   
    40   18   36 1   
    41   19   37 1   
    42   21   22 1   
    43   21   38 1   
    44   21   39 1   
    45   22   40 1   
    46   23   41 1   
    47   25   42 1   
    48   25   43 1   
@<TRIPOS>SUBSTRUCTURE
     1 SXI         1 TEMP              0 ****  ****    0 ROOT
