@<TRIPOS>MOLECULE
SXI
   45    47     1     0     0
SMALL
bcc


@<TRIPOS>ATOM
      1 O1          0.4080   -0.8060    0.9120 o         1 SXI     -0.573000
      2 C7          2.7630   -0.5320    1.4370 c3        1 SXI     -0.122000
      3 O2          1.8830   -1.6770   -0.5230 o         1 SXI     -0.573000
      4 C6          4.3210    0.3110   -0.2490 c3        1 SXI     -0.127000
      5 C1          2.2650   -0.0090    8.0600 c2        1 SXI      0.038000
      6 N1          0.0090   -1.9890    7.3480 na        1 SXI     -0.169000
      7 C5          4.4200    0.8830    3.5020 c2        1 SXI     -0.103000
      8 C4          2.9600    1.1490    3.3830 c3        1 SXI     -0.070000
      9 C3          2.1590    0.4090    4.4480 c3        1 SXI     -0.159000
     10 C2          2.8290    0.5750    5.8070 c3        1 SXI      0.043000
     11 C15         1.9920   -0.7670   10.3520 c2        1 SXI     -0.041000
     12 C           1.5210   -0.7360    8.9800 c2        1 SXI     -0.008000
     13 C16         0.3040   -1.4400    8.6150 c2        1 SXI     -0.032000
     14 N4         -0.8130   -1.7070    9.3770 n2        1 SXI     -0.098000
     15 N3         -1.6640   -2.3530    8.5950 n2        1 SXI     -0.070000
     16 N2         -1.2090   -2.5270    7.4010 n2        1 SXI     -0.016000
     17 C14         3.0200    0.0120   10.7700 c2        1 SXI     -0.186000
     18 C13         3.6640    0.9780    9.8590 c3        1 SXI     -0.189000
     19 C12         3.2270    0.9640    8.4780 c1        1 SXI     -0.086000
     20 O           1.9810   -0.1620    6.7290 os        1 SXI     -0.226000
     21 C11         4.2380   -0.0070    5.8160 c3        1 SXI     -0.140000
     22 C10         4.9930    0.3840    4.6020 c2        1 SXI     -0.213000
     23 N           4.0860   -0.6340    0.8180 n3        1 SXI     -0.282000
     24 C9          1.5870   -1.0360    0.5240 c2        1 SXI      0.309000
     25 C8          2.4120    0.8470    1.9930 c3        1 SXI     -0.142000
     26 H2          2.7920   -1.2610    2.3020 h1        1 SXI      0.079000
     27 H3          4.5460    1.3170    0.1950 h1        1 SXI      0.055000
     28 H4          5.2180   -0.0170   -0.8370 h1        1 SXI      0.055000
     29 H6          3.4520    0.4160   -0.9550 h1        1 SXI      0.055000
     30 H7          5.0160    1.1280    2.6080 ha        1 SXI      0.143000
     31 H8          2.8190    2.2580    3.5630 hc        1 SXI      0.074000
     32 H9          1.1150    0.8120    4.4870 hc        1 SXI      0.104500
     33 H10         2.0900   -0.6800    4.1910 hc        1 SXI      0.104500
     34 H11         3.4900    2.0330   10.2380 hc        1 SXI      0.170000
     35 H12         3.4170   -0.0560   11.7930 ha        1 SXI      0.145000
     36 H13         4.7870    0.8370    9.8640 hc        1 SXI      0.170000
     37 H14         2.8470    1.6530    6.1250 h1        1 SXI      0.117000
     38 H15         4.1780   -1.1280    5.8690 hc        1 SXI      0.085500
     39 H16         4.7730    0.3480    6.7380 hc        1 SXI      0.085500
     40 H17         6.0780    0.2070    4.6510 ha        1 SXI      0.113000
     41 H18         4.1270   -1.5620    0.4180 hn        1 SXI      0.156000
     42 H20         2.7560    1.6530    1.2940 hc        1 SXI      0.097000
     43 H21         1.2880    0.9040    2.0430 hc        1 SXI      0.097000
     44 CL          1.3040   -1.8620   11.4560 cl        1 SXI      0.015000
     45 H5          0.5430   -1.9090    6.5050 hn        1 SXI      0.314000
@<TRIPOS>BOND
     1    1   24 1   
     2    2   23 1   
     3    2   24 1   
     4    2   25 1   
     5    2   26 1   
     6    3   24 1   
     7    4   23 1   
     8    4   27 1   
     9    4   28 1   
    10    4   29 1   
    11    5   12 1   
    12    5   19 1   
    13    5   20 1   
    14    6   13 1   
    15    6   16 1   
    16    6   45 1   
    17    7    8 1   
    18    7   22 1   
    19    7   30 1   
    20    8    9 1   
    21    8   25 1   
    22    8   31 1   
    23    9   10 1   
    24    9   32 1   
    25    9   33 1   
    26   10   20 1   
    27   10   21 1   
    28   10   37 1   
    29   11   12 1   
    30   11   17 1   
    31   11   44 1   
    32   12   13 1   
    33   13   14 1   
    34   14   15 1   
    35   15   16 1   
    36   17   18 1   
    37   17   35 1   
    38   18   19 1   
    39   18   34 1   
    40   18   36 1   
    41   21   22 1   
    42   21   38 1   
    43   21   39 1   
    44   22   40 1   
    45   23   41 1   
    46   25   42 1   
    47   25   43 1   
@<TRIPOS>SUBSTRUCTURE
     1 SXI         1 TEMP              0 ****  ****    0 ROOT
