@<TRIPOS>MOLECULE
SXI
   45    47     1     0     0
SMALL
bcc


@<TRIPOS>ATOM
      1 O1          0.4550   -0.7140    0.8680 o         1 SXI     -0.573000
      2 C7          2.8060   -0.4950    1.4340 c3        1 SXI     -0.122000
      3 O2          1.9350   -1.5980   -0.5530 o         1 SXI     -0.573000
      4 C6          4.4080    0.3360   -0.2170 c3        1 SXI     -0.127000
      5 C1          2.2260   -0.0350    8.0560 c2        1 SXI      0.038000
      6 N1         -0.0510   -1.9720    7.2900 na        1 SXI     -0.169000
      7 C5          4.4610    0.8680    3.5390 c2        1 SXI     -0.103000
      8 C4          3.0080    1.1610    3.4020 c3        1 SXI     -0.070000
      9 C3          2.1790    0.4230    4.4470 c3        1 SXI     -0.159000
     10 C2          2.8330    0.5620    5.8170 c3        1 SXI      0.043000
     11 C15         1.9070   -0.8130   10.3360 c2        1 SXI     -0.041000
     12 C           1.4570   -0.7600    8.9570 c2        1 SXI     -0.008000
     13 C16         0.2340   -1.4400    8.5670 c2        1 SXI     -0.032000
     14 N4         -0.8980   -1.6970    9.3090 n2        1 SXI     -0.098000
     15 N3         -1.7470   -2.3220    8.5080 n2        1 SXI     -0.070000
     16 N2         -1.2780   -2.4900    7.3190 n2        1 SXI     -0.016000
     17 C14         2.9420   -0.0550   10.7760 c2        1 SXI     -0.186000
     18 C13         3.6150    0.9100    9.8850 c3        1 SXI     -0.190000
     19 C12         3.1980    0.9170    8.4980 c1        1 SXI     -0.086000
     20 O           1.9590   -0.1700    6.7200 os        1 SXI     -0.226000
     21 C11         4.2310   -0.0440    5.8390 c3        1 SXI     -0.140000
     22 C10         5.0090    0.3460    4.6410 c2        1 SXI     -0.213000
     23 N           4.1370   -0.6160    0.8350 n3        1 SXI     -0.282000
     24 C9          1.6350   -0.9630    0.4970 c2        1 SXI      0.309000
     25 C8          2.4740    0.8850    2.0010 c3        1 SXI     -0.142000
     26 H2          2.8070   -1.2340    2.2900 h1        1 SXI      0.079000
     27 H3          4.6450    1.3330    0.2420 h1        1 SXI      0.055000
     28 H4          5.3080   -0.0020   -0.7940 h1        1 SXI      0.055000
     29 H6          3.5530    0.4660   -0.9350 h1        1 SXI      0.055000
     30 H7          5.0740    1.1120    2.6560 ha        1 SXI      0.143000
     31 H8          2.8840    2.2700    3.5930 hc        1 SXI      0.074000
     32 H9          1.1420    0.8440    4.4760 hc        1 SXI      0.104500
     33 H10         2.0950   -0.6620    4.1770 hc        1 SXI      0.104500
     34 H11         3.4520    1.9630   10.2730 hc        1 SXI      0.170000
     35 H12         3.3210   -0.1400   11.8050 ha        1 SXI      0.145000
     36 H13         4.7350    0.7500    9.9050 hc        1 SXI      0.170000
     37 H14         2.8640    1.6360    6.1470 h1        1 SXI      0.117000
     38 H15         4.1510   -1.1650    5.8800 hc        1 SXI      0.085500
     39 H16         4.7590    0.2920    6.7730 hc        1 SXI      0.085500
     40 H17         6.0900    0.1500    4.7020 ha        1 SXI      0.113000
     41 H18         4.1660   -1.5400    0.4250 hn        1 SXI      0.156000
     42 H20         2.8440    1.6920    1.3160 hc        1 SXI      0.097000
     43 H21         1.3510    0.9640    2.0350 hc        1 SXI      0.097000
     44 CL          1.1850   -1.9080   11.4180 cl        1 SXI      0.015000
     45 H5          0.4970   -1.8910    6.4560 hn        1 SXI      0.314000
@<TRIPOS>BOND
     1    1   24 1   
     2    2   23 1   
     3    2   24 1   
     4    2   25 1   
     5    2   26 1   
     6    3   24 1   
     7    4   23 1   
     8    4   27 1   
     9    4   28 1   
    10    4   29 1   
    11    5   12 1   
    12    5   19 1   
    13    5   20 1   
    14    6   13 1   
    15    6   16 1   
    16    6   45 1   
    17    7    8 1   
    18    7   22 1   
    19    7   30 1   
    20    8    9 1   
    21    8   25 1   
    22    8   31 1   
    23    9   10 1   
    24    9   32 1   
    25    9   33 1   
    26   10   20 1   
    27   10   21 1   
    28   10   37 1   
    29   11   12 1   
    30   11   17 1   
    31   11   44 1   
    32   12   13 1   
    33   13   14 1   
    34   14   15 1   
    35   15   16 1   
    36   17   18 1   
    37   17   35 1   
    38   18   19 1   
    39   18   34 1   
    40   18   36 1   
    41   21   22 1   
    42   21   38 1   
    43   21   39 1   
    44   22   40 1   
    45   23   41 1   
    46   25   42 1   
    47   25   43 1   
@<TRIPOS>SUBSTRUCTURE
     1 SXI         1 TEMP              0 ****  ****    0 ROOT
