@<TRIPOS>MOLECULE
SXK
   28    30     1     0     0
SMALL
bcc


@<TRIPOS>ATOM
      1 OAA         1.3880   -0.9610   -2.5700 os        1 SXK     -0.271000
      2 OAB         0.7220   -1.2260   -0.4620 o         1 SXK     -0.318000
      3 CAE         2.5400    0.0070  -10.0300 c1        1 SXK     -0.119000
      4 CAF         0.9510    0.4130   -4.5260 c3        1 SXK     -0.173000
      5 CAG         3.3380   -0.4490   -3.9220 c3        1 SXK     -0.173000
      6 CAH         1.3920    0.4510   -5.9120 c1        1 SXK     -0.160000
      7 CAI         3.6390   -0.3630   -5.3420 c1        1 SXK     -0.160000
      8 CAJ         2.2030    0.2010   -8.7000 c2        1 SXK     -0.347000
      9 CAK         4.9040    0.1770   -9.3910 c1        1 SXK     -0.107000
     10 CAL         1.7020    0.9450   -1.2570 c3        1 SXK     -0.058000
     11 OAM         2.1720    1.2040   -2.5730 os        1 SXK     -0.297000
     12 CAN         1.2120   -0.4790   -1.3020 c2        1 SXK      0.284000
     13 CAO         3.9480   -0.4780  -10.2930 c3        1 SXK     -0.025000
     14 CAP         1.9710    0.0540   -3.4360 c3        1 SXK      0.142000
     15 CAQ         4.5910    0.1610   -7.9430 c3        1 SXK      0.016000
     16 CAR         2.7030    0.1140   -6.2630 c2        1 SXK     -0.306000
     17 CAS         3.0920    0.1770   -7.6370 c2        1 SXK      0.193000
     18 HAE         3.9070   -1.5930  -10.0480 h1        1 SXK      0.122000
     19 HAF         0.5280    1.4290   -4.2850 hc        1 SXK      0.124000
     20 HAG         3.4420   -1.5280   -3.6180 hc        1 SXK      0.124000
     21 HAH         0.1040   -0.3290   -4.4720 hc        1 SXK      0.124000
     22 HAI         4.1380    0.1350   -3.3840 hc        1 SXK      0.124000
     23 HAJ         1.1340    0.3480   -8.4530 ha        1 SXK      0.178000
     24 HAK         4.9940   -0.8170   -7.5120 h1        1 SXK      0.155000
     25 HAL         2.5570    1.0730   -0.5460 h1        1 SXK      0.113500
     26 HALA        0.8780    1.6640   -1.0240 h1        1 SXK      0.113500
     27 FCC         4.3110   -0.3740  -11.6310 f         1 SXK     -0.156000
     28 FDD         5.2560    1.1950   -7.2910 f         1 SXK     -0.143000
@<TRIPOS>BOND
     1    1   12 1   
     2    1   14 1   
     3    2   12 1   
     4    3    8 1   
     5    3   13 1   
     6    4    6 1   
     7    4   14 1   
     8    4   19 1   
     9    4   21 1   
    10    5    7 1   
    11    5   14 1   
    12    5   20 1   
    13    5   22 1   
    14    6   16 1   
    15    7   16 1   
    16    8   17 1   
    17    8   23 1   
    18    9   13 1   
    19    9   15 1   
    20   10   11 1   
    21   10   12 1   
    22   10   25 1   
    23   10   26 1   
    24   11   14 1   
    25   13   18 1   
    26   13   27 1   
    27   15   17 1   
    28   15   24 1   
    29   15   28 1   
    30   16   17 1   
@<TRIPOS>SUBSTRUCTURE
     1 SXK         1 TEMP              0 ****  ****    0 ROOT
