@<TRIPOS>MOLECULE
SXK
   28    30     1     0     0
SMALL
bcc


@<TRIPOS>ATOM
      1 OAA         1.5680   -1.0510   -2.5310 os        1 SXK     -0.271000
      2 OAB         0.9680   -1.3530   -0.4080 o         1 SXK     -0.318000
      3 CAE         2.5230   -0.1420  -10.0270 c1        1 SXK     -0.119000
      4 CAF         0.9170    0.1810   -4.5210 c3        1 SXK     -0.173000
      5 CAG         3.4100   -0.2870   -3.9160 c3        1 SXK     -0.173000
      6 CAH         1.3400    0.2450   -5.9130 c1        1 SXK     -0.160000
      7 CAI         3.6890   -0.2000   -5.3410 c1        1 SXK     -0.160000
      8 CAJ         2.1660    0.0370   -8.7000 c2        1 SXK     -0.347000
      9 CAK         4.8360    0.4060   -9.4150 c1        1 SXK     -0.107000
     10 CAL         1.6020    0.9180   -1.2740 c3        1 SXK     -0.058000
     11 OAM         2.0120    1.2080   -2.6040 os        1 SXK     -0.297000
     12 CAN         1.3330   -0.5650   -1.2740 c2        1 SXK      0.284000
     13 CAO         3.9860   -0.4140  -10.2890 c3        1 SXK     -0.025000
     14 CAP         1.9860    0.0150   -3.4310 c3        1 SXK      0.142000
     15 CAQ         4.5360    0.3850   -7.9650 c3        1 SXK      0.016000
     16 CAR         2.6860    0.1010   -6.2660 c2        1 SXK     -0.306000
     17 CAS         3.0540    0.1820   -7.6450 c2        1 SXK      0.193000
     18 HAE         4.1180   -1.5150  -10.0110 h1        1 SXK      0.122000
     19 HAF         0.3450    1.1280   -4.3060 hc        1 SXK      0.124000
     20 HAG         3.6800   -1.3290   -3.5820 hc        1 SXK      0.124000
     21 HAH         0.1930   -0.6790   -4.4380 hc        1 SXK      0.124000
     22 HAI         4.1140    0.4270   -3.4020 hc        1 SXK      0.124000
     23 HAJ         1.0880    0.0260   -8.4460 ha        1 SXK      0.178000
     24 HAK         5.0860   -0.5060   -7.5080 h1        1 SXK      0.155000
     25 HAL         2.4350    1.1940   -0.5800 h1        1 SXK      0.113500
     26 HALA        0.6800    1.5100   -1.0480 h1        1 SXK      0.113500
     27 FCC         4.3230   -0.2970  -11.6320 f         1 SXK     -0.156000
     28 FDD         5.0380    1.5280   -7.3490 f         1 SXK     -0.143000
@<TRIPOS>BOND
     1    1   12 1   
     2    1   14 1   
     3    2   12 1   
     4    3    8 1   
     5    3   13 1   
     6    4    6 1   
     7    4   14 1   
     8    4   19 1   
     9    4   21 1   
    10    5    7 1   
    11    5   14 1   
    12    5   20 1   
    13    5   22 1   
    14    6   16 1   
    15    7   16 1   
    16    8   17 1   
    17    8   23 1   
    18    9   13 1   
    19    9   15 1   
    20   10   11 1   
    21   10   12 1   
    22   10   25 1   
    23   10   26 1   
    24   11   14 1   
    25   13   18 1   
    26   13   27 1   
    27   15   17 1   
    28   15   24 1   
    29   15   28 1   
    30   16   17 1   
@<TRIPOS>SUBSTRUCTURE
     1 SXK         1 TEMP              0 ****  ****    0 ROOT
