@<TRIPOS>MOLECULE
SXK
   28    29     1     0     0
SMALL
bcc


@<TRIPOS>ATOM
      1 OAA        -6.2970   -0.3330    0.9180 o         1 SXK     -0.816800
      2 OAB        -6.1830    0.5920   -1.1230 o         1 SXK     -0.816800
      3 CAE         4.3220    1.2910   -0.6190 ca        1 SXK     -0.179000
      4 CAF        -1.2460    1.5060    0.4990 ca        1 SXK     -0.207000
      5 CAG        -1.4100   -0.7760   -0.3420 ca        1 SXK     -0.207000
      6 CAH         0.1340    1.4130    0.4580 ca        1 SXK     -0.071000
      7 CAI        -0.0220   -0.8520   -0.3690 ca        1 SXK     -0.071000
      8 CAJ         2.9360    1.2850   -0.5350 ca        1 SXK     -0.092000
      9 CAK         4.3700   -0.9690    0.2900 ca        1 SXK     -0.209000
     10 CAL        -4.2110   -0.4920   -0.2670 c3        1 SXK     -0.014600
     11 OAM        -3.3840    0.6000    0.1570 os        1 SXK     -0.280900
     12 CAN        -5.6910   -0.0160   -0.1380 c         1 SXK      0.926600
     13 CAO         5.0430    0.1570   -0.2040 ca        1 SXK      0.125900
     14 CAP        -2.0370    0.4060    0.0910 ca        1 SXK      0.182100
     15 CAQ         2.9650   -0.9540    0.3680 ca        1 SXK      0.144900
     16 CAR         0.7690    0.2360    0.0210 cp        1 SXK     -0.138000
     17 CAS         2.2240    0.1790   -0.0450 cp        1 SXK     -0.028000
     18 HAE         4.8600    2.1670   -1.0070 ha        1 SXK      0.144000
     19 HAF        -1.7480    2.4200    0.8440 ha        1 SXK      0.148000
     20 HAG        -2.0130   -1.6400   -0.6560 ha        1 SXK      0.148000
     21 HAH         0.7450    2.2700    0.7810 ha        1 SXK      0.122000
     22 HAI         0.4620   -1.7820   -0.7030 ha        1 SXK      0.122000
     23 HAJ         2.3710    2.1710   -0.8680 ha        1 SXK      0.148000
     24 HAK         4.9300   -1.8550    0.6170 ha        1 SXK      0.155000
     25 HAL        -3.9790   -0.7430   -1.3320 h1        1 SXK      0.023700
     26 HALA       -4.0260   -1.3730    0.3970 h1        1 SXK      0.023700
     27 FCC         6.3970    0.1490   -0.2830 f         1 SXK     -0.148900
     28 FDD         2.3480   -2.0560    0.8580 f         1 SXK     -0.132900
@<TRIPOS>BOND
     1    1   12 1   
     2    2   12 1   
     3    3    8 ar  
     4    3   13 ar  
     5    3   18 1   
     6    4    6 ar  
     7    4   14 ar  
     8    4   19 1   
     9    5    7 ar  
    10    5   14 ar  
    11    5   20 1   
    12    6   16 ar  
    13    6   21 1   
    14    7   16 ar  
    15    7   22 1   
    16    8   17 ar  
    17    8   23 1   
    18    9   13 ar  
    19    9   15 ar  
    20    9   24 1   
    21   10   11 1   
    22   10   12 1   
    23   10   25 1   
    24   10   26 1   
    25   11   14 1   
    26   13   27 1   
    27   15   17 ar  
    28   15   28 1   
    29   16   17 1   
@<TRIPOS>SUBSTRUCTURE
     1 SXK         1 TEMP              0 ****  ****    0 ROOT
