@<TRIPOS>MOLECULE
SXM
   50    47     1     0     0
SMALL
bcc


@<TRIPOS>ATOM
      1 P24      -367.1880 -340.4380  365.6130 p5        1 SXM      1.888000
      2 O26      -365.9100 -341.0300  366.0420 o         1 SXM     -0.820500
      3 O23      -368.5250 -340.5870  366.2130 o         1 SXM     -0.820500
      4 O27      -366.9130 -338.7850  365.4810 os        1 SXM     -0.656000
      5 C28      -367.9970 -337.9930  365.4760 c2        1 SXM      0.094000
      6 C29      -367.9130 -336.6520  365.3080 c2        1 SXM     -0.316000
      7 C30      -369.9130 -335.9280  366.6260 c3        1 SXM     -0.238000
      8 C31      -366.6350 -335.9420  365.1080 c3        1 SXM     -0.134000
      9 C32      -369.1490 -335.8080  365.3140 c3        1 SXM      0.093000
     10 O33      -370.0260 -336.1040  364.2280 oh        1 SXM     -0.353000
     11 C34       -39.9040   50.9850 -344.6760 c1        1 SXM     -0.018000
     12 O35       -39.8210   50.1070 -345.5190 o         1 SXM     -0.397000
     13 N36       -39.6310   50.5500 -343.2030 n4        1 SXM     -0.134000
     14 C37       -39.2880   49.1400 -342.9100 c3        1 SXM     -0.033000
     15 C38       -39.2340   48.8060 -341.4720 c2        1 SXM     -0.555000
     16 C39       -38.7150   49.6850 -340.5480 c2        1 SXM      0.241000
     17 O40       -38.3170   50.8780 -340.6980 o         1 SXM     -0.504000
     18 N41       -38.6350   49.2110 -339.1190 n4        1 SXM     -0.099000
     19 C42       -37.4850   48.2360 -338.8730 c3        1 SXM      0.041000
     20 C43       -37.6270   47.6040 -337.5830 c2        1 SXM     -0.874000
     21 S1        -37.1210   48.2380 -336.1970 ss        1 SXM      0.353000
     22 C1        -38.1670   49.4690 -335.7220 c2        1 SXM     -0.077000
     23 O1        -39.1240   50.0050 -336.3160 o         1 SXM     -0.402000
     24 C2       1766.0950    0.9120   67.8250 c2        1 SXM     -0.422000
     25 C3       1766.8160    0.1490   68.1670 c1        1 SXM      0.247000
     26 O3A      1766.1390    0.2140   68.3240 o         1 SXM     -0.427000
     27 O3B      1768.0780    0.0870   68.3130 o         1 SXM     -0.451000
     28 H28      -366.4010 -340.9210  363.6450 ho        1 SXM      0.230000
     29 H28A     -368.9640 -338.5170  365.6340 h4        1 SXM      0.146000
     30 H30      -370.2160 -336.9870  366.8040 hc        1 SXM      0.073333
     31 H30A     -369.2660 -335.5930  367.4700 hc        1 SXM      0.073333
     32 H30B     -370.8310 -335.2950  366.5920 hc        1 SXM      0.073333
     33 H31      -366.4750 -335.1840  365.9160 hc        1 SXM      0.062000
     34 H31A     -365.7790 -336.6610  365.1220 hc        1 SXM      0.062000
     35 H31B     -366.6330 -335.4040  364.1270 hc        1 SXM      0.062000
     36 H32      -368.8760 -334.7260  365.1400 h1        1 SXM      0.088000
     37 HO33     -370.0620 -337.0640  364.1450 ho        1 SXM      0.202000
     38 HN36      -38.8790   51.1440 -342.8460 hn        1 SXM      0.204500
     39 H37       -40.4630   50.7980 -342.6730 hn        1 SXM      0.204500
     40 H37A      -38.2940   48.9390 -343.4070 hx        1 SXM      0.082000
     41 H38       -40.0540   48.4940 -343.4250 hx        1 SXM      0.082000
     42 H38A      -39.5660   47.8020 -341.1990 ha        1 SXM      0.121000
     43 HN41      -39.5020   48.7470 -338.8540 hn        1 SXM      0.219000
     44 H42       -38.5220   50.0180 -338.4970 hn        1 SXM      0.219000
     45 H42A      -36.5530   48.8590 -338.9760 hx        1 SXM      0.086000
     46 H43       -37.5270   47.4960 -339.7200 hx        1 SXM      0.086000
     47 H43A      -38.1660   46.6550 -337.5690 h4        1 SXM      0.110000
     48 H2        -37.8800   49.8710 -334.7160 h5        1 SXM      0.043000
     49 H2A      1765.9840    0.7310   66.7430 h4        1 SXM      0.053000
     50 O10      -367.2560 -340.7310  364.0130 oh        1 SXM     -0.809000
@<TRIPOS>BOND
     1    1    2 1   
     2    1    3 1   
     3    1    4 1   
     4    1   50 1   
     5    4    5 1   
     6    5    6 1   
     7    5   29 1   
     8    6    8 1   
     9    6    9 1   
    10    7    9 1   
    11    7   30 1   
    12    7   31 1   
    13    7   32 1   
    14    8   33 1   
    15    8   34 1   
    16    8   35 1   
    17    9   10 1   
    18    9   36 1   
    19   10   37 1   
    20   11   12 1   
    21   11   13 1   
    22   13   14 1   
    23   13   38 1   
    24   13   39 1   
    25   14   15 1   
    26   14   40 1   
    27   14   41 1   
    28   15   16 1   
    29   15   42 1   
    30   16   17 1   
    31   16   18 1   
    32   18   19 1   
    33   18   43 1   
    34   18   44 1   
    35   19   20 1   
    36   19   45 1   
    37   19   46 1   
    38   20   21 1   
    39   20   47 1   
    40   21   22 1   
    41   22   23 1   
    42   22   48 1   
    43   24   25 1   
    44   24   26 1   
    45   24   49 1   
    46   25   27 1   
    47   28   50 1   
@<TRIPOS>SUBSTRUCTURE
     1 SXM         1 TEMP              0 ****  ****    0 ROOT
