@<TRIPOS>MOLECULE
SXM
   50    49     1     0     0
SMALL
bcc


@<TRIPOS>ATOM
      1 P24         7.8850    1.5030    0.0740 p5        1 SXM      1.314900
      2 O26         8.4320    0.3570   -0.7350 o         1 SXM     -0.924500
      3 O23         8.0690    2.8810   -0.4920 o         1 SXM     -0.924500
      4 O27         6.1610    1.2710   -0.0860 os        1 SXM     -0.557200
      5 C28         5.7330   -0.0120   -0.2560 c3        1 SXM      0.226400
      6 C29         4.9830   -0.5500    1.0080 c3        1 SXM     -0.125000
      7 C30         6.0200   -0.8860    2.0690 c3        1 SXM     -0.102600
      8 C31         4.0660    0.5360    1.5320 c3        1 SXM     -0.102600
      9 C32         4.1950   -1.8340    0.6940 c3        1 SXM      0.105100
     10 O33         4.9970   -2.8570    0.1390 oh        1 SXM     -0.608800
     11 C34         2.9930   -1.6480   -0.2480 c         1 SXM      0.644100
     12 O35         3.0350   -1.9720   -1.4500 o         1 SXM     -0.616100
     13 N36         1.7970   -1.2200    0.3250 n         1 SXM     -0.589900
     14 C37         0.5900   -1.0460   -0.4270 c3        1 SXM      0.100000
     15 C38        -0.5140   -2.0270   -0.0030 c3        1 SXM     -0.174400
     16 C39        -1.8060   -1.7590   -0.7510 c         1 SXM      0.658100
     17 O40        -2.1510   -2.4630   -1.7220 o         1 SXM     -0.621100
     18 N41        -2.5900   -0.7020   -0.3230 n         1 SXM     -0.571900
     19 C42        -3.9050   -0.4440   -0.8430 c3        1 SXM      0.098000
     20 C43        -5.0470   -0.8660    0.0760 c3        1 SXM     -0.047300
     21 S1         -6.5900   -0.5160   -0.7150 ss        1 SXM     -0.353700
     22 C1         -7.5000    0.4700    0.4240 c         1 SXM      0.665700
     23 O1         -7.0660    0.8380    1.5160 o         1 SXM     -0.555100
     24 C2         -8.8010    0.8250   -0.1880 c3        1 SXM     -0.303400
     25 C3        -10.0460    0.3340    0.6070 c         1 SXM      0.935600
     26 O3A       -10.0670   -0.8490    1.0360 o         1 SXM     -0.826300
     27 O3B       -10.9870    1.1660    0.7190 o         1 SXM     -0.826300
     28 H28         4.9840   -0.0600   -1.1040 h1        1 SXM      0.003200
     29 H28A        6.5990   -0.7010   -0.4810 h1        1 SXM      0.003200
     30 H30         6.8000   -0.0530    2.0710 hc        1 SXM      0.040367
     31 H30A        5.5480   -0.9790    3.0750 hc        1 SXM      0.040367
     32 H30B        6.5300   -1.8470    1.8210 hc        1 SXM      0.040367
     33 H31         4.7090    1.3860    1.8800 hc        1 SXM      0.040367
     34 H31A        3.4060    0.9260    0.7210 hc        1 SXM      0.040367
     35 H31B        3.4400    0.1720    2.3840 hc        1 SXM      0.040367
     36 H32         3.8210   -2.2800    1.6630 h1        1 SXM      0.048700
     37 HO33        5.5170   -2.4590   -0.5750 ho        1 SXM      0.436000
     38 HN36        1.8500   -0.7600    1.2030 hn        1 SXM      0.307500
     39 H37         0.2040    0.0050   -0.2940 h1        1 SXM      0.057700
     40 H37A        0.8080   -1.2060   -1.5230 h1        1 SXM      0.057700
     41 H38        -0.1960   -3.0750   -0.2470 hc        1 SXM      0.065700
     42 H38A       -0.6890   -1.9700    1.1020 hc        1 SXM      0.065700
     43 HN41       -2.3330   -0.2290    0.5090 hn        1 SXM      0.303500
     44 H42        -3.9890    0.6660   -1.0340 h1        1 SXM      0.066200
     45 H42A       -4.0110   -0.9820   -1.8290 h1        1 SXM      0.066200
     46 H43        -5.0010   -1.9630    0.2770 h1        1 SXM      0.077200
     47 H43A       -5.0020   -0.3290    1.0570 h1        1 SXM      0.077200
     48 H2         -8.8630    1.9420   -0.2640 hc        1 SXM      0.064200
     49 H2A        -8.8820    0.3870   -1.2170 hc        1 SXM      0.064200
     50 O10         8.0560    1.3640    1.5670 o         1 SXM     -0.924500
@<TRIPOS>BOND
     1    1    2 1   
     2    1    3 1   
     3    1    4 1   
     4    1   50 1   
     5    4    5 1   
     6    5    6 1   
     7    5   28 1   
     8    5   29 1   
     9    6    7 1   
    10    6    8 1   
    11    6    9 1   
    12    7   30 1   
    13    7   31 1   
    14    7   32 1   
    15    8   33 1   
    16    8   34 1   
    17    8   35 1   
    18    9   10 1   
    19    9   11 1   
    20    9   36 1   
    21   10   37 1   
    22   11   12 2   
    23   11   13 1   
    24   13   14 1   
    25   13   38 1   
    26   14   15 1   
    27   14   39 1   
    28   14   40 1   
    29   15   16 1   
    30   15   41 1   
    31   15   42 1   
    32   16   17 2   
    33   16   18 1   
    34   18   19 1   
    35   18   43 1   
    36   19   20 1   
    37   19   44 1   
    38   19   45 1   
    39   20   21 1   
    40   20   46 1   
    41   20   47 1   
    42   21   22 1   
    43   22   23 2   
    44   22   24 1   
    45   24   25 1   
    46   24   48 1   
    47   24   49 1   
    48   25   26 1   
    49   25   27 1   
@<TRIPOS>SUBSTRUCTURE
     1 SXM         1 TEMP              0 ****  ****    0 ROOT
