@<TRIPOS>MOLECULE
SXO
   66    65     1     0     0
SMALL
bcc


@<TRIPOS>ATOM
      1 O25         0.6110    0.6670    1.8670 o         1 SXO     -0.922500
      2 P24         1.8190    0.4360    2.7420 p5        1 SXO      1.346900
      3 O26         1.8430    0.9680    4.1340 o         1 SXO     -0.922500
      4 O23         2.2730   -0.9910    2.4930 o         1 SXO     -0.922500
      5 O27         3.0460    1.3350    1.9500 os        1 SXO     -0.560200
      6 C28         3.2070    1.0350    0.6200 c3        1 SXO      0.228400
      7 C29         4.6210    0.4570    0.3100 c3        1 SXO     -0.111000
      8 C30         5.5400    1.6290   -0.0200 c3        1 SXO     -0.091100
      9 C31         5.1720   -0.2810    1.5190 c3        1 SXO     -0.091100
     10 C32         4.6080   -0.4760   -0.9160 c3        1 SXO      0.093100
     11 O33         3.7670   -0.0180   -1.9600 oh        1 SXO     -0.615800
     12 C34         4.2940   -1.9560   -0.6140 c         1 SXO      0.621100
     13 O35         5.0380   -2.8400   -1.1120 o         1 SXO     -0.695100
     14 N36         3.1630   -2.2550    0.0950 n         1 SXO     -0.540900
     15 C37         2.8450   -3.6240    0.4130 c3        1 SXO      0.112000
     16 C38         1.7240   -3.7510    1.4440 c3        1 SXO     -0.174400
     17 C39         0.3830   -3.3840    0.8330 c         1 SXO      0.659100
     18 O40        -0.3490   -4.2880    0.3430 o         1 SXO     -0.724100
     19 N41         0.0220   -2.0670    0.8170 n         1 SXO     -0.540900
     20 C42        -1.2150   -1.6340    0.2310 c3        1 SXO      0.120000
     21 C43        -1.9730   -0.6290    1.0890 c3        1 SXO     -0.069300
     22 S1         -3.2170    0.2050    0.1510 ss        1 SXO     -0.220700
     23 C1         -4.6890   -0.6230    0.3260 c         1 SXO      0.537700
     24 O1         -4.9570   -1.6190    1.0140 o         1 SXO     -0.562100
     25 C2         -5.7500    0.0470   -0.5150 c3        1 SXO     -0.174400
     26 C3         -6.9760    0.3780    0.3100 c3        1 SXO     -0.073400
     27 C4         -8.0850    0.9310   -0.5590 c3        1 SXO     -0.077400
     28 C5         -9.3060    1.2780    0.2670 c3        1 SXO     -0.079400
     29 C6        -10.4190    1.8260   -0.5990 c3        1 SXO     -0.078400
     30 C7        -11.6400    2.1740    0.2270 c3        1 SXO     -0.081400
     31 C8        -12.7520    2.7200   -0.6310 c3        1 SXO     -0.090100
     32 H28         2.4030    0.3180    0.2850 h1        1 SXO     -0.003800
     33 H28A        3.0940    1.9770    0.0030 h1        1 SXO     -0.003800
     34 H30         6.6020    1.2920   -0.0940 hc        1 SXO      0.034533
     35 H30A        5.2440    2.0900   -0.9940 hc        1 SXO      0.034533
     36 H30B        5.4590    2.3980    0.7850 hc        1 SXO      0.034533
     37 H31         5.8750   -1.0910    1.2100 hc        1 SXO      0.034533
     38 H31A        5.7160    0.4310    2.1850 hc        1 SXO      0.034533
     39 H31B        4.3190   -0.7100    2.1200 hc        1 SXO      0.034533
     40 H32         5.6360   -0.4740   -1.3890 h1        1 SXO      0.064700
     41 HO33        2.8690    0.0480   -1.6080 ho        1 SXO      0.418000
     42 HN36        2.8110   -1.5660    0.7660 hn        1 SXO      0.398500
     43 H37         2.5500   -4.1530   -0.5380 h1        1 SXO      0.023700
     44 H37A        3.7580   -4.1530    0.8150 h1        1 SXO      0.023700
     45 H38         1.6670   -4.8190    1.7720 hc        1 SXO      0.095200
     46 H38A        1.9440   -3.0930    2.3370 hc        1 SXO      0.095200
     47 HN41        0.5900   -1.3590    1.2970 hn        1 SXO      0.410500
     48 H42        -0.9840   -1.1420   -0.7600 h1        1 SXO      0.034700
     49 H42A       -1.8710   -2.5290    0.0270 h1        1 SXO      0.034700
     50 H43        -2.4080   -1.1140    1.9910 h1        1 SXO      0.148700
     51 H43A       -1.2630    0.1990    1.4290 h1        1 SXO      0.148700
     52 H2         -5.3390    0.9800   -0.9840 hc        1 SXO      0.060200
     53 H2A        -6.0280   -0.6570   -1.3440 hc        1 SXO      0.060200
     54 H3         -7.3250   -0.5490    0.8370 hc        1 SXO      0.053200
     55 H3A        -6.7050    1.1280    1.0990 hc        1 SXO      0.053200
     56 H4         -7.7220    1.8460   -1.0970 hc        1 SXO      0.035200
     57 H4A        -8.3630    0.1760   -1.3410 hc        1 SXO      0.035200
     58 H5         -9.6640    0.3630    0.8090 hc        1 SXO      0.040700
     59 H5A        -9.0280    2.0350    1.0470 hc        1 SXO      0.040700
     60 H6        -10.0590    2.7400   -1.1410 hc        1 SXO      0.036700
     61 H6A       -10.6970    1.0680   -1.3780 hc        1 SXO      0.036700
     62 H7        -11.9970    1.2590    0.7700 hc        1 SXO      0.038200
     63 H7A       -11.3590    2.9310    1.0060 hc        1 SXO      0.038200
     64 H8        -12.4220    3.6460   -1.1610 hc        1 SXO      0.027367
     65 H8A       -13.0620    1.9700   -1.3980 hc        1 SXO      0.027367
     66 H8B       -13.6410    2.9700   -0.0030 hc        1 SXO      0.027367
@<TRIPOS>BOND
     1    1    2 1   
     2    2    3 1   
     3    2    4 1   
     4    2    5 1   
     5    5    6 1   
     6    6    7 1   
     7    6   32 1   
     8    6   33 1   
     9    7    8 1   
    10    7    9 1   
    11    7   10 1   
    12    8   34 1   
    13    8   35 1   
    14    8   36 1   
    15    9   37 1   
    16    9   38 1   
    17    9   39 1   
    18   10   11 1   
    19   10   12 1   
    20   10   40 1   
    21   11   41 1   
    22   12   13 2   
    23   12   14 1   
    24   14   15 1   
    25   14   42 1   
    26   15   16 1   
    27   15   43 1   
    28   15   44 1   
    29   16   17 1   
    30   16   45 1   
    31   16   46 1   
    32   17   18 2   
    33   17   19 1   
    34   19   20 1   
    35   19   47 1   
    36   20   21 1   
    37   20   48 1   
    38   20   49 1   
    39   21   22 1   
    40   21   50 1   
    41   21   51 1   
    42   22   23 1   
    43   23   24 2   
    44   23   25 1   
    45   25   26 1   
    46   25   52 1   
    47   25   53 1   
    48   26   27 1   
    49   26   54 1   
    50   26   55 1   
    51   27   28 1   
    52   27   56 1   
    53   27   57 1   
    54   28   29 1   
    55   28   58 1   
    56   28   59 1   
    57   29   30 1   
    58   29   60 1   
    59   29   61 1   
    60   30   31 1   
    61   30   62 1   
    62   30   63 1   
    63   31   64 1   
    64   31   65 1   
    65   31   66 1   
@<TRIPOS>SUBSTRUCTURE
     1 SXO         1 TEMP              0 ****  ****    0 ROOT
