@<TRIPOS>MOLECULE
SXO
   66    65     1     0     0
SMALL
bcc


@<TRIPOS>ATOM
      1 O25        -6.5080    4.0660    6.9410 o         1 SXO     -0.920500
      2 P24        -5.8810    3.2100    5.8480 p5        1 SXO      1.329900
      3 O26        -5.8280    3.9910    4.5720 o         1 SXO     -0.920500
      4 O23        -6.7160    1.9620    5.6420 o         1 SXO     -0.920500
      5 O27        -4.3900    2.7930    6.2840 os        1 SXO     -0.566200
      6 C28        -3.8690    1.5790    5.8100 c3        1 SXO      0.229400
      7 C29        -2.3100    1.5940    5.9370 c3        1 SXO     -0.125000
      8 C30        -1.9080    1.7570    7.4520 c3        1 SXO     -0.108600
      9 C31        -1.7470    2.7560    5.1350 c3        1 SXO     -0.108600
     10 C32        -1.7460    0.2800    5.3960 c3        1 SXO      0.097100
     11 O33        -2.0460   -0.7450    6.2730 oh        1 SXO     -0.591800
     12 C34        -0.2200    0.3960    5.2440 c         1 SXO      0.633100
     13 O35         0.3800    1.3260    5.7710 o         1 SXO     -0.644100
     14 N36         0.5120   -0.5710    4.3950 n         1 SXO     -0.587900
     15 C37         1.9210   -0.3570    4.0920 c3        1 SXO      0.097000
     16 C38         2.5090   -1.6320    3.4520 c3        1 SXO     -0.173400
     17 C39         3.6280   -1.2410    2.4640 c         1 SXO      0.654100
     18 O40         4.3930   -0.3110    2.7350 o         1 SXO     -0.657100
     19 N41         3.8060   -1.9850    1.2500 n         1 SXO     -0.544900
     20 C42         4.7960   -1.5700    0.2920 c3        1 SXO      0.098000
     21 C43         4.4210   -2.0920   -1.0850 c3        1 SXO     -0.079300
     22 S1          4.3700   -0.7290   -2.2470 ss        1 SXO     -0.267700
     23 C1          3.5410   -1.2570   -3.7570 c         1 SXO      0.619700
     24 O1          3.7580   -2.3800   -4.2170 o         1 SXO     -0.589100
     25 C2          2.6460   -0.2530   -4.5430 c3        1 SXO     -0.222400
     26 C3          2.1270   -0.9280   -5.8450 c3        1 SXO     -0.036400
     27 C4          0.9650   -0.0810   -6.4410 c3        1 SXO     -0.119400
     28 C5          0.2310   -0.9070   -7.5420 c3        1 SXO     -0.044400
     29 C6         -1.0350   -0.1540   -7.9890 c3        1 SXO     -0.119400
     30 C7         -1.6840   -0.8920   -9.1490 c3        1 SXO     -0.065400
     31 C8         -3.0940   -0.3370   -9.3830 c3        1 SXO     -0.087100
     32 H28        -4.1190    1.4630    4.8690 h1        1 SXO      0.011700
     33 H28A       -4.2360    0.8310    6.3440 h1        1 SXO      0.011700
     34 H30        -2.4720    2.4410    7.8680 hc        1 SXO      0.041867
     35 H30A       -0.9630    2.0300    7.5140 hc        1 SXO      0.041867
     36 H30B       -2.0340    0.8930    7.9230 hc        1 SXO      0.041867
     37 H31        -1.7160    2.5140    4.1880 hc        1 SXO      0.041867
     38 H31A       -0.8460    2.9610    5.4480 hc        1 SXO      0.041867
     39 H31B       -2.3220    3.5450    5.2530 hc        1 SXO      0.041867
     40 H32        -2.1460    0.0890    4.5230 h1        1 SXO      0.082700
     41 HO33       -2.5190   -1.3670    5.8490 ho        1 SXO      0.412000
     42 HN36        0.0900   -1.3060    4.0830 hn        1 SXO      0.320500
     43 H37         2.0100    0.3880    3.4700 h1        1 SXO      0.049700
     44 H37A        2.4100   -0.1520    4.9250 h1        1 SXO      0.049700
     45 H38         1.8110   -2.1070    2.9790 hc        1 SXO      0.069200
     46 H38A        2.8810   -2.2110    4.1570 hc        1 SXO      0.069200
     47 HN41        3.3200   -2.7290    1.1020 hn        1 SXO      0.342500
     48 H42         4.8370   -0.5950    0.2680 h1        1 SXO      0.059200
     49 H42A        5.6800   -1.9310    0.5530 h1        1 SXO      0.059200
     50 H43         5.0920   -2.7500   -1.3810 h1        1 SXO      0.076700
     51 H43A        3.5460   -2.5170   -1.0430 h1        1 SXO      0.076700
     52 H2          3.1720    0.5390   -4.7730 hc        1 SXO      0.150200
     53 H2A         1.8890    0.0100   -3.9890 hc        1 SXO      0.150200
     54 H3          1.8070   -1.8130   -5.6440 hc        1 SXO      0.012200
     55 H3A         2.8580   -0.9850   -6.4980 hc        1 SXO      0.012200
     56 H4          1.3320    0.7470   -6.8380 hc        1 SXO      0.099700
     57 H4A         0.3340    0.1490   -5.7330 hc        1 SXO      0.099700
     58 H5         -0.0220   -1.7850   -7.1790 hc        1 SXO     -0.000300
     59 H5A         0.8280   -1.0300   -8.3110 hc        1 SXO     -0.000300
     60 H6         -0.7940    0.7480   -8.2740 hc        1 SXO      0.092700
     61 H6A        -1.6620   -0.1030   -7.2450 hc        1 SXO      0.092700
     62 H7         -1.1450   -0.7660   -9.9580 hc        1 SXO      0.012200
     63 H7A        -1.7390   -1.8430   -8.9390 hc        1 SXO      0.012200
     64 H8         -3.6110   -0.3970   -8.5520 hc        1 SXO      0.021700
     65 H8A        -3.5380   -0.8580  -10.0810 hc        1 SXO      0.021700
     66 H8B        -3.0340    0.6060   -9.6640 hc        1 SXO      0.021700
@<TRIPOS>BOND
     1    1    2 1   
     2    2    3 1   
     3    2    4 1   
     4    2    5 1   
     5    5    6 1   
     6    6    7 1   
     7    6   32 1   
     8    6   33 1   
     9    7    8 1   
    10    7    9 1   
    11    7   10 1   
    12    8   34 1   
    13    8   35 1   
    14    8   36 1   
    15    9   37 1   
    16    9   38 1   
    17    9   39 1   
    18   10   11 1   
    19   10   12 1   
    20   10   40 1   
    21   11   41 1   
    22   12   13 2   
    23   12   14 1   
    24   14   15 1   
    25   14   42 1   
    26   15   16 1   
    27   15   43 1   
    28   15   44 1   
    29   16   17 1   
    30   16   45 1   
    31   16   46 1   
    32   17   18 2   
    33   17   19 1   
    34   19   20 1   
    35   19   47 1   
    36   20   21 1   
    37   20   48 1   
    38   20   49 1   
    39   21   22 1   
    40   21   50 1   
    41   21   51 1   
    42   22   23 1   
    43   23   24 2   
    44   23   25 1   
    45   25   26 1   
    46   25   52 1   
    47   25   53 1   
    48   26   27 1   
    49   26   54 1   
    50   26   55 1   
    51   27   28 1   
    52   27   56 1   
    53   27   57 1   
    54   28   29 1   
    55   28   58 1   
    56   28   59 1   
    57   29   30 1   
    58   29   60 1   
    59   29   61 1   
    60   30   31 1   
    61   30   62 1   
    62   30   63 1   
    63   31   64 1   
    64   31   65 1   
    65   31   66 1   
@<TRIPOS>SUBSTRUCTURE
     1 SXO         1 TEMP              0 ****  ****    0 ROOT
