@<TRIPOS>MOLECULE
SXO
   68    67     1     0     0
SMALL
bcc


@<TRIPOS>ATOM
      1 O25         0.0000    0.0000    0.0000 o         1 SXO     -0.489500
      2 P24         1.6100    0.0000    0.0000 p5        1 SXO      0.800900
      3 O26         2.1460    0.0000    1.5170 o         1 SXO     -0.489500
      4 O23         2.1030   -1.2080   -0.6980 o         1 SXO     -0.489500
      5 O27         2.1460    1.3140   -0.7600 os        1 SXO     -0.489200
      6 C28         1.9270    1.5530   -2.1510 c3        1 SXO      0.305400
      7 C29         2.5670    2.8860   -2.5470 c3        1 SXO     -0.116000
      8 C30         4.0710    2.8340   -2.2680 c3        1 SXO      0.015900
      9 C31         1.9360    4.0160   -1.7300 c3        1 SXO      0.015900
     10 C32         2.3330    3.1420   -4.0370 c3        1 SXO      0.144100
     11 O33         0.9350    3.3140   -4.2770 oh        1 SXO     -0.511800
     12 C34         2.8370    1.9650   -4.8340 c         1 SXO      0.304100
     13 O35         2.0510    1.1900   -5.3330 o         1 SXO     -0.387100
     14 N36         4.1620    1.7770   -4.9900 ny        1 SXO      0.104200
     15 C37         4.6510    0.6980   -5.8530 c3        1 SXO      0.000800
     16 C38         6.1810    0.7020   -5.8570 c3        1 SXO     -0.012400
     17 C39         6.6840   -0.4070   -6.7450 c         1 SXO     -0.041900
     18 O40         5.8960   -1.1290   -7.3170 o         1 SXO     -0.662100
     19 N41         8.0090   -0.5950   -6.9010 ny        1 SXO      0.329200
     20 C42         8.4980   -1.6750   -7.7640 c3        1 SXO     -0.004200
     21 C43        10.0280   -1.6700   -7.7680 c3        1 SXO      0.050700
     22 S1         10.6330   -3.0020   -8.8350 ss        1 SXO     -0.286700
     23 C1         12.3210   -2.7780   -8.6640 c         1 SXO      0.638700
     24 O1         12.7460   -1.8880   -7.9550 o         1 SXO     -0.559100
     25 C2         13.2800   -3.6840   -9.3900 c3        1 SXO     -0.095400
     26 C3         14.7170   -3.2710   -9.0680 c3        1 SXO     -0.022400
     27 C4         15.6900   -4.1920   -9.8070 c3        1 SXO     -0.029400
     28 C5         17.1280   -3.7790   -9.4850 c3        1 SXO     -0.027400
     29 C6         18.1010   -4.7000  -10.2250 c3        1 SXO     -0.029400
     30 C7         19.5380   -4.2880   -9.9020 c3        1 SXO     -0.028400
     31 C8         20.5120   -5.2080  -10.6400 c3        1 SXO      0.006900
     32 H28         0.8630    1.5900   -2.3480 h1        1 SXO     -0.012300
     33 H28A        2.3740    0.7520   -2.7290 h1        1 SXO     -0.012300
     34 H30         4.4070    1.8040   -2.2930 hc        1 SXO      0.012367
     35 H30A        4.2710    3.2550   -1.2900 hc        1 SXO      0.012367
     36 H30B        4.5980    3.4050   -3.0220 hc        1 SXO      0.012367
     37 H31         0.8570    3.9190   -1.7530 hc        1 SXO      0.012367
     38 H31A        2.2220    4.9710   -2.1550 hc        1 SXO      0.012367
     39 H31B        2.2820    3.9580   -0.7060 hc        1 SXO      0.012367
     40 H32         2.8640    4.0360   -4.3380 h1        1 SXO      0.010700
     41 HO33        0.8080    3.9840   -4.9280 ho        1 SXO      0.394000
     42 HN36        4.5370    2.6310   -5.3520 hn        1 SXO      0.268800
     43 H37         4.2870    0.8490   -6.8620 hx        1 SXO      0.102700
     44 H37A        4.2930   -0.2530   -5.4780 hx        1 SXO      0.102700
     45 H38         6.5460    0.5500   -4.8480 hc        1 SXO     -0.000300
     46 H38A        6.5390    1.6540   -6.2300 hc        1 SXO     -0.000300
     47 HN41        8.3900   -0.7560   -5.9900 hn        1 SXO      0.144300
     48 H42         8.1340   -1.5240   -8.7730 hx        1 SXO      0.088700
     49 H42A        8.1410   -2.6260   -7.3900 hx        1 SXO      0.088700
     50 H43        10.3920   -1.8220   -6.7590 h1        1 SXO      0.055700
     51 H43A       10.3860   -0.7180   -8.1420 h1        1 SXO      0.055700
     52 H2         13.1120   -3.6050  -10.4580 hc        1 SXO      0.048700
     53 H2A        13.1180   -4.7080   -9.0750 hc        1 SXO      0.048700
     54 H3         14.8840   -3.3510   -8.0010 hc        1 SXO      0.028200
     55 H3A        14.8780   -2.2480   -9.3840 hc        1 SXO      0.028200
     56 H4         15.5290   -5.2160   -9.4920 hc        1 SXO      0.015200
     57 H4A        15.5210   -4.1130  -10.8750 hc        1 SXO      0.015200
     58 H5         17.2890   -2.7550   -9.8010 hc        1 SXO      0.016700
     59 H5A        17.2960   -3.8580   -8.4180 hc        1 SXO      0.016700
     60 H6         17.9390   -5.7240   -9.9090 hc        1 SXO      0.015200
     61 H6A        17.9330   -4.6200  -11.2920 hc        1 SXO      0.015200
     62 H7         19.7000   -3.2640  -10.2170 hc        1 SXO      0.012200
     63 H7A        19.7060   -4.3680   -8.8340 hc        1 SXO      0.012200
     64 H8         21.5290   -4.9150  -10.4120 hc        1 SXO      0.001033
     65 H8A        20.3510   -6.2310  -10.3250 hc        1 SXO      0.001033
     66 H8B        20.3440   -5.1280  -11.7080 hc        1 SXO      0.001033
     67 H362        4.5430    1.6160   -4.0790 hn        1 SXO      0.268800
     68 H412        8.3840    0.2590   -7.2640 hn        1 SXO      0.144300
@<TRIPOS>BOND
     1    1    2 1   
     2    2    3 1   
     3    2    4 1   
     4    2    5 1   
     5    5    6 1   
     6    6    7 1   
     7    6   32 1   
     8    6   33 1   
     9    7    8 1   
    10    7    9 1   
    11    7   10 1   
    12    8   34 1   
    13    8   35 1   
    14    8   36 1   
    15    9   37 1   
    16    9   38 1   
    17    9   39 1   
    18   10   11 1   
    19   10   12 1   
    20   10   40 1   
    21   11   41 1   
    22   12   13 2   
    23   12   14 1   
    24   14   15 1   
    25   14   42 1   
    26   14   67 1   
    27   15   16 1   
    28   15   43 1   
    29   15   44 1   
    30   16   17 1   
    31   16   45 1   
    32   16   46 1   
    33   17   18 2   
    34   17   19 1   
    35   19   20 1   
    36   19   47 1   
    37   19   68 1   
    38   20   21 1   
    39   20   48 1   
    40   20   49 1   
    41   21   22 1   
    42   21   50 1   
    43   21   51 1   
    44   22   23 1   
    45   23   24 2   
    46   23   25 1   
    47   25   26 1   
    48   25   52 1   
    49   25   53 1   
    50   26   27 1   
    51   26   54 1   
    52   26   55 1   
    53   27   28 1   
    54   27   56 1   
    55   27   57 1   
    56   28   29 1   
    57   28   58 1   
    58   28   59 1   
    59   29   30 1   
    60   29   60 1   
    61   29   61 1   
    62   30   31 1   
    63   30   62 1   
    64   30   63 1   
    65   31   64 1   
    66   31   65 1   
    67   31   66 1   
@<TRIPOS>SUBSTRUCTURE
     1 SXO         1 TEMP              0 ****  ****    0 ROOT
