@<TRIPOS>MOLECULE
SXR
   70    70     1     0     0
SMALL
bcc


@<TRIPOS>ATOM
      1 P24         4.4130    7.4000   -2.9340 p3        1 SXR      0.313300
      2 O26         5.5500    6.2820   -2.5920 oh        1 SXR     -0.553600
      3 O23         4.5060    7.0310   -4.5210 oh        1 SXR     -0.553600
      4 O27         3.1900    6.3240   -2.7600 os        1 SXR     -0.373900
      5 C28         2.9120    6.0590   -1.3980 c3        1 SXR      0.137400
      6 C29         2.0430    4.7990   -1.2920 c3        1 SXR     -0.079000
      7 C30         1.6300    4.6490    0.1700 c3        1 SXR     -0.107600
      8 C31         0.7980    4.9330   -2.1540 c3        1 SXR     -0.107600
      9 C32         2.8180    3.5210   -1.6870 c3        1 SXR      0.099100
     10 O33         4.1000    3.4530   -1.0870 oh        1 SXR     -0.628800
     11 C34         3.0230    3.4000   -3.1960 c         1 SXR      0.570100
     12 O35         2.2330    2.9170   -3.9890 o         1 SXR     -0.409100
     13 N36         4.3230    3.9350   -3.7580 n4        1 SXR     -0.674800
     14 C37         4.7100    3.3310   -5.0560 c3        1 SXR      0.108800
     15 C38         5.8220    4.1150   -5.7560 c3        1 SXR     -0.194400
     16 C39         5.8570    3.7360   -7.2140 c         1 SXR      0.548100
     17 O40         4.9060    3.3790   -7.8940 o         1 SXR     -0.402100
     18 N41         7.1960    3.8420   -7.8660 n4        1 SXR     -0.683800
     19 C42         7.1720    3.8000   -9.3600 c3        1 SXR      0.119800
     20 C43         8.5090    4.2080   -9.9560 c3        1 SXR     -0.071300
     21 S1          9.1440    5.6380   -9.1260 ss        1 SXR     -0.273200
     22 C11        11.6900    7.7020   -3.2350 ca        1 SXR     -0.127000
     23 C10        12.5700    8.3140   -2.3430 ca        1 SXR     -0.118500
     24 C9         13.1980    7.5600   -1.3520 ca        1 SXR     -0.107000
     25 C8         12.9440    6.1910   -1.2530 ca        1 SXR     -0.118500
     26 C7         12.0650    5.5770   -2.1440 ca        1 SXR     -0.127000
     27 C6         11.4340    6.3300   -3.1410 ca        1 SXR     -0.120300
     28 C5         10.4940    5.6750   -4.0900 c3        1 SXR     -0.015100
     29 C4         11.2320    5.1260   -5.2980 c3        1 SXR     -0.184400
     30 C3         10.3320    4.4390   -6.2690 c         1 SXR      0.621100
     31 O3          9.1540    4.1260   -6.0130 o         1 SXR     -0.662100
     32 C2         10.9300    4.1000   -7.6120 c3        1 SXR     -0.205400
     33 C1         10.7890    5.2060   -8.6250 c3        1 SXR     -0.016300
     34 H1          6.2770    6.6920   -2.1220 ho        1 SXR      0.461000
     35 H2          3.9840    7.6620   -5.0190 ho        1 SXR      0.461000
     36 H28A        3.8790    5.9050   -0.8450 h1        1 SXR      0.065700
     37 H28B        2.3570    6.9380   -0.9720 h1        1 SXR      0.065700
     38 H30A        1.0140    5.5290    0.4820 hc        1 SXR      0.064533
     39 H30B        1.0130    3.7280    0.3080 hc        1 SXR      0.064533
     40 H30C        2.5260    4.5930    0.8350 hc        1 SXR      0.064533
     41 H31A        1.0750    5.1500   -3.2140 hc        1 SXR      0.064533
     42 H31B        0.1940    3.9940   -2.1190 hc        1 SXR      0.064533
     43 H31C        0.1670    5.7750   -1.7780 hc        1 SXR      0.064533
     44 H32A        2.2010    2.6150   -1.3960 h1        1 SXR      0.118700
     45 H33A        3.9690    3.3440   -0.1330 ho        1 SXR      0.467000
     46 H36A        5.0650    3.8050   -3.0530 hn        1 SXR      0.493300
     47 H37A        5.0430    2.2700   -4.8650 hx        1 SXR      0.127200
     48 H37B        3.7890    3.2960   -5.7170 hx        1 SXR      0.127200
     49 H38A        5.6270    5.2310   -5.7040 hc        1 SXR      0.137700
     50 H38B        6.8160    3.9280   -5.2580 hc        1 SXR      0.137700
     51 H41A        7.7980    3.0870   -7.4990 hn        1 SXR      0.486300
     52 H42A        6.8970    2.7550   -9.6860 hx        1 SXR      0.122200
     53 H42B        6.3580    4.5010   -9.7100 hx        1 SXR      0.122200
     54 H43A        9.2410    3.3630   -9.9310 h1        1 SXR      0.120700
     55 H43B        8.3360    4.4650  -11.0360 h1        1 SXR      0.120700
     56 H9A        13.8950    8.0430   -0.6490 ha        1 SXR      0.152000
     57 H8A        13.4400    5.5940   -0.4720 ha        1 SXR      0.147500
     58 H7A        11.8680    4.4980   -2.0620 ha        1 SXR      0.126500
     59 H5A         9.9520    4.8350   -3.5790 hc        1 SXR      0.044200
     60 H5B         9.7200    6.4100   -4.4350 hc        1 SXR      0.044200
     61 H4A        11.7770    5.9560   -5.8260 hc        1 SXR      0.100700
     62 H4B        12.0110    4.3850   -4.9600 hc        1 SXR      0.100700
     63 H2A        12.0280    3.8860   -7.4720 hc        1 SXR      0.086700
     64 H2B        10.4600    3.1560   -8.0000 hc        1 SXR      0.086700
     65 H1A        11.3960    4.9460   -9.5310 h1        1 SXR      0.115700
     66 H1B        11.1900    6.1740   -8.2200 h1        1 SXR      0.115700
     67 H11A       11.1990    8.3020   -4.0150 ha        1 SXR      0.126500
     68 H362        4.2020    4.9660   -3.8730 hn        1 SXR      0.493300
     69 H412        7.6710    4.7390   -7.5800 hn        1 SXR      0.486300
     70 H10A       12.7700    9.3930   -2.4230 ha        1 SXR      0.147500
@<TRIPOS>BOND
     1    1    2 1   
     2    1    3 1   
     3    1    4 1   
     4    2   34 1   
     5    3   35 1   
     6    4    5 1   
     7    5    6 1   
     8    5   36 1   
     9    5   37 1   
    10    6    7 1   
    11    6    8 1   
    12    6    9 1   
    13    7   38 1   
    14    7   39 1   
    15    7   40 1   
    16    8   41 1   
    17    8   42 1   
    18    8   43 1   
    19    9   10 1   
    20    9   11 1   
    21    9   44 1   
    22   10   45 1   
    23   11   12 2   
    24   11   13 1   
    25   13   14 1   
    26   13   46 1   
    27   13   68 1   
    28   14   15 1   
    29   14   47 1   
    30   14   48 1   
    31   15   16 1   
    32   15   49 1   
    33   15   50 1   
    34   16   17 2   
    35   16   18 1   
    36   18   19 1   
    37   18   51 1   
    38   18   69 1   
    39   19   20 1   
    40   19   52 1   
    41   19   53 1   
    42   20   21 1   
    43   20   54 1   
    44   20   55 1   
    45   21   33 1   
    46   22   23 ar  
    47   22   27 ar  
    48   22   67 1   
    49   23   24 ar  
    50   23   70 1   
    51   24   25 ar  
    52   24   56 1   
    53   25   26 ar  
    54   25   57 1   
    55   26   27 ar  
    56   26   58 1   
    57   27   28 1   
    58   28   29 1   
    59   28   59 1   
    60   28   60 1   
    61   29   30 1   
    62   29   61 1   
    63   29   62 1   
    64   30   31 2   
    65   30   32 1   
    66   32   33 1   
    67   32   63 1   
    68   32   64 1   
    69   33   65 1   
    70   33   66 1   
@<TRIPOS>SUBSTRUCTURE
     1 SXR         1 TEMP              0 ****  ****    0 ROOT
