@<TRIPOS>MOLECULE
SXR
   70    70     1     0     0
SMALL
bcc


@<TRIPOS>ATOM
      1 P24         4.3450    7.4700   -3.2020 p3        1 SXR      0.313300
      2 O26         5.4770    6.3910   -2.7410 oh        1 SXR     -0.553600
      3 O23         4.4980    6.9910   -4.7540 oh        1 SXR     -0.553600
      4 O27         3.1240    6.3980   -2.9960 os        1 SXR     -0.373900
      5 C28         2.7980    6.2280   -1.6290 c3        1 SXR      0.137400
      6 C29         1.9350    4.9690   -1.4650 c3        1 SXR     -0.079000
      7 C30         1.4700    4.9190   -0.0120 c3        1 SXR     -0.107600
      8 C31         0.7220    5.0310   -2.3780 c3        1 SXR     -0.107600
      9 C32         2.7330    3.6750   -1.7400 c3        1 SXR      0.099100
     10 O33         3.9930    3.6620   -1.0910 oh        1 SXR     -0.628800
     11 C34         2.9930    3.4500   -3.2290 c         1 SXR      0.570100
     12 O35         2.2360    2.9040   -4.0130 o         1 SXR     -0.409100
     13 N36         4.3090    3.9550   -3.7800 ny        1 SXR     -0.674800
     14 C37         4.7480    3.2650   -5.0170 c3        1 SXR      0.108800
     15 C38         5.8780    4.0090   -5.7320 c3        1 SXR     -0.194400
     16 C39         5.9680    3.5280   -7.1570 c         1 SXR      0.548100
     17 O40         5.0450    3.1140   -7.8430 o         1 SXR     -0.402100
     18 N41         7.3290    3.6010   -7.7680 ny        1 SXR     -0.683800
     19 C42         7.3590    3.4530   -9.2550 c3        1 SXR      0.119800
     20 C43         8.7130    3.8310   -9.8310 c3        1 SXR     -0.071300
     21 S1          9.3070    5.3230   -9.0820 ss        1 SXR     -0.273200
     22 C11        11.6250    7.8250   -3.2710 ca        1 SXR     -0.127000
     23 C10        12.4660    8.5090   -2.3950 ca        1 SXR     -0.118500
     24 C9         13.0640    7.8360   -1.3290 ca        1 SXR     -0.107000
     25 C8         12.8170    6.4760   -1.1400 ca        1 SXR     -0.118500
     26 C7         11.9760    5.7890   -2.0140 ca        1 SXR     -0.127000
     27 C6         11.3760    6.4600   -3.0850 ca        1 SXR     -0.120300
     28 C5         10.4760    5.7290   -4.0170 c3        1 SXR     -0.015100
     29 C4         11.2600    5.1050   -5.1560 c3        1 SXR     -0.184400
     30 C3         10.4010    4.3420   -6.1080 c         1 SXR      0.621100
     31 O3          9.2170    4.0350   -5.8710 o         1 SXR     -0.662100
     32 C2         11.0500    3.9150   -7.4010 c3        1 SXR     -0.205400
     33 C1         10.9360    4.9440   -8.4950 c3        1 SXR     -0.016300
     34 H1          6.1840    6.8400   -2.2760 ho        1 SXR      0.461000
     35 H2          3.9900    7.5810   -5.3140 ho        1 SXR      0.461000
     36 H28A        2.2220    7.1300   -1.2870 h1        1 SXR      0.065700
     37 H28B        3.7460    6.1220   -1.0320 h1        1 SXR      0.065700
     38 H30A        0.8380    5.8130    0.2150 hc        1 SXR      0.064533
     39 H30B        2.3410    4.9200    0.6870 hc        1 SXR      0.064533
     40 H30C        0.8550    4.0050    0.1700 hc        1 SXR      0.064533
     41 H31A        0.1230    4.0910   -2.2990 hc        1 SXR      0.064533
     42 H31B        0.0710    5.8910   -2.0850 hc        1 SXR      0.064533
     43 H31C        1.0350    5.1750   -3.4400 hc        1 SXR      0.064533
     44 H32A        2.1120    2.7860   -1.4080 h1        1 SXR      0.118700
     45 H33A        3.8280    3.6190   -0.1370 ho        1 SXR      0.467000
     46 H36A        4.1850    4.9750   -3.9730 hn        1 SXR      0.493300
     47 H37A        3.8510    3.1750   -5.7060 hx        1 SXR      0.127200
     48 H37B        5.0800    2.2240   -4.7410 hx        1 SXR      0.127200
     49 H38A        5.6730    5.1230   -5.7660 hc        1 SXR      0.137700
     50 H38B        6.8550    3.8660   -5.1870 hc        1 SXR      0.137700
     51 H41A        7.7860    4.5210   -7.5300 hn        1 SXR      0.486300
     52 H42A        6.5520    4.1190   -9.6820 hx        1 SXR      0.122200
     53 H42B        7.1030    2.3850   -9.5150 hx        1 SXR      0.122200
     54 H43A        8.5770    4.0100  -10.9320 h1        1 SXR      0.120700
     55 H43B        9.4500    2.9980   -9.7200 h1        1 SXR      0.120700
     56 H9A        13.7310    8.3760   -0.6400 ha        1 SXR      0.152000
     57 H8A        13.2890    5.9420   -0.3000 ha        1 SXR      0.147500
     58 H7A        11.7840    4.7170   -1.8600 ha        1 SXR      0.126500
     59 H5A         9.9240    4.9200   -3.4660 hc        1 SXR      0.044200
     60 H5B         9.7060    6.4290   -4.4390 hc        1 SXR      0.044200
     61 H4A        11.8160    5.9020   -5.7230 hc        1 SXR      0.100700
     62 H4B        12.0330    4.3990   -4.7410 hc        1 SXR      0.100700
     63 H2A        12.1430    3.7230   -7.2080 hc        1 SXR      0.086700
     64 H2B        10.6010    2.9410   -7.7380 hc        1 SXR      0.086700
     65 H1A        11.5770    4.6270   -9.3580 h1        1 SXR      0.115700
     66 H1B        11.3150    5.9430   -8.1450 h1        1 SXR      0.115700
     67 H11A       11.1570    8.3610   -4.1100 ha        1 SXR      0.126500
     68 H362        5.0260    3.8820   -3.0420 hn        1 SXR      0.493300
     69 H412        7.9230    2.8800   -7.3270 hn        1 SXR      0.486300
     70 H10A       12.6620    9.5820   -2.5470 ha        1 SXR      0.147500
@<TRIPOS>BOND
     1    1    2 1   
     2    1    3 1   
     3    1    4 1   
     4    2   34 1   
     5    3   35 1   
     6    4    5 1   
     7    5    6 1   
     8    5   36 1   
     9    5   37 1   
    10    6    7 1   
    11    6    8 1   
    12    6    9 1   
    13    7   38 1   
    14    7   39 1   
    15    7   40 1   
    16    8   41 1   
    17    8   42 1   
    18    8   43 1   
    19    9   10 1   
    20    9   11 1   
    21    9   44 1   
    22   10   45 1   
    23   11   12 2   
    24   11   13 1   
    25   13   14 1   
    26   13   46 1   
    27   13   68 1   
    28   14   15 1   
    29   14   47 1   
    30   14   48 1   
    31   15   16 1   
    32   15   49 1   
    33   15   50 1   
    34   16   17 2   
    35   16   18 1   
    36   18   19 1   
    37   18   51 1   
    38   18   69 1   
    39   19   20 1   
    40   19   52 1   
    41   19   53 1   
    42   20   21 1   
    43   20   54 1   
    44   20   55 1   
    45   21   33 1   
    46   22   23 ar  
    47   22   27 ar  
    48   22   67 1   
    49   23   24 ar  
    50   23   70 1   
    51   24   25 ar  
    52   24   56 1   
    53   25   26 ar  
    54   25   57 1   
    55   26   27 ar  
    56   26   58 1   
    57   27   28 1   
    58   28   29 1   
    59   28   59 1   
    60   28   60 1   
    61   29   30 1   
    62   29   61 1   
    63   29   62 1   
    64   30   31 2   
    65   30   32 1   
    66   32   33 1   
    67   32   63 1   
    68   32   64 1   
    69   33   65 1   
    70   33   66 1   
@<TRIPOS>SUBSTRUCTURE
     1 SXR         1 TEMP              0 ****  ****    0 ROOT
