@<TRIPOS>MOLECULE
SXS
   20    21     1     0     0
SMALL
bcc


@<TRIPOS>ATOM
      1 O1         -0.1290   -0.0910    0.0340 o         1 SXS     -0.501500
      2 C2          1.0980   -0.0530   -0.0190 c         1 SXS      0.717100
      3 N3          1.9690   -0.0050    1.0800 n         1 SXS     -0.678300
      4 C4          1.9210   -0.0490   -1.2820 ca        1 SXS     -0.044600
      5 C5          1.4290   -0.0890   -2.5760 ca        1 SXS     -0.052000
      6 C6          2.3430   -0.0790   -3.6380 ca        1 SXS     -0.058000
      7 C7          3.7200   -0.0290   -3.3680 ca        1 SXS     -0.075400
      8 N8          4.6780   -0.0180   -4.4760 n4        1 SXS     -0.705000
      9 C11         4.2140    0.0110   -2.0430 ca        1 SXS      0.019000
     10 C12         3.3030    0.0000   -1.0060 ca        1 SXS     -0.265500
     11 S13         3.5780    0.0410    0.7310 sy        1 SXS      1.514900
     12 O14         4.1650    1.2540    1.0510 o         1 SXS     -0.601800
     13 O15         4.2410   -1.1190    1.0940 o         1 SXS     -0.601800
     14 HN3         1.5550   -0.0020    1.9850 hn        1 SXS      0.381500
     15 H5          0.3410   -0.1270   -2.7680 ha        1 SXS      0.202000
     16 H6          1.9550   -0.1100   -4.6720 ha        1 SXS      0.169000
     17 HN8         5.2980   -0.8350   -4.4030 hn        1 SXS      0.470133
     18 HN8A        5.2440    0.8380   -4.4330 hn        1 SXS      0.470133
     19 H11         5.2980    0.0500   -1.8340 ha        1 SXS      0.172000
     20 H83         4.1840   -0.0500   -5.3750 hn        1 SXS      0.470133
@<TRIPOS>BOND
     1    1    2 2   
     2    2    3 1   
     3    2    4 1   
     4    3   11 1   
     5    3   14 1   
     6    4    5 ar  
     7    4   10 ar  
     8    5    6 ar  
     9    5   15 1   
    10    6    7 ar  
    11    6   16 1   
    12    7    8 1   
    13    7    9 ar  
    14    8   17 1   
    15    8   18 1   
    16    8   20 1   
    17    9   10 ar  
    18    9   19 1   
    19   10   11 1   
    20   11   12 2   
    21   11   13 2   
@<TRIPOS>SUBSTRUCTURE
     1 SXS         1 TEMP              0 ****  ****    0 ROOT
