@<TRIPOS>MOLECULE
SXS
   19    20     1     0     0
SMALL
bcc


@<TRIPOS>ATOM
      1 O1         -0.1250    0.1430    0.0180 o         1 SXS     -0.568500
      2 C2          1.1050    0.0780   -0.0560 c         1 SXS      0.728100
      3 N3          1.9630   -0.0020    1.0580 n         1 SXS     -0.685300
      4 C4          1.9340    0.0670   -1.2940 ca        1 SXS     -0.160600
      5 C5          1.4720    0.1270   -2.5950 ca        1 SXS     -0.019000
      6 C6          2.3950    0.1000   -3.6440 ca        1 SXS     -0.178000
      7 C7          3.7830    0.0220   -3.3890 ca        1 SXS      0.175600
      8 N8          4.7020    0.0780   -4.4230 nh        1 SXS     -0.839200
      9 C11         4.2330   -0.0410   -2.0330 ca        1 SXS     -0.058000
     10 C12         3.3190   -0.0180   -1.0060 ca        1 SXS     -0.278500
     11 S13         3.5730   -0.0810    0.6880 sy        1 SXS      1.513900
     12 O14         4.2570    1.0480    1.1400 o         1 SXS     -0.636800
     13 O15         4.1240   -1.3070    1.0650 o         1 SXS     -0.636800
     14 HN3         1.5540   -0.0020    1.9580 hn        1 SXS      0.357500
     15 H5          0.3920    0.1930   -2.8020 ha        1 SXS      0.162000
     16 H6          2.0250    0.1480   -4.6800 ha        1 SXS      0.145000
     17 HN8         4.3630   -0.1260   -5.3340 hn        1 SXS      0.415300
     18 HN8A        5.6220   -0.2370   -4.2240 hn        1 SXS      0.415300
     19 H11         5.3130   -0.1030   -1.8170 ha        1 SXS      0.150000
@<TRIPOS>BOND
     1    1    2 2   
     2    2    3 1   
     3    2    4 1   
     4    3   11 1   
     5    3   14 1   
     6    4    5 ar  
     7    4   10 ar  
     8    5    6 ar  
     9    5   15 1   
    10    6    7 ar  
    11    6   16 1   
    12    7    8 1   
    13    7    9 ar  
    14    8   17 1   
    15    8   18 1   
    16    9   10 ar  
    17    9   19 1   
    18   10   11 1   
    19   11   12 2   
    20   11   13 2   
@<TRIPOS>SUBSTRUCTURE
     1 SXS         1 TEMP              0 ****  ****    0 ROOT
