@<TRIPOS>MOLECULE
SXV
   56    55     1     0     0
SMALL
bcc


@<TRIPOS>ATOM
      1 O25         0.0000    0.0000    0.0000 o         1 SXV     -0.470167
      2 P24         1.4800    0.0000    0.0000 p5        1 SXV      0.810900
      3 O26         2.0170    0.0000    1.5180 o         1 SXV     -0.470167
      4 O23         2.0160   -1.3140   -0.7600 o         1 SXV     -0.470167
      5 O27         2.0170    1.3150   -0.7590 os        1 SXV     -0.492200
      6 C28         1.6280    2.6400   -0.3900 c3        1 SXV      0.304400
      7 C29         2.3170    3.6480   -1.3100 c3        1 SXV     -0.110000
      8 C30         1.9050    3.3810   -2.7600 c3        1 SXV      0.013900
      9 C31         3.8350    3.5070   -1.1780 c3        1 SXV      0.013900
     10 C32         1.9010    5.0670   -0.9150 c3        1 SXV      0.154100
     11 O33         2.3990    5.3620    0.3910 oh        1 SXV     -0.517800
     12 C34         0.3980    5.1680   -0.9150 c         1 SXV      0.251100
     13 O35        -0.2050    5.2440    0.1350 o         1 SXV     -0.435100
     14 N36        -0.2770    5.1740   -2.0820 ny        1 SXV      0.105200
     15 C37        -1.7280    5.3840   -2.0880 c3        1 SXV     -0.001200
     16 C38        -2.2420    5.3450   -3.5280 c3        1 SXV     -0.023400
     17 C39        -3.7340    5.5620   -3.5350 c         1 SXV      0.002100
     18 O40        -4.3260    5.7320   -2.4900 o         1 SXV     -0.627100
     19 N41        -4.4090    5.5680   -4.7010 ny        1 SXV      0.300200
     20 C42        -5.8590    5.7790   -4.7070 c3        1 SXV     -0.003200
     21 C43        -6.3730    5.7390   -6.1470 c3        1 SXV      0.054700
     22 S1         -8.1680    6.0010   -6.1550 ss        1 SXV     -0.364200
     23 C1         -8.5860    5.9210   -7.9180 c3        1 SXV      0.100700
     24 C2        -10.0900    6.1270   -8.0970 c3        1 SXV     -0.105400
     25 C3        -10.4370    6.0600   -9.5620 c         1 SXV      0.605100
     26 O3         -9.5680    5.8690  -10.3790 o         1 SXV     -0.559100
     27 C4        -11.8660    6.2340  -10.0080 c3        1 SXV     -0.086100
     28 H28         0.5540    2.7400   -0.4840 h1        1 SXV     -0.009300
     29 H28A        1.9200    2.8290    0.6360 h1        1 SXV     -0.009300
     30 H30         2.6730    2.7960   -3.2510 hc        1 SXV      0.011033
     31 H30A        1.7820    4.3240   -3.2800 hc        1 SXV      0.011033
     32 H30B        0.9700    2.8350   -2.7750 hc        1 SXV      0.011033
     33 H31         4.3200    4.3250   -1.6960 hc        1 SXV      0.011033
     34 H31A        4.1090    3.5290   -0.1300 hc        1 SXV      0.011033
     35 H31B        4.1490    2.5660   -1.6140 hc        1 SXV      0.011033
     36 H32         2.3110    5.7750   -1.6260 h1        1 SXV      0.004700
     37 HO33        2.6150    6.2780    0.4450 ho        1 SXV      0.391000
     38 HN36        0.1240    5.8960   -2.6470 hn        1 SXV      0.250300
     39 H37        -1.9540    6.3490   -1.6500 hx        1 SXV      0.097200
     40 H37A       -2.2080    4.6040   -1.5110 hx        1 SXV      0.097200
     41 H38        -2.0160    4.3800   -3.9660 hc        1 SXV      0.005700
     42 H38A       -1.7610    6.1250   -4.1050 hc        1 SXV      0.005700
     43 HN41       -4.0070    6.2890   -5.2670 hn        1 SXV      0.159800
     44 H42        -6.3400    4.9990   -4.1300 hx        1 SXV      0.091200
     45 H42A       -6.0850    6.7440   -4.2690 hx        1 SXV      0.091200
     46 H43        -5.8920    6.5200   -6.7240 h1        1 SXV      0.041200
     47 H43A       -6.1470    4.7750   -6.5850 h1        1 SXV      0.041200
     48 H1         -8.0500    6.6970   -8.4520 h1        1 SXV      0.048200
     49 H1A        -8.3050    4.9520   -8.3130 h1        1 SXV      0.048200
     50 H2        -10.6270    5.3510   -7.5630 hc        1 SXV      0.050700
     51 H2A       -10.3710    7.0960   -7.7030 hc        1 SXV      0.050700
     52 H4        -11.9730    5.8750  -11.0240 hc        1 SXV      0.029033
     53 H4A       -12.1330    7.2830   -9.9650 hc        1 SXV      0.029033
     54 H4B       -12.5190    5.6680   -9.3540 hc        1 SXV      0.029033
     55 H362       -0.1100    4.2890   -2.5190 hn        1 SXV      0.250300
     56 H412       -4.2410    4.6830   -5.1390 hn        1 SXV      0.159800
@<TRIPOS>BOND
     1    1    2 1   
     2    2    3 1   
     3    2    4 1   
     4    2    5 1   
     5    5    6 1   
     6    6    7 1   
     7    6   28 1   
     8    6   29 1   
     9    7    8 1   
    10    7    9 1   
    11    7   10 1   
    12    8   30 1   
    13    8   31 1   
    14    8   32 1   
    15    9   33 1   
    16    9   34 1   
    17    9   35 1   
    18   10   11 1   
    19   10   12 1   
    20   10   36 1   
    21   11   37 1   
    22   12   13 2   
    23   12   14 1   
    24   14   15 1   
    25   14   38 1   
    26   14   55 1   
    27   15   16 1   
    28   15   39 1   
    29   15   40 1   
    30   16   17 1   
    31   16   41 1   
    32   16   42 1   
    33   17   18 2   
    34   17   19 1   
    35   19   20 1   
    36   19   43 1   
    37   19   56 1   
    38   20   21 1   
    39   20   44 1   
    40   20   45 1   
    41   21   22 1   
    42   21   46 1   
    43   21   47 1   
    44   22   23 1   
    45   23   24 1   
    46   23   48 1   
    47   23   49 1   
    48   24   25 1   
    49   24   50 1   
    50   24   51 1   
    51   25   26 2   
    52   25   27 1   
    53   27   52 1   
    54   27   53 1   
    55   27   54 1   
@<TRIPOS>SUBSTRUCTURE
     1 SXV         1 TEMP              0 ****  ****    0 ROOT
