@<TRIPOS>MOLECULE
SXV
   54    53     1     0     0
SMALL
bcc


@<TRIPOS>ATOM
      1 O25        -0.9260   -0.0830   -2.4420 o         1 SXV     -0.918500
      2 P24        -1.5360    1.3070   -2.3000 p5        1 SXV      1.333900
      3 O26        -0.5990    2.0910   -1.4160 o         1 SXV     -0.918500
      4 O23        -2.1620    1.9370   -3.4960 o         1 SXV     -0.918500
      5 O27        -2.8730    0.9890   -1.2710 os        1 SXV     -0.559200
      6 C28        -2.5400    0.4330   -0.0610 c3        1 SXV      0.227400
      7 C29        -3.1600   -0.9840    0.1300 c3        1 SXV     -0.111000
      8 C30        -4.5340   -0.8060    0.7710 c3        1 SXV     -0.091600
      9 C31        -3.3230   -1.6840   -1.2090 c3        1 SXV     -0.091600
     10 C32        -2.3210   -1.8550    1.0840 c3        1 SXV      0.094100
     11 O33        -1.8040   -1.1350    2.1900 oh        1 SXV     -0.615800
     12 C34        -1.1790   -2.6560    0.4250 c         1 SXV      0.622100
     13 O35        -1.0340   -3.8640    0.7450 o         1 SXV     -0.694100
     14 N36        -0.3040   -2.0060   -0.4010 n         1 SXV     -0.544900
     15 C37         0.7790   -2.7300   -1.0160 c3        1 SXV      0.112000
     16 C38         1.5120   -1.9190   -2.0830 c3        1 SXV     -0.172400
     17 C39         2.3370   -0.8060   -1.4560 c         1 SXV      0.656100
     18 O40         3.5590   -1.0010   -1.1880 o         1 SXV     -0.760100
     19 N41         1.7060    0.3680   -1.1960 n         1 SXV     -0.525900
     20 C42         2.3440    1.5180   -0.6310 c3        1 SXV      0.092000
     21 C43         3.3290    2.2390   -1.5540 c3        1 SXV      0.000700
     22 S1          4.7780    2.8510   -0.7200 ss        1 SXV     -0.385200
     23 C1          5.6070    1.3670   -0.2210 c3        1 SXV     -0.014300
     24 C2          5.6620    1.2580    1.2830 c3        1 SXV     -0.170400
     25 C3          6.2430   -0.0650    1.7070 c         1 SXV      0.577100
     26 O3          7.4140   -0.1640    2.1030 o         1 SXV     -0.586100
     27 C4          5.3200   -1.2330    1.6370 c3        1 SXV     -0.221100
     28 H28        -1.4170    0.3910    0.0500 h1        1 SXV     -0.003800
     29 H28A       -2.9370    1.0810    0.7770 h1        1 SXV     -0.003800
     30 H30        -5.1190   -0.0590    0.1820 hc        1 SXV      0.034533
     31 H30A       -5.0920   -1.7730    0.7870 hc        1 SXV      0.034533
     32 H30B       -4.4270   -0.4390    1.8200 hc        1 SXV      0.034533
     33 H31        -2.5460   -1.3000   -1.9330 hc        1 SXV      0.034533
     34 H31A       -3.2380   -2.7910   -1.0980 hc        1 SXV      0.034533
     35 H31B       -4.3220   -1.4450   -1.6460 hc        1 SXV      0.034533
     36 H32        -2.9930   -2.6270    1.5650 h1        1 SXV      0.064700
     37 HO33       -1.2610   -0.4140    1.8450 ho        1 SXV      0.418000
     38 HN36       -0.6290   -1.1820   -0.9170 hn        1 SXV      0.401500
     39 H37         1.5040   -3.0420   -0.2100 h1        1 SXV      0.023700
     40 H37A        0.3930   -3.6770   -1.4950 h1        1 SXV      0.023700
     41 H38         2.2120   -2.6010   -2.6280 hc        1 SXV      0.091700
     42 H38A        0.7630   -1.4820   -2.8110 hc        1 SXV      0.091700
     43 HN41        0.7310    0.5120   -1.5040 hn        1 SXV      0.417500
     44 H42         1.5020    2.2330   -0.3670 h1        1 SXV      0.072700
     45 H42A        2.8960    1.2150    0.3050 h1        1 SXV      0.072700
     46 H43         3.6530    1.5780   -2.3930 h1        1 SXV      0.078700
     47 H43A        2.8470    3.1520   -1.9830 h1        1 SXV      0.078700
     48 H1          5.0730    0.4790   -0.6580 h1        1 SXV      0.091700
     49 H1A         6.6410    1.4020   -0.6400 h1        1 SXV      0.091700
     50 H2          6.2810    2.0940    1.7050 hc        1 SXV      0.066200
     51 H2A         4.6250    1.3470    1.7060 hc        1 SXV      0.066200
     52 H4          4.8300   -1.2820    0.6260 hc        1 SXV      0.078367
     53 H4A         5.8640   -2.1880    1.8300 hc        1 SXV      0.078367
     54 H4B         4.5120   -1.1130    2.4010 hc        1 SXV      0.078367
@<TRIPOS>BOND
     1    1    2 1   
     2    2    3 1   
     3    2    4 1   
     4    2    5 1   
     5    5    6 1   
     6    6    7 1   
     7    6   28 1   
     8    6   29 1   
     9    7    8 1   
    10    7    9 1   
    11    7   10 1   
    12    8   30 1   
    13    8   31 1   
    14    8   32 1   
    15    9   33 1   
    16    9   34 1   
    17    9   35 1   
    18   10   11 1   
    19   10   12 1   
    20   10   36 1   
    21   11   37 1   
    22   12   13 2   
    23   12   14 1   
    24   14   15 1   
    25   14   38 1   
    26   15   16 1   
    27   15   39 1   
    28   15   40 1   
    29   16   17 1   
    30   16   41 1   
    31   16   42 1   
    32   17   18 2   
    33   17   19 1   
    34   19   20 1   
    35   19   43 1   
    36   20   21 1   
    37   20   44 1   
    38   20   45 1   
    39   21   22 1   
    40   21   46 1   
    41   21   47 1   
    42   22   23 1   
    43   23   24 1   
    44   23   48 1   
    45   23   49 1   
    46   24   25 1   
    47   24   50 1   
    48   24   51 1   
    49   25   26 2   
    50   25   27 1   
    51   27   52 1   
    52   27   53 1   
    53   27   54 1   
@<TRIPOS>SUBSTRUCTURE
     1 SXV         1 TEMP              0 ****  ****    0 ROOT
