@<TRIPOS>MOLECULE
SXV
   54    53     1     0     0
SMALL
bcc


@<TRIPOS>ATOM
      1 O25        -0.3340    3.7020   -4.6870 o         1 SXV     -0.918500
      2 P24        -0.3260    2.2200   -4.3350 p5        1 SXV      1.333900
      3 O26        -1.7690    1.8160   -4.1710 o         1 SXV     -0.918500
      4 O23         0.6410    1.3250   -5.0330 o         1 SXV     -0.918500
      5 O27         0.2580    2.2550   -2.7210 os        1 SXV     -0.559200
      6 C28        -0.5060    2.9980   -1.8570 c3        1 SXV      0.227400
      7 C29         0.2810    4.1990   -1.2530 c3        1 SXV     -0.111000
      8 C30         0.9650    3.7130    0.0220 c3        1 SXV     -0.091600
      9 C31         1.3390    4.6920   -2.2270 c3        1 SXV     -0.091600
     10 C32        -0.6530    5.3580   -0.8570 c3        1 SXV      0.094100
     11 O33        -1.8680    4.9220   -0.2720 oh        1 SXV     -0.615800
     12 C34        -0.9660    6.3750   -1.9740 c         1 SXV      0.622100
     13 O35        -0.9120    7.6010   -1.6990 o         1 SXV     -0.694100
     14 N36        -1.3910    5.9140   -3.1900 n         1 SXV     -0.544900
     15 C37        -1.7040    6.8450   -4.2440 c3        1 SXV      0.112000
     16 C38        -1.9300    6.1670   -5.5940 c3        1 SXV     -0.172400
     17 C39        -3.2390    5.3930   -5.6060 c         1 SXV      0.656100
     18 O40        -4.2930    5.9440   -6.0400 o         1 SXV     -0.760100
     19 N41        -3.2170    4.1210   -5.1280 n         1 SXV     -0.525900
     20 C42        -4.3550    3.2540   -5.0930 c3        1 SXV      0.092000
     21 C43        -4.8330    2.7470   -6.4550 c3        1 SXV      0.000700
     22 S1         -6.6040    2.6440   -6.6010 ss        1 SXV     -0.385200
     23 C1         -7.1090    4.3410   -6.5330 c3        1 SXV     -0.014300
     24 C2         -7.9420    4.6090   -5.3040 c3        1 SXV     -0.170400
     25 C3         -8.2550    6.0760   -5.1750 c         1 SXV      0.577100
     26 O3         -9.3660    6.5340   -5.4810 o         1 SXV     -0.586100
     27 C4         -7.1570    6.9310   -4.6400 c3        1 SXV     -0.221100
     28 H28        -0.8350    2.3510   -0.9880 h1        1 SXV     -0.003800
     29 H28A       -1.4400    3.3600   -2.3770 h1        1 SXV     -0.003800
     30 H30         1.5350    2.7790   -0.2020 hc        1 SXV      0.034533
     31 H30A        1.6710    4.4850    0.4120 hc        1 SXV      0.034533
     32 H30B        0.2040    3.4950    0.8090 hc        1 SXV      0.034533
     33 H31         1.5260    5.7850   -2.1010 hc        1 SXV      0.034533
     34 H31A        1.0120    4.4680   -3.2840 hc        1 SXV      0.034533
     35 H31B        2.2970    4.1440   -2.0600 hc        1 SXV      0.034533
     36 H32        -0.1650    5.9580   -0.0310 h1        1 SXV      0.064700
     37 HO33       -2.3130    4.3480   -0.9100 ho        1 SXV      0.418000
     38 HN36       -1.0870    4.9850   -3.5000 hn        1 SXV      0.401500
     39 H37        -2.6260    7.4230   -3.9480 h1        1 SXV      0.023700
     40 H37A       -0.8690    7.5960   -4.3610 h1        1 SXV      0.023700
     41 H38        -1.9910    6.9580   -6.3820 hc        1 SXV      0.091700
     42 H38A       -1.0670    5.4710   -5.8200 hc        1 SXV      0.091700
     43 HN41       -2.3210    3.6840   -4.8600 hn        1 SXV      0.417500
     44 H42        -5.2150    3.7890   -4.5950 h1        1 SXV      0.072700
     45 H42A       -4.0380    2.3640   -4.4630 h1        1 SXV      0.072700
     46 H43        -4.4790    1.6990   -6.6140 h1        1 SXV      0.078700
     47 H43A       -4.4430    3.3850   -7.2830 h1        1 SXV      0.078700
     48 H1         -7.7060    4.5520   -7.4530 h1        1 SXV      0.091700
     49 H1A        -6.1970    5.0000   -6.5390 h1        1 SXV      0.091700
     50 H2         -7.3810    4.2790   -4.3890 hc        1 SXV      0.066200
     51 H2A        -8.8970    4.0230   -5.3540 hc        1 SXV      0.066200
     52 H4         -6.2050    6.7420   -5.2090 hc        1 SXV      0.078367
     53 H4A        -7.4190    8.0130   -4.7080 hc        1 SXV      0.078367
     54 H4B        -6.9710    6.6690   -3.5690 hc        1 SXV      0.078367
@<TRIPOS>BOND
     1    1    2 1   
     2    2    3 1   
     3    2    4 1   
     4    2    5 1   
     5    5    6 1   
     6    6    7 1   
     7    6   28 1   
     8    6   29 1   
     9    7    8 1   
    10    7    9 1   
    11    7   10 1   
    12    8   30 1   
    13    8   31 1   
    14    8   32 1   
    15    9   33 1   
    16    9   34 1   
    17    9   35 1   
    18   10   11 1   
    19   10   12 1   
    20   10   36 1   
    21   11   37 1   
    22   12   13 2   
    23   12   14 1   
    24   14   15 1   
    25   14   38 1   
    26   15   16 1   
    27   15   39 1   
    28   15   40 1   
    29   16   17 1   
    30   16   41 1   
    31   16   42 1   
    32   17   18 2   
    33   17   19 1   
    34   19   20 1   
    35   19   43 1   
    36   20   21 1   
    37   20   44 1   
    38   20   45 1   
    39   21   22 1   
    40   21   46 1   
    41   21   47 1   
    42   22   23 1   
    43   23   24 1   
    44   23   48 1   
    45   23   49 1   
    46   24   25 1   
    47   24   50 1   
    48   24   51 1   
    49   25   26 2   
    50   25   27 1   
    51   27   52 1   
    52   27   53 1   
    53   27   54 1   
@<TRIPOS>SUBSTRUCTURE
     1 SXV         1 TEMP              0 ****  ****    0 ROOT
