@<TRIPOS>MOLECULE
SXX
   27    27     1     0     0
SMALL
bcc


@<TRIPOS>ATOM
      1 C1          0.1750    0.1670    0.1930 ca        1 SXX      0.059100
      2 C2          1.5270   -0.2220    0.1350 ca        1 SXX      0.074600
      3 C3          2.1970   -0.6280    1.2920 ca        1 SXX     -0.186500
      4 C4          1.5330   -0.6570    2.5280 ca        1 SXX      0.018200
      5 C5          0.1800   -0.2970    2.5930 ca        1 SXX     -0.186500
      6 C6         -0.4860    0.1130    1.4390 ca        1 SXX      0.074600
      7 O7         -0.4500    0.5540   -0.9730 oh        1 SXX     -0.495100
      8 O8         -1.8220    0.4900    1.4090 os        1 SXX     -0.345400
      9 O9          2.1120   -0.2140   -1.1250 os        1 SXX     -0.345400
     10 C10         2.2600   -1.0880    3.7110 ce        1 SXX     -0.184200
     11 C11         2.0420   -0.7360    4.9830 cf        1 SXX     -0.143200
     12 C12         1.0320    0.2300    5.5560 c         1 SXX      0.896800
     13 O13        -0.1800   -0.1290    5.6420 o         1 SXX     -0.834300
     14 O14         1.4650    1.3410    5.9720 o         1 SXX     -0.834300
     15 C15         3.5180   -0.0050   -1.1250 c3        1 SXX      0.117700
     16 C14        -2.3930    0.7830    2.6850 c3        1 SXX      0.117700
     17 H3          3.2550   -0.9190    1.2390 ha        1 SXX      0.171000
     18 H5         -0.3360   -0.3280    3.5740 ha        1 SXX      0.171000
     19 H7         -1.3260    0.8870   -0.7260 ho        1 SXX      0.420000
     20 H10         3.0920   -1.7810    3.4830 ha        1 SXX      0.087000
     21 H11         2.6960   -1.1610    5.7660 ha        1 SXX      0.099000
     22 H151        3.8090    0.8310   -0.4450 h1        1 SXX      0.041533
     23 H152        3.7520    0.2500   -2.1890 h1        1 SXX      0.041533
     24 H153        4.0470   -0.9440   -0.8270 h1        1 SXX      0.041533
     25 H141       -1.7470    1.4860    3.2650 h1        1 SXX      0.041533
     26 H142       -2.5440   -0.1630    3.2600 h1        1 SXX      0.041533
     27 H143       -3.3740    1.2550    2.4290 h1        1 SXX      0.041533
@<TRIPOS>BOND
     1    1    2 ar  
     2    1    6 ar  
     3    1    7 1   
     4    2    3 ar  
     5    2    9 1   
     6    3    4 ar  
     7    3   17 1   
     8    4    5 ar  
     9    4   10 1   
    10    5    6 ar  
    11    5   18 1   
    12    6    8 1   
    13    7   19 1   
    14    8   16 1   
    15    9   15 1   
    16   10   11 2   
    17   10   20 1   
    18   11   12 1   
    19   11   21 1   
    20   12   13 1   
    21   12   14 1   
    22   15   22 1   
    23   15   23 1   
    24   15   24 1   
    25   16   25 1   
    26   16   26 1   
    27   16   27 1   
@<TRIPOS>SUBSTRUCTURE
     1 SXX         1 TEMP              0 ****  ****    0 ROOT
