@<TRIPOS>MOLECULE
SXX
   27    27     1     0     0
SMALL
bcc


@<TRIPOS>ATOM
      1 C1          0.1440    0.1480    0.2040 ca        1 SXX      0.059100
      2 C2          1.5060   -0.2020    0.1260 ca        1 SXX      0.074600
      3 C3          2.2030   -0.5900    1.2730 ca        1 SXX     -0.186500
      4 C4          1.5580   -0.6380    2.5190 ca        1 SXX      0.018200
      5 C5          0.1970   -0.3170    2.6020 ca        1 SXX     -0.186500
      6 C6         -0.4970    0.0750    1.4580 ca        1 SXX      0.074600
      7 O7         -0.5080    0.5180   -0.9540 oh        1 SXX     -0.495100
      8 O8         -1.8430    0.4140    1.4480 os        1 SXX     -0.345400
      9 O9          2.0730   -0.1770   -1.1420 os        1 SXX     -0.345400
     10 C10         2.3130   -1.0500    3.6910 ce        1 SXX     -0.184200
     11 C11         2.1040   -0.7050    4.9660 cf        1 SXX     -0.143200
     12 C12         1.0750    0.2320    5.5540 c         1 SXX      0.896800
     13 O13        -0.1250   -0.1620    5.6570 o         1 SXX     -0.834300
     14 O14         1.4820    1.3540    5.9650 o         1 SXX     -0.834300
     15 C15         3.4720    0.0700   -1.1620 c3        1 SXX      0.117700
     16 C14        -2.4050    0.6900    2.7320 c3        1 SXX      0.117700
     17 H3          3.2680   -0.8510    1.2050 ha        1 SXX      0.171000
     18 H5         -0.3040   -0.3630    3.5910 ha        1 SXX      0.171000
     19 H7         -1.3890    0.8260   -0.6930 ho        1 SXX      0.420000
     20 H10         3.1610   -1.7180    3.4500 ha        1 SXX      0.087000
     21 H11         2.7800   -1.1120    5.7390 ha        1 SXX      0.099000
     22 H151        3.7490    0.9130   -0.4850 h1        1 SXX      0.041533
     23 H152        3.6830    0.3330   -2.2290 h1        1 SXX      0.041533
     24 H153        4.0300   -0.8550   -0.8730 h1        1 SXX      0.041533
     25 H141       -1.7710    1.4100    3.3040 h1        1 SXX      0.041533
     26 H142       -2.5210   -0.2610    3.3080 h1        1 SXX      0.041533
     27 H143       -3.4030    1.1330    2.4900 h1        1 SXX      0.041533
@<TRIPOS>BOND
     1    1    2 ar  
     2    1    6 ar  
     3    1    7 1   
     4    2    3 ar  
     5    2    9 1   
     6    3    4 ar  
     7    3   17 1   
     8    4    5 ar  
     9    4   10 1   
    10    5    6 ar  
    11    5   18 1   
    12    6    8 1   
    13    7   19 1   
    14    8   16 1   
    15    9   15 1   
    16   10   11 2   
    17   10   20 1   
    18   11   12 1   
    19   11   21 1   
    20   12   13 1   
    21   12   14 1   
    22   15   22 1   
    23   15   23 1   
    24   15   24 1   
    25   16   25 1   
    26   16   26 1   
    27   16   27 1   
@<TRIPOS>SUBSTRUCTURE
     1 SXX         1 TEMP              0 ****  ****    0 ROOT
