@<TRIPOS>MOLECULE
SXX
   27    23     1     0     0
SMALL
bcc


@<TRIPOS>ATOM
      1 C1         -0.8060   -0.0560   -1.3390 c1        1 SXX      0.004000
      2 C2          0.5800   -0.1010   -1.3240 c1        1 SXX      0.006000
      3 C3          1.2580   -0.1390   -0.1150 c1        1 SXX     -0.158000
      4 C4          0.5520   -0.1330    1.0770 c1        1 SXX      0.018000
      5 C5         -0.8340   -0.0890    1.0610 c1        1 SXX     -0.156000
      6 C6         -1.5120   -0.0500   -0.1460 c1        1 SXX      0.028000
      7 O7         -1.4960   -0.0190   -2.5680 oh        1 SXX     -0.267000
      8 O8         -2.9180   -0.0500   -0.1630 os        1 SXX     -0.221000
      9 O9          1.2940   -0.1410   -2.5330 os        1 SXX     -0.253000
     10 C10         1.2940   -0.1010    2.3950 c2        1 SXX     -0.194000
     11 C11         1.7260   -1.2490    2.9530 c1        1 SXX     -0.124000
     12 C12         1.4690   -2.5710    2.2610 c1        1 SXX      0.346000
     13 O13         0.4100   -3.2100    2.4980 o         1 SXX     -0.568500
     14 O14         2.3300   -3.0480    1.4760 o         1 SXX     -0.568500
     15 C15         1.9140    1.0790   -2.8710 c3        1 SXX     -0.072000
     16 C14        -3.4920    1.2120    0.0930 c3        1 SXX     -0.071000
     17 H3          2.2340   -0.1910   -0.1050 ha        1 SXX      0.216000
     18 H5         -1.3320   -0.0950    1.9010 ha        1 SXX      0.135000
     19 H7         -1.6330    0.8270   -2.8060 ho        1 SXX      0.224000
     20 H10         1.4600    0.7520    2.8410 ha        1 SXX      0.088000
     21 H11         2.2050   -1.2280    3.8030 ha        1 SXX      0.099000
     22 H151        2.1150    1.0890   -3.8320 h1        1 SXX      0.090333
     23 H152        2.7470    1.1750   -2.3620 h1        1 SXX      0.090333
     24 H153        1.3110    1.8230   -2.6550 h1        1 SXX      0.090333
     25 H141       -4.3310    1.0950    0.5900 h1        1 SXX      0.072667
     26 H142       -2.8690    1.7530    0.6260 h1        1 SXX      0.072667
     27 H143       -3.6750    1.6660   -0.7570 h1        1 SXX      0.072667
@<TRIPOS>BOND
     1    1    6 1   
     2    1    7 1   
     3    2    3 1   
     4    2    9 1   
     5    3   17 1   
     6    4    5 1   
     7    4   10 1   
     8    5   18 1   
     9    6    8 1   
    10    7   19 1   
    11    8   16 1   
    12    9   15 1   
    13   10   11 1   
    14   10   20 1   
    15   11   21 1   
    16   12   13 1   
    17   12   14 1   
    18   15   22 1   
    19   15   23 1   
    20   15   24 1   
    21   16   25 1   
    22   16   26 1   
    23   16   27 1   
@<TRIPOS>SUBSTRUCTURE
     1 SXX         1 TEMP              0 ****  ****    0 ROOT
