@<TRIPOS>MOLECULE
SXX
   27    27     1     0     0
SMALL
bcc


@<TRIPOS>ATOM
      1 C1         -0.2940   -0.0250    2.3320 ca        1 SXX      0.047100
      2 C2          1.0580   -0.0430    1.9290 ca        1 SXX      0.091100
      3 C3          1.3910    0.0110    0.5750 ca        1 SXX     -0.206500
      4 C4          0.3900    0.0790   -0.4090 ca        1 SXX      0.031200
      5 C5         -0.9560    0.1030   -0.0160 ca        1 SXX     -0.206500
      6 C6         -1.2890    0.0530    1.3380 ca        1 SXX      0.091100
      7 O7         -0.5760   -0.0570    3.6810 oh        1 SXX     -0.489100
      8 O8         -2.5900    0.0870    1.8270 os        1 SXX     -0.337400
      9 O9          1.9790   -0.1220    2.9610 os        1 SXX     -0.337400
     10 C10         0.7800    0.1280   -1.8060 ce        1 SXX     -0.188200
     11 C11        -0.0310   -0.0600   -2.8550 cf        1 SXX     -0.153200
     12 C12         0.4530    0.0060   -4.2900 c         1 SXX      0.889800
     13 O13        -0.4250   -0.1190   -5.1920 o         1 SXX     -0.830800
     14 O14         1.6840    0.1790   -4.5150 o         1 SXX     -0.830800
     15 C15         3.3450   -0.0930    2.5680 c3        1 SXX      0.118200
     16 C14        -3.6120   -0.1320    0.8610 c3        1 SXX      0.118200
     17 H3          2.4430   -0.0040    0.2560 ha        1 SXX      0.145500
     18 H5         -1.7400    0.1690   -0.7830 ha        1 SXX      0.145500
     19 H7         -1.5310   -0.1960    3.7670 ho        1 SXX      0.418000
     20 H10         1.8510    0.3280   -2.0010 ha        1 SXX      0.146000
     21 H11        -1.1040   -0.2790   -2.7480 ha        1 SXX      0.098000
     22 H151        3.8970   -0.1420    3.5410 h1        1 SXX      0.040033
     23 H152        3.5940   -0.9770    1.9320 h1        1 SXX      0.040033
     24 H153        3.5850    0.8540    2.0280 h1        1 SXX      0.040033
     25 H141       -4.5430   -0.2110    1.4760 h1        1 SXX      0.040033
     26 H142       -3.6760    0.7380    0.1620 h1        1 SXX      0.040033
     27 H143       -3.4300   -1.0750    0.2920 h1        1 SXX      0.040033
@<TRIPOS>BOND
     1    1    2 ar  
     2    1    6 ar  
     3    1    7 1   
     4    2    3 ar  
     5    2    9 1   
     6    3    4 ar  
     7    3   17 1   
     8    4    5 ar  
     9    4   10 1   
    10    5    6 ar  
    11    5   18 1   
    12    6    8 1   
    13    7   19 1   
    14    8   16 1   
    15    9   15 1   
    16   10   11 2   
    17   10   20 1   
    18   11   12 1   
    19   11   21 1   
    20   12   13 1   
    21   12   14 1   
    22   15   22 1   
    23   15   23 1   
    24   15   24 1   
    25   16   25 1   
    26   16   26 1   
    27   16   27 1   
@<TRIPOS>SUBSTRUCTURE
     1 SXX         1 TEMP              0 ****  ****    0 ROOT
