@<TRIPOS>MOLECULE
SY1
   49    50     1     0     0
SMALL
bcc


@<TRIPOS>ATOM
      1 N1          2.8940    0.7270    1.1480 nz        1 SY1     -0.841600
      2 C4          1.2430    0.3480    4.0470 c2        1 SY1     -0.150200
      3 C5          2.5550    0.3690    4.2950 c2        1 SY1     -0.296000
      4 C7          4.3590    0.0080   -0.7960 c2        1 SY1      0.443200
      5 C8          4.3510    1.0470   -2.9140 cc        1 SY1      0.673900
      6 C10         4.7490   -0.0940   -4.9310 ca        1 SY1      0.169400
      7 C13         5.5700   -0.0930   -7.6200 ca        1 SY1     -0.129000
      8 C15         5.1920    1.0990   -5.5570 ca        1 SY1     -0.178600
      9 C20         3.2080    4.3210   -3.2720 ca        1 SY1     -0.073300
     10 C21         3.3130    5.1270   -4.4100 ca        1 SY1     -0.112000
     11 C22         2.2190    5.8650   -4.8630 ca        1 SY1     -0.090000
     12 C24         0.8830    5.0210   -3.0390 ca        1 SY1     -0.084000
     13 N27         1.7110    2.8640   -0.4380 n1        1 SY1     -0.513800
     14 C25         1.9830    4.2780   -2.5830 ca        1 SY1     -0.042000
     15 C23         1.0040    5.8110   -4.1810 ca        1 SY1     -0.118000
     16 N18         4.6690    2.3110   -3.4650 n         1 SY1     -0.387300
     17 N6          3.9560    0.9940   -1.5180 ne        1 SY1     -0.653000
     18 C3          0.4480   -0.8840    3.8860 c3        1 SY1     -0.093900
     19 C2          3.9590   -0.1770    0.6490 c3        1 SY1      0.044500
     20 C16         5.2000    2.3520   -4.7860 c         1 SY1      0.718100
     21 O17         5.6420    3.4290   -5.2210 o         1 SY1     -0.603500
     22 N9          4.3810   -0.1020   -3.5850 nd        1 SY1     -0.629100
     23 C14         5.6060    1.0920   -6.8950 ca        1 SY1     -0.057000
     24 C12         5.1220   -1.2740   -7.0140 ca        1 SY1     -0.086000
     25 C11         4.7150   -1.2890   -5.6880 ca        1 SY1     -0.111000
     26 HN11        2.0550    0.6460    0.5590 hn        1 SY1      0.474467
     27 HN12        2.6460    0.4880    2.1260 hn        1 SY1      0.474467
     28 H41         0.6640    1.2880    3.9900 ha        1 SY1      0.137000
     29 H42        -0.1810   -0.8340    2.9620 hc        1 SY1      0.060033
     30 H51         3.1000    1.3040    4.4850 ha        1 SY1      0.125000
     31 H52         3.1480   -0.5480    4.4260 ha        1 SY1      0.125000
     32 H71         4.8790   -0.0320    1.2900 hx        1 SY1      0.122700
     33 H72         5.0310   -0.8200   -1.1250 h4        1 SY1      0.050800
     34 H13         5.8930   -0.1050   -8.6720 ha        1 SY1      0.155000
     35 H21         4.2730    5.1750   -4.9560 ha        1 SY1      0.178000
     36 H22         2.3190    6.4920   -5.7630 ha        1 SY1      0.156000
     37 H24        -0.0720    4.9810   -2.4940 ha        1 SY1      0.150000
     38 H23         0.1400    6.3920   -4.5390 ha        1 SY1      0.155000
     39 H191        4.3510    3.4130   -1.6780 h1        1 SY1      0.080200
     40 H192        5.3320    4.2250   -2.9810 h1        1 SY1      0.080200
     41 H31         3.5970   -1.2430    0.7690 hx        1 SY1      0.122700
     42 H32        -0.2440   -0.9930    4.7620 hc        1 SY1      0.060033
     43 H2          1.0890   -1.7980    3.8390 hc        1 SY1      0.060033
     44 H14         5.9550    2.0320   -7.3560 ha        1 SY1      0.168000
     45 H12         5.0940   -2.2060   -7.6010 ha        1 SY1      0.152000
     46 H11         4.3660   -2.2250   -5.2240 ha        1 SY1      0.156000
     47 C19         4.4240    3.5720   -2.7890 c3        1 SY1      0.136300
     48 C26         1.8370    3.4970   -1.4070 cg        1 SY1      0.343800
     49 H131        3.2120    1.7030    1.1140 hn        1 SY1      0.474467
@<TRIPOS>BOND
     1    1   19 1   
     2    1   26 1   
     3    1   27 1   
     4    1   49 1   
     5    2    3 2   
     6    2   18 1   
     7    2   28 1   
     8    3   30 1   
     9    3   31 1   
    10    4   17 2   
    11    4   19 1   
    12    4   33 1   
    13    5   16 1   
    14    5   17 1   
    15    5   22 2   
    16    6    8 ar  
    17    6   22 1   
    18    6   25 ar  
    19    7   23 ar  
    20    7   24 ar  
    21    7   34 1   
    22    8   20 1   
    23    8   23 ar  
    24    9   10 ar  
    25    9   14 ar  
    26    9   47 1   
    27   10   11 ar  
    28   10   35 1   
    29   11   15 ar  
    30   11   36 1   
    31   12   14 ar  
    32   12   15 ar  
    33   12   37 1   
    34   13   48 3   
    35   14   48 1   
    36   15   38 1   
    37   16   20 1   
    38   16   47 1   
    39   18   29 1   
    40   18   42 1   
    41   18   43 1   
    42   19   32 1   
    43   19   41 1   
    44   20   21 2   
    45   23   44 1   
    46   24   25 ar  
    47   24   45 1   
    48   25   46 1   
    49   39   47 1   
    50   40   47 1   
@<TRIPOS>SUBSTRUCTURE
     1 SY1         1 TEMP              0 ****  ****    0 ROOT
