@<TRIPOS>MOLECULE
SY1
   49    52     1     0     0
SMALL
bcc


@<TRIPOS>ATOM
      1 N1          0.7500   -1.0480    0.6330 n4        1 SY1     -0.835600
      2 C4          4.1300    0.5480    1.4470 c3        1 SY1     -0.108400
      3 C5          3.8970    1.8630    0.7060 c3        1 SY1      0.152800
      4 C7          1.8710    0.9920   -0.3100 c3        1 SY1      0.178800
      5 C8          3.8550    1.4100   -1.6880 cc        1 SY1      0.640800
      6 C10         4.7120   -0.2220   -3.1490 ca        1 SY1      0.182400
      7 C13         6.2420   -0.9280   -5.4020 ca        1 SY1     -0.138000
      8 C15         5.3770    0.7650   -3.9170 ca        1 SY1     -0.185600
      9 C20         3.0650    4.5240   -2.7950 ca        1 SY1     -0.076300
     10 C21         3.2160    4.8440   -4.1490 ca        1 SY1     -0.117000
     11 C22         2.2030    5.5050   -4.8420 ca        1 SY1     -0.100000
     12 C24         0.8590    5.5540   -2.8380 ca        1 SY1     -0.096000
     13 N27         1.4610    4.3270    0.3520 n1        1 SY1     -0.408800
     14 C25         1.8740    4.8810   -2.1400 ca        1 SY1     -0.020000
     15 C23         1.0250    5.8610   -4.1860 ca        1 SY1     -0.120000
     16 N18         4.4410    2.4790   -2.4000 n         1 SY1     -0.380300
     17 N6          3.0780    1.7620   -0.4980 nh        1 SY1     -0.662600
     18 C3          2.8170   -0.1550    1.7320 c3        1 SY1     -0.100400
     19 C2          2.0760   -0.3740    0.4110 c3        1 SY1      0.067500
     20 C16         5.2530    2.1800   -3.5320 c         1 SY1      0.713100
     21 O17         5.8160    3.1090   -4.1330 o         1 SY1     -0.599500
     22 N9          3.9710    0.1260   -2.0180 nd        1 SY1     -0.696100
     23 C14         6.1400    0.4080   -5.0380 ca        1 SY1     -0.049000
     24 C12         5.5860   -1.9120   -4.6520 ca        1 SY1     -0.081000
     25 C11         4.8280   -1.5780   -3.5390 ca        1 SY1     -0.132000
     26 HN11        0.1460   -0.4540    1.2100 hn        1 SY1      0.457133
     27 HN12        0.8940   -1.9410    1.1120 hn        1 SY1      0.457133
     28 H41         4.6480    0.7690    2.4170 hc        1 SY1      0.082700
     29 H42         4.8010   -0.1220    0.8480 hc        1 SY1      0.082700
     30 H51         4.8940    2.3150    0.4380 h1        1 SY1      0.091200
     31 H52         3.3600    2.5850    1.3880 h1        1 SY1      0.091200
     32 H71         1.1940    1.6320    0.3300 h1        1 SY1      0.083700
     33 H72         1.3790    0.8200   -1.3080 h1        1 SY1      0.083700
     34 H13         6.8410   -1.2160   -6.2800 ha        1 SY1      0.156000
     35 H21         4.1570    4.5800   -4.6660 ha        1 SY1      0.170000
     36 H22         2.3390    5.7530   -5.9070 ha        1 SY1      0.152000
     37 H24        -0.0650    5.8440   -2.3150 ha        1 SY1      0.149000
     38 H23         0.2280    6.3920   -4.7300 ha        1 SY1      0.151000
     39 H191        4.0780    3.9910   -0.9570 h1        1 SY1      0.089700
     40 H192        5.1580    4.4390   -2.3520 h1        1 SY1      0.089700
     41 H31         3.0210   -1.1350    2.2360 hc        1 SY1      0.067200
     42 H32         2.2000    0.4760    2.4260 hc        1 SY1      0.067200
     43 H2          2.6790   -1.0720   -0.2480 hx        1 SY1      0.142700
     44 H14         6.6500    1.1980   -5.6140 ha        1 SY1      0.170000
     45 H12         5.6750   -2.9700   -4.9500 ha        1 SY1      0.149000
     46 H11         4.3230   -2.3640   -2.9590 ha        1 SY1      0.140000
     47 C19         4.2130    3.8770   -2.0690 c3        1 SY1      0.128300
     48 C26         1.6620    4.5790   -0.7670 cg        1 SY1      0.263800
     49 H131        0.2950   -1.2130   -0.2690 hn        1 SY1      0.457133
@<TRIPOS>BOND
     1    1   19 1   
     2    1   26 1   
     3    1   27 1   
     4    1   49 1   
     5    2    3 1   
     6    2   18 1   
     7    2   28 1   
     8    2   29 1   
     9    3   17 1   
    10    3   30 1   
    11    3   31 1   
    12    4   17 1   
    13    4   19 1   
    14    4   32 1   
    15    4   33 1   
    16    5   16 1   
    17    5   17 1   
    18    5   22 2   
    19    6    8 ar  
    20    6   22 1   
    21    6   25 ar  
    22    7   23 ar  
    23    7   24 ar  
    24    7   34 1   
    25    8   20 1   
    26    8   23 ar  
    27    9   10 ar  
    28    9   14 ar  
    29    9   47 1   
    30   10   11 ar  
    31   10   35 1   
    32   11   15 ar  
    33   11   36 1   
    34   12   14 ar  
    35   12   15 ar  
    36   12   37 1   
    37   13   48 3   
    38   14   48 1   
    39   15   38 1   
    40   16   20 1   
    41   16   47 1   
    42   18   19 1   
    43   18   41 1   
    44   18   42 1   
    45   19   43 1   
    46   20   21 2   
    47   23   44 1   
    48   24   25 ar  
    49   24   45 1   
    50   25   46 1   
    51   39   47 1   
    52   40   47 1   
@<TRIPOS>SUBSTRUCTURE
     1 SY1         1 TEMP              0 ****  ****    0 ROOT
