@<TRIPOS>MOLECULE
SY1
   48    51     1     0     0
SMALL
bcc


@<TRIPOS>ATOM
      1 N1         -4.3070    1.1490    1.6430 n3        1 SY1     -0.898800
      2 C4         -1.0290    0.3290    3.3660 c3        1 SY1     -0.107400
      3 C5         -0.2190    1.5170    2.8560 c3        1 SY1      0.165800
      4 C7         -2.0070    2.1030    1.3050 c3        1 SY1      0.142800
      5 C8          0.1540    1.3040    0.4680 cc        1 SY1      0.651800
      6 C10         0.3960   -0.4730   -1.0530 ca        1 SY1      0.195400
      7 C13         1.8010   -1.7620   -3.1240 ca        1 SY1     -0.156000
      8 C15         1.5890    0.0780   -1.5800 ca        1 SY1     -0.196600
      9 C20         1.1750    4.4220   -0.0540 ca        1 SY1     -0.057300
     10 C21         1.2870    4.6220   -1.4350 ca        1 SY1     -0.122000
     11 C22         0.7500    5.7580   -2.0360 ca        1 SY1     -0.108000
     12 C24        -0.0080    6.5420    0.1160 ca        1 SY1     -0.099000
     13 N27         0.2880    5.1730    3.2910 n1        1 SY1     -0.377800
     14 C25         0.5280    5.3950    0.7260 ca        1 SY1     -0.006000
     15 C23         0.1000    6.7180   -1.2600 ca        1 SY1     -0.132000
     16 N18         1.3480    1.9360    0.0230 n         1 SY1     -0.384300
     17 N6         -0.5740    1.9970    1.5240 nh        1 SY1     -0.679600
     18 C3         -2.5130    0.6050    3.2570 c3        1 SY1     -0.074400
     19 C2         -2.8850    0.9180    1.8020 c3        1 SY1      0.135500
     20 C16         2.0870    1.3510   -1.0340 c         1 SY1      0.708100
     21 O17         3.1130    1.9210   -1.4540 o         1 SY1     -0.632500
     22 N9         -0.3000    0.1550   -0.0220 nd        1 SY1     -0.652100
     23 C14         2.2850   -0.5680   -2.6120 ca        1 SY1     -0.057000
     24 C12         0.6200   -2.3180   -2.6120 ca        1 SY1     -0.092000
     25 C11        -0.0820   -1.6950   -1.5940 ca        1 SY1     -0.126000
     26 HN11       -4.5160    1.3740    0.6900 hn        1 SY1      0.347300
     27 HN12       -4.6170    1.8980    2.2310 hn        1 SY1      0.347300
     28 H41        -0.7550    0.1430    4.4360 hc        1 SY1      0.056700
     29 H42        -0.7700   -0.5930    2.7820 hc        1 SY1      0.056700
     30 H51        -0.3860    2.3950    3.5450 h1        1 SY1      0.064200
     31 H52         0.8760    1.2590    2.8780 h1        1 SY1      0.064200
     32 H71        -2.1980    2.2690    0.2090 h1        1 SY1      0.057700
     33 H72        -2.3140    3.0370    1.8620 h1        1 SY1      0.057700
     34 H13         2.3420   -2.2770   -3.9320 ha        1 SY1      0.140000
     35 H21         1.8220    3.8740   -2.0450 ha        1 SY1      0.160000
     36 H22         0.8450    5.8990   -3.1230 ha        1 SY1      0.140000
     37 H24        -0.5130    7.3010    0.7330 ha        1 SY1      0.144000
     38 H23        -0.3240    7.6160   -1.7330 ha        1 SY1      0.140000
     39 H191        2.9200    3.2690    0.3810 h1        1 SY1      0.087200
     40 H192        1.6450    3.2030    1.6820 h1        1 SY1      0.087200
     41 H31        -3.0900   -0.2890    3.6100 hc        1 SY1      0.050200
     42 H32        -2.7850    1.4690    3.9180 hc        1 SY1      0.050200
     43 H2         -2.6420    0.0080    1.1750 h1        1 SY1      0.086700
     44 H14         3.2110   -0.1120   -2.9990 ha        1 SY1      0.158000
     45 H12         0.2460   -3.2670   -3.0270 ha        1 SY1      0.138000
     46 H11        -1.0080   -2.1400   -1.1990 ha        1 SY1      0.153000
     47 C19         1.8030    3.2030    0.5660 c3        1 SY1      0.131300
     48 C26         0.4030    5.2610    2.1360 cg        1 SY1      0.245800
@<TRIPOS>BOND
     1    1   19 1   
     2    1   26 1   
     3    1   27 1   
     4    2    3 1   
     5    2   18 1   
     6    2   28 1   
     7    2   29 1   
     8    3   17 1   
     9    3   30 1   
    10    3   31 1   
    11    4   17 1   
    12    4   19 1   
    13    4   32 1   
    14    4   33 1   
    15    5   16 1   
    16    5   17 1   
    17    5   22 2   
    18    6    8 ar  
    19    6   22 1   
    20    6   25 ar  
    21    7   23 ar  
    22    7   24 ar  
    23    7   34 1   
    24    8   20 1   
    25    8   23 ar  
    26    9   10 ar  
    27    9   14 ar  
    28    9   47 1   
    29   10   11 ar  
    30   10   35 1   
    31   11   15 ar  
    32   11   36 1   
    33   12   14 ar  
    34   12   15 ar  
    35   12   37 1   
    36   13   48 3   
    37   14   48 1   
    38   15   38 1   
    39   16   20 1   
    40   16   47 1   
    41   18   19 1   
    42   18   41 1   
    43   18   42 1   
    44   19   43 1   
    45   20   21 2   
    46   23   44 1   
    47   24   25 ar  
    48   24   45 1   
    49   25   46 1   
    50   39   47 1   
    51   40   47 1   
@<TRIPOS>SUBSTRUCTURE
     1 SY1         1 TEMP              0 ****  ****    0 ROOT
