@<TRIPOS>MOLECULE
SY2
   80    76     1     0     0
SMALL
bcc


@<TRIPOS>ATOM
      1 C8        877.2700 -704.5940  -13.1810 c2        1 SY2      0.291000
      2 C6       1238.2060  395.9660-1738.1890 c2        1 SY2     -0.179000
      3 C5        113.1460  -32.7230   48.6750 c3        1 SY2     -0.266000
      4 C4       1237.9110  395.5440-1739.3540 c1        1 SY2      0.268000
      5 O2       1239.3200  396.6220-1741.5150 o         1 SY2     -0.235000
      6 C1       1238.4600  395.7770-1741.7330 c2        1 SY2      0.301000
      7 C3       1237.6170  395.1050-1740.6590 c3        1 SY2     -0.241000
      8 N7        877.5820 -704.0250  -14.3750 n         1 SY2     -0.379000
      9 N36       878.3440 -705.3900  -12.4340 n4        1 SY2     -0.142000
     10 C11       878.4360 -706.8200  -12.6210 c1        1 SY2      0.171000
     11 C15      -692.7570  209.8020  427.3870 c2        1 SY2      0.223000
     12 N17      -691.8240  210.9430  427.7460 n4        1 SY2     -0.123000
     13 C18      -690.3850  210.5500  427.9310 c3        1 SY2     -0.100000
     14 C34      -690.1490  209.5630  429.0770 c3        1 SY2     -0.184000
     15 C33      -690.5720  208.1350  428.7990 c3        1 SY2     -0.175000
     16 C32      -690.0100  207.2080  429.8600 c3        1 SY2     -0.175000
     17 C31      -690.3530  205.7400  429.6010 c3        1 SY2     -0.023000
     18 N30      -691.7070  205.3850  429.9240 n         1 SY2     -0.370000
     19 C28      -692.1210  204.1320  430.3020 c2        1 SY2      0.283000
     20 O29      -693.3320  203.9480  430.5630 o         1 SY2     -0.401000
     21 C27      -691.1280  202.9850  430.4000 c3        1 SY2     -0.237000
     22 C26      -691.6280  201.6720  430.7080 c1        1 SY2     -0.036000
     23 C22      -693.0320  201.3270  430.8790 c3        1 SY2     -0.291000
     24 C23      -693.2300  199.9250  431.2770 c2        1 SY2      0.341000
     25 C25      -694.4930  199.2700  430.9800 c3        1 SY2     -0.315000
     26 C24      -692.1700  199.2120  431.9600 c3        1 SY2     -0.315000
     27 N21      -688.4320  210.0580  426.4710 n         1 SY2     -0.376000
     28 C19      -689.7780  210.0080  426.6100 c2        1 SY2      0.297000
     29 O20      -690.5330  209.5420  425.7290 o         1 SY2     -0.381000
     30 O16      -693.6380  209.5520  428.1840 o         1 SY2     -0.154000
     31 C12       877.4200 -707.5880  -13.3430 c3        1 SY2     -0.240000
     32 C14       876.7690 -708.5300  -12.3240 c3        1 SY2     -0.197000
     33 C13       878.1250 -708.4080  -14.4220 c3        1 SY2     -0.197000
     34 O9        876.1650 -704.5670  -12.6230 o         1 SY2     -0.256000
     35 H6       1237.5710  394.7630-1743.1180 ho        1 SY2      0.247000
     36 H6A      1237.7200  396.8440-1737.6890 ha        1 SY2      0.297000
     37 H6B      1238.9900  395.5120-1737.5270 ha        1 SY2      0.297000
     38 H5        114.1200  -33.0930   48.2870 hc        1 SY2      0.066000
     39 H5A       112.7780  -31.8980   48.0270 hc        1 SY2      0.066000
     40 H5B       112.4070  -33.5530   48.6750 hc        1 SY2      0.066000
     41 H3       1237.7510  393.9720-1740.7140 hc        1 SY2      0.233000
     42 HN7      1236.5090  395.2760-1740.8730 hc        1 SY2      0.233000
     43 HN36      878.4950 -704.0170  -14.7600 hn        1 SY2      0.278000
     44 H11       878.1470 -705.2640  -11.4180 hn        1 SY2      0.293500
     45 HN17     -692.1450  211.3970  428.6130 hn        1 SY2      0.263000
     46 H18      -691.8680  211.6250  426.9760 hn        1 SY2      0.263000
     47 H34      -689.8550  211.5200  428.2030 hx        1 SY2      0.159000
     48 H34A     -690.6580  209.9340  430.0080 hc        1 SY2      0.129500
     49 H33      -689.0420  209.5850  429.2840 hc        1 SY2      0.129500
     50 H33A     -691.6920  208.0600  428.7910 hc        1 SY2      0.094500
     51 H32      -690.2060  207.8140  427.7860 hc        1 SY2      0.094500
     52 H32A     -690.3720  207.5260  430.8730 hc        1 SY2      0.111000
     53 H31      -688.8890  207.2880  429.8660 hc        1 SY2      0.111000
     54 H31A     -689.6460  205.1100  430.2160 h1        1 SY2      0.093000
     55 HN30     -690.1590  205.5060  428.5130 h1        1 SY2      0.093000
     56 H22      -693.6310  201.5810  429.9450 hc        1 SY2      0.224500
     57 H23      -693.5260  202.0030  431.6660 hc        1 SY2      0.224500
     58 H25      -695.3080  199.9840  430.6920 hc        1 SY2      0.182333
     59 H25A     -694.3370  198.5590  430.1110 hc        1 SY2      0.182333
     60 H25B     -694.8430  198.6290  431.8380 hc        1 SY2      0.182333
     61 H24      -692.3600  198.1130  432.0540 hc        1 SY2      0.182333
     62 H24A     -691.1830  199.4040  431.4300 hc        1 SY2      0.182333
     63 H24B     -692.0160  199.6360  432.9970 hc        1 SY2      0.182333
     64 HN21     -688.0220  209.7320  425.6220 hn        1 SY2      0.263000
     65 H12       877.5390 -709.1510  -11.8050 hc        1 SY2      0.113500
     66 H14       876.6040 -706.9720  -13.8250 hc        1 SY2      0.126000
     67 H14A      876.0720 -709.2100  -12.8750 hc        1 SY2      0.113500
     68 H14B      876.1830 -707.9510  -11.5710 hc        1 SY2      0.113500
     69 H13       877.3750 -709.0860  -14.9000 hc        1 SY2      0.113500
     70 H13A      878.5540 -707.7400  -15.2060 hc        1 SY2      0.113500
     71 H13B      878.9400 -709.0310  -13.9800 hc        1 SY2      0.113500
     72 H27      -690.3520  203.2210  431.1950 hc        1 SY2      0.191000
     73 H26      -690.5470  202.8870  429.4300 hc        1 SY2      0.191000
     74 H4        113.2800  -32.3470   49.7130 hc        1 SY2      0.066000
     75 H72       876.8640 -703.4980  -14.8300 hn        1 SY2      0.278000
     76 H362      879.2910 -705.0180  -12.6060 hn        1 SY2      0.293500
     77 H172     -692.5070  209.3370  426.3980 hx        1 SY2      0.277000
     78 H302     -692.3970  206.1030  429.8960 hn        1 SY2      0.243000
     79 H212     -687.8440  210.4580  427.1590 hn        1 SY2      0.263000
     80 O35      1238.2650  395.4350-1743.0240 oh        1 SY2     -0.220000
@<TRIPOS>BOND
     1    1    8 1   
     2    1    9 1   
     3    1   34 1   
     4    2    4 1   
     5    2   36 1   
     6    2   37 1   
     7    3   38 1   
     8    3   39 1   
     9    3   40 1   
    10    3   74 1   
    11    4    7 1   
    12    5    6 1   
    13    6    7 1   
    14    6   80 1   
    15    7   41 1   
    16    7   42 1   
    17    8   43 1   
    18    8   75 1   
    19    9   10 1   
    20    9   44 1   
    21    9   76 1   
    22   10   31 1   
    23   11   12 1   
    24   11   30 1   
    25   11   77 1   
    26   12   13 1   
    27   12   45 1   
    28   12   46 1   
    29   13   14 1   
    30   13   28 1   
    31   13   47 1   
    32   14   15 1   
    33   14   48 1   
    34   14   49 1   
    35   15   16 1   
    36   15   50 1   
    37   15   51 1   
    38   16   17 1   
    39   16   52 1   
    40   16   53 1   
    41   17   18 1   
    42   17   54 1   
    43   17   55 1   
    44   18   19 1   
    45   18   78 1   
    46   19   20 1   
    47   19   21 1   
    48   21   22 1   
    49   21   72 1   
    50   21   73 1   
    51   22   23 1   
    52   23   24 1   
    53   23   56 1   
    54   23   57 1   
    55   24   25 1   
    56   24   26 1   
    57   25   58 1   
    58   25   59 1   
    59   25   60 1   
    60   26   61 1   
    61   26   62 1   
    62   26   63 1   
    63   27   28 1   
    64   27   64 1   
    65   27   79 1   
    66   28   29 1   
    67   31   32 1   
    68   31   33 1   
    69   31   66 1   
    70   32   65 1   
    71   32   67 1   
    72   32   68 1   
    73   33   69 1   
    74   33   70 1   
    75   33   71 1   
    76   35   80 1   
@<TRIPOS>SUBSTRUCTURE
     1 SY2         1 TEMP              0 ****  ****    0 ROOT
