@<TRIPOS>MOLECULE
SY2
   75    75     1     0     0
SMALL
bcc


@<TRIPOS>ATOM
      1 C8          2.6010   -0.8590   -0.2800 c         1 SY2      0.738100
      2 C6          6.8280   -3.0420    0.7940 c3        1 SY2     -0.088100
      3 C5          5.5340   -3.7050   -1.2130 c3        1 SY2     -0.088100
      4 C4          5.9860   -2.5370   -0.3620 c3        1 SY2     -0.045700
      5 O2          5.3560    0.6570    0.0580 o         1 SY2     -0.834300
      6 C1          5.3750   -0.3780    0.7930 c         1 SY2      0.885600
      7 C3          4.8080   -1.7110    0.1930 c3        1 SY2     -0.085300
      8 N7          3.7860   -1.4720   -0.8360 n         1 SY2     -0.453900
      9 N36         2.4980    0.5400   -0.2330 n         1 SY2     -0.572900
     10 C11         1.4430    1.1580    0.5290 c3        1 SY2      0.052700
     11 C15         0.2390    1.4690   -0.4040 c         1 SY2      0.648100
     12 N17        -0.3840    0.3740   -0.9600 n         1 SY2     -0.570900
     13 C18        -1.4760    0.4700   -1.8900 c3        1 SY2      0.055700
     14 C34        -1.7260   -0.8610   -2.6300 c3        1 SY2     -0.075400
     15 C33        -2.5670   -1.8860   -1.8940 c3        1 SY2     -0.082400
     16 C32        -2.0650   -2.2260   -0.5120 c3        1 SY2     -0.112400
     17 C31        -2.8100   -3.3820    0.1540 c3        1 SY2      0.107000
     18 N30        -4.2440   -3.3500    0.1750 n         1 SY2     -0.573900
     19 C28        -5.0510   -2.3480    0.6770 c         1 SY2      0.663300
     20 O29        -6.2810   -2.5620    0.7530 o         1 SY2     -0.631100
     21 C27        -4.4410   -1.0520    1.0650 ce        1 SY2     -0.215200
     22 C26        -4.8670    0.0950    0.5250 c2        1 SY2     -0.104200
     23 C22        -4.1380    1.4000    0.7430 c3        1 SY2      0.142900
     24 C23        -5.0620    2.5920    0.4030 c3        1 SY2     -0.093700
     25 C25        -6.2860    2.5620    1.2940 c3        1 SY2     -0.091600
     26 C24        -4.3320    3.9070    0.5680 c3        1 SY2     -0.091600
     27 N21        -2.8870    1.3670    0.0130 n         1 SY2     -0.572900
     28 C19        -2.8300    0.9480   -1.3070 c         1 SY2      0.652100
     29 O20        -3.8490    0.8940   -2.0260 o         1 SY2     -0.624100
     30 O16        -0.1750    2.6260   -0.6310 o         1 SY2     -0.648100
     31 C12         1.8730    2.4420    1.2730 c3        1 SY2     -0.064700
     32 C14         0.7670    2.8750    2.2170 c3        1 SY2     -0.105100
     33 C13         3.1500    2.2290    2.0610 c3        1 SY2     -0.105100
     34 O9          1.6250   -1.5660    0.0730 o         1 SY2     -0.660100
     35 H6          7.7780   -3.4850    0.4110 hc        1 SY2      0.030033
     36 H6A         7.0680   -2.2010    1.4930 hc        1 SY2      0.030033
     37 H6B         6.2760   -3.8280    1.3640 hc        1 SY2      0.030033
     38 H5          4.7400   -4.2870   -0.6870 hc        1 SY2      0.030033
     39 H5A         5.1250   -3.3550   -2.1910 hc        1 SY2      0.030033
     40 H5B         6.3960   -4.3860   -1.4200 hc        1 SY2      0.030033
     41 H3          4.3220   -2.2950    1.0250 h1        1 SY2      0.067700
     42 HN7         4.1940   -0.8680   -1.5360 hn        1 SY2      0.259500
     43 HN36        3.3530    1.0670   -0.3180 hn        1 SY2      0.362500
     44 H11         1.0630    0.4230    1.3080 h1        1 SY2      0.074700
     45 HN17       -0.0580   -0.5410   -0.7240 hn        1 SY2      0.351500
     46 H18        -1.2070    1.2610   -2.6590 h1        1 SY2      0.081700
     47 H34        -2.2650   -0.5970   -3.5800 hc        1 SY2      0.059200
     48 H34A       -0.7400   -1.3160   -2.9110 hc        1 SY2      0.059200
     49 H33        -3.6220   -1.5010   -1.8210 hc        1 SY2      0.050200
     50 H33A       -2.5980   -2.8200   -2.5180 hc        1 SY2      0.050200
     51 H32        -0.9800   -2.5190   -0.5550 hc        1 SY2      0.066200
     52 H32A       -2.1420   -1.3200    0.1460 hc        1 SY2      0.066200
     53 H31        -2.5130   -4.3360   -0.3730 h1        1 SY2      0.038700
     54 H31A       -2.4310   -3.4490    1.2180 h1        1 SY2      0.038700
     55 HN30       -4.7100   -4.1750   -0.1280 hn        1 SY2      0.311500
     56 H22        -3.8620    1.4900    1.8390 h1        1 SY2      0.055700
     57 H23        -5.3840    2.4840   -0.6720 hc        1 SY2      0.077700
     58 H25        -5.9960    2.6840    2.3650 hc        1 SY2      0.035033
     59 H25A       -6.9790    3.3940    1.0190 hc        1 SY2      0.035033
     60 H25B       -6.8350    1.5950    1.1840 hc        1 SY2      0.035033
     61 H24        -3.5200    4.0130   -0.1910 hc        1 SY2      0.035033
     62 H24A       -5.0440    4.7580    0.4370 hc        1 SY2      0.035033
     63 H24B       -3.8790    3.9820    1.5860 hc        1 SY2      0.035033
     64 HN21       -2.1360    1.9100    0.3760 hn        1 SY2      0.334500
     65 H12         2.0340    3.2530    0.5090 hc        1 SY2      0.068700
     66 H14         0.5920    2.0980    3.0010 hc        1 SY2      0.044033
     67 H14A        1.0580    3.8260    2.7240 hc        1 SY2      0.044033
     68 H14B       -0.1860    3.0480    1.6610 hc        1 SY2      0.044033
     69 H13         4.0370    2.0320    1.4030 hc        1 SY2      0.044033
     70 H13A        3.3680    3.1400    2.6680 hc        1 SY2      0.044033
     71 H13B        3.0430    1.3600    2.7540 hc        1 SY2      0.044033
     72 H27        -3.6070   -1.1040    1.7810 ha        1 SY2      0.145000
     73 H26        -5.7100    0.1280   -0.1850 ha        1 SY2      0.154000
     74 O35         5.7920   -0.3930    1.9790 o         1 SY2     -0.834300
     75 H4          6.6170   -1.8500   -0.9930 hc        1 SY2      0.048700
@<TRIPOS>BOND
     1    1    8 1   
     2    1    9 1   
     3    1   34 2   
     4    2    4 1   
     5    2   35 1   
     6    2   36 1   
     7    2   37 1   
     8    3    4 1   
     9    3   38 1   
    10    3   39 1   
    11    3   40 1   
    12    4    7 1   
    13    4   75 1   
    14    5    6 1   
    15    6    7 1   
    16    6   74 1   
    17    7    8 1   
    18    7   41 1   
    19    8   42 1   
    20    9   10 1   
    21    9   43 1   
    22   10   11 1   
    23   10   31 1   
    24   10   44 1   
    25   11   12 1   
    26   11   30 2   
    27   12   13 1   
    28   12   45 1   
    29   13   14 1   
    30   13   28 1   
    31   13   46 1   
    32   14   15 1   
    33   14   47 1   
    34   14   48 1   
    35   15   16 1   
    36   15   49 1   
    37   15   50 1   
    38   16   17 1   
    39   16   51 1   
    40   16   52 1   
    41   17   18 1   
    42   17   53 1   
    43   17   54 1   
    44   18   19 1   
    45   18   55 1   
    46   19   20 2   
    47   19   21 1   
    48   21   22 2   
    49   21   72 1   
    50   22   23 1   
    51   22   73 1   
    52   23   24 1   
    53   23   27 1   
    54   23   56 1   
    55   24   25 1   
    56   24   26 1   
    57   24   57 1   
    58   25   58 1   
    59   25   59 1   
    60   25   60 1   
    61   26   61 1   
    62   26   62 1   
    63   26   63 1   
    64   27   28 1   
    65   27   64 1   
    66   28   29 2   
    67   31   32 1   
    68   31   33 1   
    69   31   65 1   
    70   32   66 1   
    71   32   67 1   
    72   32   68 1   
    73   33   69 1   
    74   33   70 1   
    75   33   71 1   
@<TRIPOS>SUBSTRUCTURE
     1 SY2         1 TEMP              0 ****  ****    0 ROOT
