@<TRIPOS>MOLECULE
SY9
   47    53     1     0     0
SMALL
bcc


@<TRIPOS>ATOM
      1 CAV        -0.1590   -2.0840   -0.6320 c3        1 SY9      0.182500
      2 CAU        -0.8140   -1.4130   -1.8330 c3        1 SY9     -0.078400
      3 CAT        -1.7770   -0.3460   -1.3130 c3        1 SY9     -0.017500
      4 CAN        -0.9000    0.7860   -0.8040 c3        1 SY9     -0.108700
      5 CAK        -0.0380    0.3500    0.3940 c3        1 SY9      0.092700
      6 NAH         1.1030    1.2890    0.5220 n         1 SY9     -0.336000
      7 CAA         2.2820    0.5920    0.1470 ca        1 SY9      0.036600
      8 CAF         3.5700    1.0960   -0.0340 ca        1 SY9     -0.132000
      9 CAE         4.5870    0.2010   -0.3850 ca        1 SY9     -0.109000
     10 CAD         4.3310   -1.1570   -0.5520 ca        1 SY9     -0.153000
     11 CAC         3.0400   -1.6700   -0.3630 ca        1 SY9     -0.096000
     12 CAB         2.0180   -0.8050   -0.0190 ca        1 SY9     -0.120300
     13 CAG         0.5820   -1.0910    0.3100 c3        1 SY9     -0.017700
     14 CAW         0.4800   -1.7780    1.6880 c3        1 SY9     -0.092400
     15 CAX        -0.6730   -2.7850    1.5720 c3        1 SY9      0.145800
     16 NAY        -1.1320   -2.8490    0.1810 n3        1 SY9     -0.693600
     17 CAS        -2.5060   -2.4050   -0.0210 c3        1 SY9      0.190000
     18 CAR        -2.6860   -0.9320   -0.2790 c2        1 SY9     -0.124400
     19 CAQ        -3.6040   -0.2090    0.3740 c2        1 SY9     -0.196200
     20 CAP        -3.7650    1.2600    0.1960 c3        1 SY9      0.163600
     21 OAO        -2.5910    1.9690    0.5810 os        1 SY9     -0.415600
     22 CAM        -1.5960    2.0960   -0.4360 c3        1 SY9      0.152100
     23 CAL        -0.5870    3.0980    0.1430 c3        1 SY9     -0.160400
     24 CAI         0.8570    2.6310    0.1900 c         1 SY9      0.692500
     25 OAJ         1.7850    3.4420    0.0270 o         1 SY9     -0.615500
     26 HAV         0.6010   -2.8370   -0.9960 h1        1 SY9      0.073700
     27 HAU1       -0.0250   -0.9550   -2.4830 hc        1 SY9      0.060200
     28 HAU2       -1.3620   -2.1680   -2.4520 hc        1 SY9      0.060200
     29 HAT        -2.4090    0.0430   -2.1610 hc        1 SY9      0.063700
     30 HAN        -0.2200    1.0520   -1.6720 hc        1 SY9      0.066700
     31 HAK        -0.6670    0.4400    1.3260 h1        1 SY9      0.093700
     32 HAM        -2.0790    2.5220   -1.3610 h1        1 SY9      0.045700
     33 HAF         3.7760    2.1710    0.0870 ha        1 SY9      0.169000
     34 HAE         5.6070    0.5870   -0.5320 ha        1 SY9      0.135000
     35 HAD         5.1460   -1.8390   -0.8310 ha        1 SY9      0.133000
     36 HAC         2.8480   -2.7460   -0.4840 ha        1 SY9      0.136000
     37 HAW1        1.4370   -2.3120    1.9170 hc        1 SY9      0.061700
     38 HAW2        0.2960   -1.0430    2.5070 hc        1 SY9      0.061700
     39 HAX1       -0.3160   -3.8170    1.8410 h1        1 SY9      0.051200
     40 HAX2       -1.5000   -2.5140    2.2810 h1        1 SY9      0.051200
     41 HAS1       -2.8890   -2.9650   -0.9250 h1        1 SY9      0.059700
     42 HAS2       -3.1320   -2.7230    0.8600 h1        1 SY9      0.059700
     43 HAQ        -4.2800   -0.6750    1.1070 ha        1 SY9      0.132000
     44 HAP1       -4.0490    1.5050   -0.8640 h1        1 SY9      0.055200
     45 HAP2       -4.5500    1.6620    0.8950 h1        1 SY9      0.055200
     46 HAL1       -0.6140    4.0410   -0.4630 hc        1 SY9      0.094700
     47 HAL2       -0.8900    3.3580    1.1950 hc        1 SY9      0.094700
@<TRIPOS>BOND
     1    1    2 1   
     2    1   13 1   
     3    1   16 1   
     4    1   26 1   
     5    2    3 1   
     6    2   27 1   
     7    2   28 1   
     8    3    4 1   
     9    3   18 1   
    10    3   29 1   
    11    4    5 1   
    12    4   22 1   
    13    4   30 1   
    14    5    6 1   
    15    5   13 1   
    16    5   31 1   
    17    6    7 1   
    18    6   24 1   
    19    7    8 ar  
    20    7   12 ar  
    21    8    9 ar  
    22    8   33 1   
    23    9   10 ar  
    24    9   34 1   
    25   10   11 ar  
    26   10   35 1   
    27   11   12 ar  
    28   11   36 1   
    29   12   13 1   
    30   13   14 1   
    31   14   15 1   
    32   14   37 1   
    33   14   38 1   
    34   15   16 1   
    35   15   39 1   
    36   15   40 1   
    37   16   17 1   
    38   17   18 1   
    39   17   41 1   
    40   17   42 1   
    41   18   19 2   
    42   19   20 1   
    43   19   43 1   
    44   20   21 1   
    45   20   44 1   
    46   20   45 1   
    47   21   22 1   
    48   22   23 1   
    49   22   32 1   
    50   23   24 1   
    51   23   46 1   
    52   23   47 1   
    53   24   25 2   
@<TRIPOS>SUBSTRUCTURE
     1 SY9         1 TEMP              0 ****  ****    0 ROOT
