@<TRIPOS>MOLECULE
SYC
   17    16     1     0     0
SMALL
bcc


@<TRIPOS>ATOM
      1 C1          3.0570   -1.2080   -0.1350 c2        1 SYC     -0.012000
      2 N2          1.7850   -1.2610   -0.5020 n2        1 SYC     -0.277000
      3 C3          1.0600   -0.0570   -0.5330 c2        1 SYC      0.116000
      4 C4          1.7420    1.1750   -0.1490 c2        1 SYC     -0.308000
      5 C5          3.0620    1.1590    0.2190 c2        1 SYC     -0.056000
      6 C6          3.7770   -0.0520    0.2300 c2        1 SYC     -0.445000
      7 C11        -0.2550   -0.0120   -0.9280 c2        1 SYC     -0.555000
      8 P12        -2.6440   -0.0020    0.0590 p3        1 SYC      2.449000
      9 O15        -2.4820   -0.4440    1.4600 o         1 SYC     -1.155667
     10 O16        -2.8270    1.4420   -0.2180 o         1 SYC     -1.155667
     11 O17        -3.1160   -0.9770   -0.9510 o         1 SYC     -1.155667
     12 H1          3.5800   -2.1840   -0.1280 h4        1 SYC      0.074000
     13 H4          1.1550    2.1000   -0.1520 ha        1 SYC      0.105000
     14 H5          3.5730    2.0890    0.5090 ha        1 SYC      0.059000
     15 H6          4.8270   -0.1000    0.5170 ha        1 SYC      0.075000
     16 H11        -0.7350    0.9640   -1.0640 ha        1 SYC      0.120500
     17 H11A       -0.7790   -0.8990   -1.2970 ha        1 SYC      0.120500
@<TRIPOS>BOND
     1    1    2 1   
     2    1    6 1   
     3    1   12 1   
     4    2    3 1   
     5    3    4 1   
     6    3    7 1   
     7    4    5 1   
     8    4   13 1   
     9    5    6 1   
    10    5   14 1   
    11    6   15 1   
    12    7   16 1   
    13    7   17 1   
    14    8    9 1   
    15    8   10 1   
    16    8   11 1   
@<TRIPOS>SUBSTRUCTURE
     1 SYC         1 TEMP              0 ****  ****    0 ROOT
