@<TRIPOS>MOLECULE
SYC
   17    16     1     0     0
SMALL
bcc


@<TRIPOS>ATOM
      1 C1         -0.1920   -0.4540   -0.0030 c2        1 SYC     -0.012000
      2 N2          1.1200   -0.2860   -0.0770 n2        1 SYC     -0.277000
      3 C3          1.8120    0.0150    1.1080 c2        1 SYC      0.116000
      4 C4          1.0490    0.1370    2.3470 c2        1 SYC     -0.308000
      5 C5         -0.3080   -0.0510    2.3530 c2        1 SYC     -0.056000
      6 C6         -0.9840   -0.3670    1.1610 c2        1 SYC     -0.445000
      7 C11         3.1760    0.1770    1.1310 c2        1 SYC     -0.555000
      8 P12         4.9740    2.0340    1.0550 p3        1 SYC      2.449000
      9 O15         4.2610    3.2380    0.5810 o         1 SYC     -1.155667
     10 O16         5.2700    1.9010    2.5000 o         1 SYC     -1.155667
     11 O17         5.7960    1.2620    0.0960 o         1 SYC     -1.155667
     12 H1         -0.6870   -0.6890   -0.9650 h4        1 SYC      0.074000
     13 H4          1.6000    0.3990    3.2560 ha        1 SYC      0.105000
     14 H5         -0.8810    0.0430    3.2880 ha        1 SYC      0.059000
     15 H6         -2.0620   -0.5240    1.1320 ha        1 SYC      0.075000
     16 H11         3.7920    0.0170    0.2410 ha        1 SYC      0.120500
     17 H11A        3.6830    0.2770    2.0970 ha        1 SYC      0.120500
@<TRIPOS>BOND
     1    1    2 1   
     2    1    6 1   
     3    1   12 1   
     4    2    3 1   
     5    3    4 1   
     6    3    7 1   
     7    4    5 1   
     8    4   13 1   
     9    5    6 1   
    10    5   14 1   
    11    6   15 1   
    12    7   16 1   
    13    7   17 1   
    14    8    9 1   
    15    8   10 1   
    16    8   11 1   
@<TRIPOS>SUBSTRUCTURE
     1 SYC         1 TEMP              0 ****  ****    0 ROOT
