@<TRIPOS>MOLECULE
SYD
   27    27     1     0     0
SMALL
bcc


@<TRIPOS>ATOM
      1 C1         -0.2470   -0.3420   -0.0370 ca        1 SYD     -0.103500
      2 C2          1.1280   -0.1820   -0.0250 ca        1 SYD     -0.222000
      3 C3          1.8620   -0.0900    1.1910 ca        1 SYD      0.124000
      4 C4          1.0940   -0.1700    2.3870 ca        1 SYD     -0.222000
      5 C5         -0.2810   -0.3260    2.3620 ca        1 SYD     -0.103500
      6 C6         -0.9740   -0.4160    1.1530 ca        1 SYD     -0.267000
      7 C12         3.2670    0.0650    1.2140 c2        1 SYD     -0.355000
      8 C13         4.0870   -0.0760    0.0390 c2        1 SYD      0.020000
      9 N14         5.3900    0.0190   -0.0350 n2        1 SYD     -0.242000
     10 C15         6.1150    0.2990    1.1470 c2        1 SYD      0.055000
     11 C16         5.3550    0.4950    2.3840 c2        1 SYD     -0.270000
     12 C17         4.0020    0.3760    2.4020 c2        1 SYD     -0.043000
     13 C21         7.4740    0.3730    1.1590 c2        1 SYD     -0.401000
     14 P22         9.8570    1.6650    1.1010 p3        1 SYD      2.407000
     15 O25         9.4680    3.0080    0.6320 o         1 SYD     -1.137000
     16 O26        10.0320    1.4250    2.5500 o         1 SYD     -1.137000
     17 O27        10.3860    0.6790    0.1370 o         1 SYD     -1.137000
     18 H1         -0.7780   -0.4080   -0.9980 ha        1 SYD      0.084500
     19 H2          1.6610   -0.1100   -0.9820 ha        1 SYD      0.112500
     20 H4          1.6060   -0.1170    3.3570 ha        1 SYD      0.112500
     21 H5         -0.8380   -0.3830    3.3090 ha        1 SYD      0.084500
     22 H6         -2.0620   -0.5410    1.1390 ha        1 SYD      0.088000
     23 H13         3.5940   -0.3110   -0.9250 h4        1 SYD      0.099000
     24 H16         5.9250    0.7520    3.2850 ha        1 SYD      0.112000
     25 H17         3.4540    0.5400    3.3420 ha        1 SYD      0.082000
     26 H21         8.0790    0.1940    0.2610 ha        1 SYD      0.130500
     27 H21A        7.9950    0.5260    2.1140 ha        1 SYD      0.130500
@<TRIPOS>BOND
     1    1    2 1   
     2    1    6 1   
     3    1   18 1   
     4    2    3 1   
     5    2   19 1   
     6    3    4 1   
     7    3    7 1   
     8    4    5 1   
     9    4   20 1   
    10    5    6 1   
    11    5   21 1   
    12    6   22 1   
    13    7    8 1   
    14    7   12 1   
    15    8    9 1   
    16    8   23 1   
    17    9   10 1   
    18   10   11 1   
    19   10   13 1   
    20   11   12 1   
    21   11   24 1   
    22   12   25 1   
    23   13   26 1   
    24   13   27 1   
    25   14   15 1   
    26   14   16 1   
    27   14   17 1   
@<TRIPOS>SUBSTRUCTURE
     1 SYD         1 TEMP              0 ****  ****    0 ROOT
