@<TRIPOS>MOLECULE
SYD
   27    27     1     0     0
SMALL
bcc


@<TRIPOS>ATOM
      1 C1         -0.2620   -0.2620   -0.0230 ca        1 SYD     -0.103500
      2 C2          1.1140   -0.1080   -0.0170 ca        1 SYD     -0.222500
      3 C3          1.8600   -0.0800    1.1940 ca        1 SYD      0.124000
      4 C4          1.1030   -0.2150    2.3920 ca        1 SYD     -0.222500
      5 C5         -0.2730   -0.3650    2.3740 ca        1 SYD     -0.103500
      6 C6         -0.9780   -0.3930    1.1690 ca        1 SYD     -0.267000
      7 C12         3.2650    0.0700    1.2110 c2        1 SYD     -0.355000
      8 C13         4.0740   -0.0160    0.0220 c2        1 SYD      0.020000
      9 N14         5.3770    0.0790   -0.0590 n2        1 SYD     -0.242000
     10 C15         6.1140    0.2960    1.1280 c2        1 SYD      0.055000
     11 C16         5.3670    0.4330    2.3810 c2        1 SYD     -0.270000
     12 C17         4.0140    0.3180    2.4060 c2        1 SYD     -0.043000
     13 C21         7.4730    0.3650    1.1300 c2        1 SYD     -0.401000
     14 P22         9.8610    1.6490    1.1130 p3        1 SYD      2.407000
     15 O25         9.4730    3.0160    0.7180 o         1 SYD     -1.137000
     16 O26        10.0510    1.3340    2.5450 o         1 SYD     -1.137000
     17 O27        10.3760    0.7120    0.0930 o         1 SYD     -1.137000
     18 H1         -0.8020   -0.2780   -0.9810 ha        1 SYD      0.084500
     19 H2          1.6380    0.0090   -0.9750 ha        1 SYD      0.112500
     20 H4          1.6250   -0.2130    3.3580 ha        1 SYD      0.112500
     21 H5         -0.8210   -0.4670    3.3220 ha        1 SYD      0.084500
     22 H6         -2.0660   -0.5130    1.1590 ha        1 SYD      0.088000
     23 H13         3.5710   -0.2000   -0.9470 h4        1 SYD      0.099000
     24 H16         5.9470    0.6420    3.2870 ha        1 SYD      0.112000
     25 H17         3.4760    0.4360    3.3590 ha        1 SYD      0.082000
     26 H21         8.0680    0.2280    0.2180 ha        1 SYD      0.130000
     27 H21A        8.0040    0.4680    2.0860 ha        1 SYD      0.130000
@<TRIPOS>BOND
     1    1    2 1   
     2    1    6 1   
     3    1   18 1   
     4    2    3 1   
     5    2   19 1   
     6    3    4 1   
     7    3    7 1   
     8    4    5 1   
     9    4   20 1   
    10    5    6 1   
    11    5   21 1   
    12    6   22 1   
    13    7    8 1   
    14    7   12 1   
    15    8    9 1   
    16    8   23 1   
    17    9   10 1   
    18   10   11 1   
    19   10   13 1   
    20   11   12 1   
    21   11   24 1   
    22   12   25 1   
    23   13   26 1   
    24   13   27 1   
    25   14   15 1   
    26   14   16 1   
    27   14   17 1   
@<TRIPOS>SUBSTRUCTURE
     1 SYD         1 TEMP              0 ****  ****    0 ROOT
