@<TRIPOS>MOLECULE
SYD
   27    27     1     0     0
SMALL
bcc


@<TRIPOS>ATOM
      1 C1          5.2640   -1.2560    0.2050 ca        1 SYD     -0.103500
      2 C2          3.8870   -1.2310    0.0660 ca        1 SYD     -0.222500
      3 C3          3.1680   -0.0090   -0.0540 ca        1 SYD      0.124000
      4 C4          3.9510    1.1780   -0.0180 ca        1 SYD     -0.222500
      5 C5          5.3270    1.1410    0.1260 ca        1 SYD     -0.103500
      6 C6          6.0060   -0.0740    0.2380 ca        1 SYD     -0.267000
      7 C12         1.7620    0.0270   -0.2050 c2        1 SYD     -0.355000
      8 C13         0.9750   -1.1490   -0.4690 c2        1 SYD      0.020000
      9 N14        -0.3190   -1.2130   -0.6520 n2        1 SYD     -0.242000
     10 C15        -1.0710   -0.0170   -0.5850 c2        1 SYD      0.055000
     11 C16        -0.3530    1.2250   -0.2840 c2        1 SYD     -0.270000
     12 C17         0.9940    1.2320   -0.1110 c2        1 SYD     -0.043000
     13 C21        -2.4140    0.0050   -0.8050 c2        1 SYD     -0.401000
     14 P22        -5.0190    0.0160   -0.0540 p3        1 SYD      2.407000
     15 O25        -4.9330   -0.3920    1.3610 o         1 SYD     -1.137000
     16 O26        -5.1190    1.4520   -0.3900 o         1 SYD     -1.137000
     17 O27        -5.3370   -0.9920   -1.0870 o         1 SYD     -1.137000
     18 H1          5.7830   -2.2220    0.2950 ha        1 SYD      0.084500
     19 H2          3.3380   -2.1820    0.0610 ha        1 SYD      0.112500
     20 H4          3.4530    2.1520   -0.1180 ha        1 SYD      0.112500
     21 H5          5.8970    2.0820    0.1490 ha        1 SYD      0.084500
     22 H6          7.0960   -0.0990    0.3500 ha        1 SYD      0.088000
     23 H13         1.4930   -2.1250   -0.5510 h4        1 SYD      0.099000
     24 H16        -0.9530    2.1390   -0.1950 ha        1 SYD      0.112000
     25 H17         1.5070    2.1760    0.1270 ha        1 SYD      0.082000
     26 H21        -2.9420    0.9680   -0.8080 ha        1 SYD      0.130000
     27 H21A       -2.9780   -0.8970   -1.0710 ha        1 SYD      0.130000
@<TRIPOS>BOND
     1    1    2 1   
     2    1    6 1   
     3    1   18 1   
     4    2    3 1   
     5    2   19 1   
     6    3    4 1   
     7    3    7 1   
     8    4    5 1   
     9    4   20 1   
    10    5    6 1   
    11    5   21 1   
    12    6   22 1   
    13    7    8 1   
    14    7   12 1   
    15    8    9 1   
    16    8   23 1   
    17    9   10 1   
    18   10   11 1   
    19   10   13 1   
    20   11   12 1   
    21   11   24 1   
    22   12   25 1   
    23   13   26 1   
    24   13   27 1   
    25   14   15 1   
    26   14   16 1   
    27   14   17 1   
@<TRIPOS>SUBSTRUCTURE
     1 SYD         1 TEMP              0 ****  ****    0 ROOT
