@<TRIPOS>MOLECULE
SYE
   23    23     1     0     0
SMALL
bcc


@<TRIPOS>ATOM
      1 C1          4.3340   -1.3760   -0.0910 ca        1 SYE     -0.100000
      2 C2          3.0100   -1.5980   -0.3610 ca        1 SYE     -0.211000
      3 C3          2.0340   -0.5270   -0.2950 ca        1 SYE      0.110000
      4 C4          2.5600    0.7740    0.0810 ca        1 SYE     -0.233000
      5 C5          3.9160    0.9520    0.3480 ca        1 SYE     -0.050000
      6 C6          4.8140   -0.1000    0.2650 ca        1 SYE     -0.314000
      7 N11         0.7510   -0.7710   -0.5810 n2        1 SYE     -0.296000
      8 C12        -0.1640    0.2850   -0.5230 c2        1 SYE      0.078000
      9 C13         0.3040    1.6210   -0.1210 c2        1 SYE     -0.199000
     10 C14         1.6070    1.8440    0.1640 c2        1 SYE     -0.105000
     11 C17        -1.4840    0.1320   -0.8420 c2        1 SYE     -0.456000
     12 P18        -4.0050   -0.1790   -0.0200 p3        1 SYE      2.420000
     13 O21        -3.8600   -0.6800    1.3610 o         1 SYE     -1.142333
     14 O22        -4.2800    1.2580   -0.2390 o         1 SYE     -1.142333
     15 O23        -4.2620   -1.1330   -1.1200 o         1 SYE     -1.142333
     16 H1          5.0500   -2.2100   -0.1500 ha        1 SYE      0.072000
     17 H2          2.6570   -2.6030   -0.6330 ha        1 SYE      0.110000
     18 H5          4.2770    1.9540    0.6300 ha        1 SYE      0.075000
     19 H6          5.8780    0.0470    0.4750 ha        1 SYE      0.079000
     20 H13        -0.4520    2.4160   -0.0560 ha        1 SYE      0.114000
     21 H14         1.9680    2.8380    0.4670 ha        1 SYE      0.079000
     22 H17        -2.1300    1.0190   -0.8790 ha        1 SYE      0.127500
     23 H17A       -1.8990   -0.8230   -1.1840 ha        1 SYE      0.127500
@<TRIPOS>BOND
     1    1    2 1   
     2    1    6 1   
     3    1   16 1   
     4    2    3 1   
     5    2   17 1   
     6    3    4 1   
     7    3    7 1   
     8    4    5 1   
     9    4   10 1   
    10    5    6 1   
    11    5   18 1   
    12    6   19 1   
    13    7    8 1   
    14    8    9 1   
    15    8   11 1   
    16    9   10 1   
    17    9   20 1   
    18   10   21 1   
    19   11   22 1   
    20   11   23 1   
    21   12   13 1   
    22   12   14 1   
    23   12   15 1   
@<TRIPOS>SUBSTRUCTURE
     1 SYE         1 TEMP              0 ****  ****    0 ROOT
