@<TRIPOS>MOLECULE
SYE
   23    23     1     0     0
SMALL
bcc


@<TRIPOS>ATOM
      1 C1         -0.2440   -0.4280   -0.0880 ca        1 SYE     -0.100000
      2 C2          1.1160   -0.2740   -0.0850 ca        1 SYE     -0.211000
      3 C3          1.8530   -0.0750    1.1480 ca        1 SYE      0.110000
      4 C4          1.0470   -0.0430    2.3570 ca        1 SYE     -0.233000
      5 C5         -0.3360   -0.2030    2.3050 ca        1 SYE     -0.050000
      6 C6         -0.9970   -0.3990    1.1020 ca        1 SYE     -0.314000
      7 N11         3.1830    0.0560    1.1210 n2        1 SYE     -0.296000
      8 C12         3.8670    0.2310    2.3290 c2        1 SYE      0.078000
      9 C13         3.1030    0.3000    3.5850 c2        1 SYE     -0.199000
     10 C14         1.7570    0.1660    3.5870 c2        1 SYE     -0.105000
     11 C17         5.2280    0.3290    2.3950 c2        1 SYE     -0.456000
     12 P18         7.3940    1.8740    2.6210 p3        1 SYE      2.420000
     13 O21         6.9100    3.2090    2.2200 o         1 SYE     -1.142333
     14 O22         7.5040    1.5510    4.0610 o         1 SYE     -1.142333
     15 O23         8.1140    1.0330    1.6420 o         1 SYE     -1.142333
     16 H1         -0.7740   -0.5780   -1.0420 ha        1 SYE      0.072000
     17 H2          1.6820   -0.2960   -1.0270 ha        1 SYE      0.110000
     18 H5         -0.9120   -0.1730    3.2440 ha        1 SYE      0.075000
     19 H6         -2.0840   -0.5250    1.0690 ha        1 SYE      0.079000
     20 H13         3.6730    0.4720    4.5070 ha        1 SYE      0.114000
     21 H14         1.1750    0.2170    4.5190 ha        1 SYE      0.079000
     22 H17         5.8670    0.2510    1.5080 ha        1 SYE      0.127500
     23 H17A        5.7130    0.3600    3.3790 ha        1 SYE      0.127500
@<TRIPOS>BOND
     1    1    2 1   
     2    1    6 1   
     3    1   16 1   
     4    2    3 1   
     5    2   17 1   
     6    3    4 1   
     7    3    7 1   
     8    4    5 1   
     9    4   10 1   
    10    5    6 1   
    11    5   18 1   
    12    6   19 1   
    13    7    8 1   
    14    8    9 1   
    15    8   11 1   
    16    9   10 1   
    17    9   20 1   
    18   10   21 1   
    19   11   22 1   
    20   11   23 1   
    21   12   13 1   
    22   12   14 1   
    23   12   15 1   
@<TRIPOS>SUBSTRUCTURE
     1 SYE         1 TEMP              0 ****  ****    0 ROOT
