@<TRIPOS>MOLECULE
SYE
   23    23     1     0     0
SMALL
bcc


@<TRIPOS>ATOM
      1 C1         -0.2670   -0.3750   -0.0740 ca        1 SYE     -0.100000
      2 C2          1.0930   -0.2110   -0.0830 ca        1 SYE     -0.211000
      3 C3          1.8440   -0.0510    1.1470 ca        1 SYE      0.110000
      4 C4          1.0540   -0.0670    2.3670 ca        1 SYE     -0.233000
      5 C5         -0.3290   -0.2350    2.3270 ca        1 SYE     -0.050000
      6 C6         -1.0040   -0.3930    1.1270 ca        1 SYE     -0.314000
      7 N11         3.1720    0.0900    1.1080 n2        1 SYE     -0.296000
      8 C12         3.8710    0.2290    2.3120 c2        1 SYE      0.078000
      9 C13         3.1230    0.2470    3.5790 c2        1 SYE     -0.199000
     10 C14         1.7790    0.1040    3.5950 c2        1 SYE     -0.105000
     11 C17         5.2330    0.3330    2.3640 c2        1 SYE     -0.456000
     12 P18         7.3910    1.8850    2.6160 p3        1 SYE      2.420000
     13 O21         6.8930    3.2290    2.2670 o         1 SYE     -1.142333
     14 O22         7.5210    1.5140    4.0430 o         1 SYE     -1.142333
     15 O23         8.1050    1.0830    1.6000 o         1 SYE     -1.142333
     16 H1         -0.8080   -0.4960   -1.0250 ha        1 SYE      0.072000
     17 H2          1.6460   -0.1960   -1.0320 ha        1 SYE      0.110000
     18 H5         -0.8920   -0.2420    3.2730 ha        1 SYE      0.075000
     19 H6         -2.0900   -0.5260    1.1030 ha        1 SYE      0.079000
     20 H13         3.7050    0.3910    4.5000 ha        1 SYE      0.114000
     21 H14         1.2090    0.1170    4.5350 ha        1 SYE      0.079000
     22 H17         5.8600    0.2910    1.4660 ha        1 SYE      0.127500
     23 H17A        5.7300    0.3330    3.3420 ha        1 SYE      0.127500
@<TRIPOS>BOND
     1    1    2 1   
     2    1    6 1   
     3    1   16 1   
     4    2    3 1   
     5    2   17 1   
     6    3    4 1   
     7    3    7 1   
     8    4    5 1   
     9    4   10 1   
    10    5    6 1   
    11    5   18 1   
    12    6   19 1   
    13    7    8 1   
    14    8    9 1   
    15    8   11 1   
    16    9   10 1   
    17    9   20 1   
    18   10   21 1   
    19   11   22 1   
    20   11   23 1   
    21   12   13 1   
    22   12   14 1   
    23   12   15 1   
@<TRIPOS>SUBSTRUCTURE
     1 SYE         1 TEMP              0 ****  ****    0 ROOT
