@<TRIPOS>MOLECULE
SYE
   23    20     1     0     0
SMALL
bcc


@<TRIPOS>ATOM
      1 C1         -2.9690    0.2030   -1.8120 c1        1 SYE     -0.207000
      2 C2         -1.5920    0.0230   -1.8520 c1        1 SYE     -0.211000
      3 C3         -0.8380    0.0850   -0.6650 c1        1 SYE      0.110000
      4 C4         -1.4650    0.3260    0.5350 c1        1 SYE     -0.233000
      5 C5         -2.8610    0.5080    0.5750 c1        1 SYE     -0.050000
      6 C6         -3.6040    0.4460   -0.5970 c1        1 SYE     -0.207000
      7 N11         0.5310   -0.1230   -0.7010 n2        1 SYE     -0.296000
      8 C12         1.2590   -0.0900    0.4530 c1        1 SYE      0.078000
      9 C13         0.6270    0.1520    1.6700 c1        1 SYE     -0.199000
     10 C14        -0.7250    0.3590    1.7080 c2        1 SYE     -0.105000
     11 C17         2.3680   -0.9420   -0.1380 c3        1 SYE     -0.456000
     12 P18         3.9730   -0.1640    0.2000 p5        1 SYE      1.461500
     13 O21         3.9340    1.2810   -0.2360 o         1 SYE     -0.822833
     14 O22         4.2660   -0.2360    1.6790 o         1 SYE     -0.822833
     15 O23         5.0550   -0.8910   -0.5640 o         1 SYE     -0.822833
     16 H1         -3.4920    0.1590   -2.6350 ha        1 SYE      0.075500
     17 H2         -1.1480   -0.1480   -2.7040 ha        1 SYE      0.110000
     18 H5         -3.3070    0.6790    1.4280 ha        1 SYE      0.075000
     19 H6         -4.5740    0.5490   -0.5660 ha        1 SYE      0.075500
     20 H13         1.1480    0.1760    2.4950 ha        1 SYE      0.114000
     21 H14        -1.1730    0.5000    2.5640 ha        1 SYE      0.079000
     22 H17         2.2400   -1.0200   -1.1040 hc        1 SYE      0.127500
     23 H17A        2.3460   -1.8320    0.2670 hc        1 SYE      0.127500
@<TRIPOS>BOND
     1    1    6 1   
     2    1   16 1   
     3    2    3 1   
     4    2   17 1   
     5    3    7 1   
     6    4    5 1   
     7    4   10 1   
     8    5   18 1   
     9    6   19 1   
    10    7    8 1   
    11    8   11 1   
    12    9   10 1   
    13    9   20 1   
    14   10   21 1   
    15   11   12 1   
    16   11   22 1   
    17   11   23 1   
    18   12   13 1   
    19   12   14 1   
    20   12   15 1   
@<TRIPOS>SUBSTRUCTURE
     1 SYE         1 TEMP              0 ****  ****    0 ROOT
