@<TRIPOS>MOLECULE
SYM
   20    19     1     0     0
SMALL
bcc


@<TRIPOS>ATOM
      1 CB          0.0160   -0.0810    0.4200 c3        1 SYM     -0.072400
      2 CG1         1.4180    0.4100    0.0920 c3        1 SYM     -0.181700
      3 CG2         1.7370    1.7060    0.8100 c3        1 SYM     -0.065100
      4 CD          2.5050   -0.6220    0.4770 c         1 SYM      0.912600
      5 OE1         3.2120   -1.1160   -0.4530 o         1 SYM     -0.869300
      6 OE2         2.6930   -0.9090    1.6970 o         1 SYM     -0.869300
      7 C          -2.4410   -0.1820   -0.0670 c         1 SYM      0.914600
      8 OT1        -2.9030   -1.3060   -0.4150 o         1 SYM     -0.865800
      9 OT2        -3.0570    0.6120    0.7070 o         1 SYM     -0.865800
     10 N          -1.0920    1.6340   -1.0960 n3        1 SYM     -0.907800
     11 CA         -1.0530    0.2550   -0.6350 c3        1 SYM      0.035500
     12 HB1         0.0350   -1.1970    0.5250 hc        1 SYM      0.043200
     13 HB2        -0.3080    0.3370    1.4090 hc        1 SYM      0.043200
     14 HG1         1.5040    0.5690   -1.0180 hc        1 SYM      0.034700
     15 HG21        2.6810    2.1480    0.4080 hc        1 SYM      0.007033
     16 HG22        0.9210    2.4600    0.7010 hc        1 SYM      0.007033
     17 HG23        1.8810    1.4990    1.8990 hc        1 SYM      0.007033
     18 HA         -0.8410   -0.3740   -1.5490 h1        1 SYM      0.042700
     19 HN1        -1.7180    2.1530   -0.5040 hn        1 SYM      0.324300
     20 HN2        -0.1810    2.0460   -1.0080 hn        1 SYM      0.324300
@<TRIPOS>BOND
     1    1    2 1   
     2    1   11 1   
     3    1   12 1   
     4    1   13 1   
     5    2    3 1   
     6    2    4 1   
     7    2   14 1   
     8    3   15 1   
     9    3   16 1   
    10    3   17 1   
    11    4    5 1   
    12    4    6 1   
    13    7    8 1   
    14    7    9 1   
    15    7   11 1   
    16   10   11 1   
    17   10   19 1   
    18   10   20 1   
    19   11   18 1   
@<TRIPOS>SUBSTRUCTURE
     1 SYM         1 TEMP              0 ****  ****    0 ROOT
