@<TRIPOS>MOLECULE
SYN
   16    12     1     0     0
SMALL
bcc


@<TRIPOS>ATOM
      1 CAF         0.2250    0.1920   -1.2120 c1        1 SYN     -0.119000
      2 CAD         1.6110    0.1740   -1.2520 c1        1 SYN     -0.126750
      3 CAC         2.3380    0.1730   -0.0720 c1        1 SYN     -0.126750
      4 CAE         1.6800    0.1900    1.1480 c1        1 SYN     -0.126750
      5 CAG         0.2950    0.2080    1.1880 c1        1 SYN     -0.126750
      6 CAH        -0.4330    0.2090    0.0080 c1        1 SYN     -0.046000
      7 CAB        -1.9440    0.2640    0.0510 c2        1 SYN     -0.125000
      8 CAA        -2.6590   -0.8770    0.0950 c1        1 SYN     -0.209000
      9 H1         -0.2870    0.1930   -2.0420 ha        1 SYN      0.131000
     10 H2          2.0740    0.1620   -2.1110 ha        1 SYN      0.131250
     11 H3          3.3140    0.1600   -0.1000 ha        1 SYN      0.131250
     12 H4          2.1920    0.1890    1.9790 ha        1 SYN      0.131250
     13 H5         -0.1690    0.2200    2.0470 ha        1 SYN      0.131250
     14 H6         -2.4010    1.1270    0.0480 ha        1 SYN      0.123000
     15 H8         -2.2010   -1.7410    0.0990 DU        1 SYN      0.113000
     16 H9         -3.6360   -0.8420    0.1230 ha        1 SYN      0.114000
@<TRIPOS>BOND
     1    1    6 1   
     2    1    9 1   
     3    2    3 1   
     4    2   10 1   
     5    3   11 1   
     6    4    5 1   
     7    4   12 1   
     8    5   13 1   
     9    6    7 1   
    10    7    8 1   
    11    7   14 1   
    12    8   16 1   
@<TRIPOS>SUBSTRUCTURE
     1 SYN         1 TEMP              0 ****  ****    0 ROOT
