@<TRIPOS>MOLECULE
SYN
   16    16     1     0     0
SMALL
bcc


@<TRIPOS>ATOM
      1 CAF        -0.3920    1.2760    0.0300 ca        1 SYN     -0.118500
      2 CAD        -1.7590    1.0180    0.0860 ca        1 SYN     -0.131000
      3 CAC        -2.2270   -0.2950    0.0350 ca        1 SYN     -0.127000
      4 CAE        -1.3220   -1.3500   -0.0720 ca        1 SYN     -0.131000
      5 CAG         0.0480   -1.0960   -0.1260 ca        1 SYN     -0.118500
      6 CAH         0.5290    0.2200   -0.0720 ca        1 SYN     -0.057800
      7 CAB         1.9520    0.5210   -0.1280 ce        1 SYN     -0.113200
      8 CAA         2.9340   -0.3410    0.1420 c2        1 SYN     -0.209000
      9 H1         -0.0270    2.3130    0.0690 ha        1 SYN      0.131500
     10 H2         -2.4700    1.8530    0.1700 ha        1 SYN      0.131000
     11 H3         -3.3070   -0.4970    0.0790 ha        1 SYN      0.131000
     12 H4         -1.6880   -2.3860   -0.1160 ha        1 SYN      0.131000
     13 H5          0.7540   -1.9340   -0.2170 ha        1 SYN      0.131500
     14 H6          2.1910    1.5630   -0.4100 ha        1 SYN      0.123000
     15 H8          3.9900   -0.0490    0.0830 ha        1 SYN      0.113500
     16 H9          2.7580   -1.3820    0.4410 ha        1 SYN      0.113500
@<TRIPOS>BOND
     1    1    2 ar  
     2    1    6 ar  
     3    1    9 1   
     4    2    3 ar  
     5    2   10 1   
     6    3    4 ar  
     7    3   11 1   
     8    4    5 ar  
     9    4   12 1   
    10    5    6 ar  
    11    5   13 1   
    12    6    7 1   
    13    7    8 2   
    14    7   14 1   
    15    8   15 1   
    16    8   16 1   
@<TRIPOS>SUBSTRUCTURE
     1 SYN         1 TEMP              0 ****  ****    0 ROOT
