@<TRIPOS>MOLECULE
SYN
   16    16     1     0     0
SMALL
bcc


@<TRIPOS>ATOM
      1 CAF        -0.0140    0.0030    0.0290 ca        1 SYN     -0.118500
      2 CAD         1.3770   -0.0010   -0.0170 ca        1 SYN     -0.131500
      3 CAC         2.1180   -0.0010    1.1660 ca        1 SYN     -0.127000
      4 CAE         1.4580    0.0020    2.3940 ca        1 SYN     -0.131500
      5 CAG         0.0650    0.0050    2.4430 ca        1 SYN     -0.118500
      6 CAH        -0.6890    0.0060    1.2610 ca        1 SYN     -0.056800
      7 CAB        -2.1440    0.0090    1.2660 ce        1 SYN     -0.112200
      8 CAA        -2.9240    0.0120    2.3480 c2        1 SYN     -0.209000
      9 H1         -0.5910    0.0030   -0.9080 ha        1 SYN      0.131500
     10 H2          1.8940   -0.0030   -0.9880 ha        1 SYN      0.131000
     11 H3          3.2160   -0.0030    1.1290 ha        1 SYN      0.131000
     12 H4          2.0370    0.0020    3.3290 ha        1 SYN      0.131000
     13 H5         -0.4420    0.0080    3.4190 ha        1 SYN      0.131500
     14 H6         -2.6050    0.0090    0.2600 ha        1 SYN      0.122000
     15 H8         -2.5400    0.0120    3.3760 ha        1 SYN      0.113500
     16 H9         -4.0190    0.0140    2.2670 ha        1 SYN      0.113500
@<TRIPOS>BOND
     1    1    2 ar  
     2    1    6 ar  
     3    1    9 1   
     4    2    3 ar  
     5    2   10 1   
     6    3    4 ar  
     7    3   11 1   
     8    4    5 ar  
     9    4   12 1   
    10    5    6 ar  
    11    5   13 1   
    12    6    7 1   
    13    7    8 2   
    14    7   14 1   
    15    8   15 1   
    16    8   16 1   
@<TRIPOS>SUBSTRUCTURE
     1 SYN         1 TEMP              0 ****  ****    0 ROOT
