@<TRIPOS>MOLECULE
SYO
   66    65     1     0     0
SMALL
bcc


@<TRIPOS>ATOM
      1 C1          4.7060    3.3850   -2.3580 c3        1 SYO     -0.008300
      2 S1          3.0640    4.0480   -2.3480 ss        1 SYO     -0.359200
      3 C2          5.4730    3.7300   -1.1030 c3        1 SYO     -0.179400
      4 C3          6.5850    2.7430   -0.8560 c         1 SYO      0.573100
      5 O3          7.7580    2.9950   -1.1650 o         1 SYO     -0.578100
      6 C4          6.1610    1.4680   -0.1940 c3        1 SYO     -0.203400
      7 C5          7.2010    0.3740   -0.2740 c3        1 SYO     -0.058400
      8 C6          6.6780   -0.8970    0.3610 c3        1 SYO     -0.094400
      9 C7          7.6300   -2.0530    0.1460 c3        1 SYO     -0.073400
     10 C8          7.1230   -3.3120    0.8000 c3        1 SYO     -0.091100
     11 O23        -0.6570    1.4880   -1.9060 o         1 SYO     -0.909167
     12 P24        -1.8970    1.3180   -1.0700 p5        1 SYO      1.323900
     13 O26        -3.1520    2.0410   -1.4300 o         1 SYO     -0.909167
     14 O27        -2.2850   -0.3430   -1.2590 os        1 SYO     -0.585200
     15 C29        -3.7280   -1.9300   -0.1000 c3        1 SYO     -0.109000
     16 O29        -1.5120    1.2410    0.3960 o         1 SYO     -0.909167
     17 C30        -5.2200   -2.1750    0.1100 c3        1 SYO     -0.078600
     18 C31        -3.1230   -3.1130   -0.8340 c3        1 SYO     -0.078600
     19 C32        -3.0870   -1.7830    1.2970 c3        1 SYO      0.128100
     20 O33        -3.2480   -0.5060    1.8540 oh        1 SYO     -0.650800
     21 C34        -1.6270   -2.2810    1.3150 c         1 SYO      0.637100
     22 O35        -1.3990   -3.4770    1.6470 o         1 SYO     -0.728100
     23 N36        -0.6260   -1.3990    1.0330 n         1 SYO     -0.546900
     24 C37         0.7390   -1.8090    0.8950 c3        1 SYO      0.108000
     25 C38         1.3570   -1.5050   -0.4740 c3        1 SYO     -0.178400
     26 C39         2.1860   -0.2350   -0.4700 c         1 SYO      0.651100
     27 O40         3.4340   -0.3080   -0.6540 o         1 SYO     -0.735100
     28 N41         1.5550    0.9540   -0.1980 n         1 SYO     -0.501900
     29 C42         2.2090    2.1990   -0.5020 c3        1 SYO      0.104000
     30 C43         2.0760    2.6280   -1.9600 c3        1 SYO     -0.033300
     31 H1          4.6540    2.2750   -2.4900 h1        1 SYO      0.069200
     32 H1A         5.2250    3.8160   -3.2490 h1        1 SYO      0.069200
     33 H2          5.9000    4.7640   -1.1890 hc        1 SYO      0.067700
     34 H2A         4.7790    3.7190   -0.2190 hc        1 SYO      0.067700
     35 H4          5.9300    1.7000    0.8810 hc        1 SYO      0.099200
     36 H4A         5.1950    1.1020   -0.6540 hc        1 SYO      0.099200
     37 H5          7.4570    0.1850   -1.3500 hc        1 SYO      0.033200
     38 H5A         8.1440    0.7060    0.2330 hc        1 SYO      0.033200
     39 H6          6.5290   -0.7320    1.4610 hc        1 SYO      0.064700
     40 H6A         5.6680   -1.1420   -0.0720 hc        1 SYO      0.064700
     41 H7          7.7600   -2.2280   -0.9550 hc        1 SYO      0.025700
     42 H7A         8.6400   -1.7920    0.5590 hc        1 SYO      0.025700
     43 H8          7.0250   -3.1710    1.9030 hc        1 SYO      0.029033
     44 H8A         6.1190   -3.5860    0.3940 hc        1 SYO      0.029033
     45 H8B         7.8250   -4.1610    0.6140 hc        1 SYO      0.029033
     46 H28        -4.1240    0.1960   -0.4800 h1        1 SYO      0.008700
     47 H28A       -4.1400   -0.9010   -1.9470 h1        1 SYO      0.008700
     48 H30        -5.7520   -2.1970   -0.8710 hc        1 SYO      0.023533
     49 H30A       -5.3900   -3.1500    0.6260 hc        1 SYO      0.023533
     50 H30B       -5.6500   -1.3550    0.7340 hc        1 SYO      0.023533
     51 H31        -2.0890   -2.8470   -1.1690 hc        1 SYO      0.023533
     52 H31A       -3.0730   -4.0100   -0.1720 hc        1 SYO      0.023533
     53 H31B       -3.7340   -3.3600   -1.7350 hc        1 SYO      0.023533
     54 H32        -3.6350   -2.4670    2.0150 h1        1 SYO      0.044700
     55 HO33       -2.7950    0.1640    1.2860 ho        1 SYO      0.488000
     56 HN36       -0.8790   -0.4630    0.6950 hn        1 SYO      0.403500
     57 H37         1.3470   -1.2890    1.6920 h1        1 SYO      0.037200
     58 H37A        0.8150   -2.9200    1.0800 h1        1 SYO      0.037200
     59 H38         2.0360   -2.3500   -0.7590 hc        1 SYO      0.076200
     60 H38A        0.5630   -1.4090   -1.2660 hc        1 SYO      0.076200
     61 HN41        0.5320    0.9940   -0.3060 hn        1 SYO      0.400500
     62 H42         1.7410    2.9870    0.1540 h1        1 SYO      0.037700
     63 H42A        3.3030    2.1140   -0.2380 h1        1 SYO      0.037700
     64 H43         0.9990    2.8890   -2.1810 h1        1 SYO      0.125700
     65 H43A        2.3440    1.7850   -2.6420 h1        1 SYO      0.125700
     66 C28        -3.5940   -0.6630   -0.9840 c3        1 SYO      0.218400
@<TRIPOS>BOND
     1    1    2 1   
     2    1    3 1   
     3    1   31 1   
     4    1   32 1   
     5    2   30 1   
     6    3    4 1   
     7    3   33 1   
     8    3   34 1   
     9    4    5 2   
    10    4    6 1   
    11    6    7 1   
    12    6   35 1   
    13    6   36 1   
    14    7    8 1   
    15    7   37 1   
    16    7   38 1   
    17    8    9 1   
    18    8   39 1   
    19    8   40 1   
    20    9   10 1   
    21    9   41 1   
    22    9   42 1   
    23   10   43 1   
    24   10   44 1   
    25   10   45 1   
    26   11   12 1   
    27   12   13 1   
    28   12   14 1   
    29   12   16 1   
    30   14   66 1   
    31   15   17 1   
    32   15   18 1   
    33   15   19 1   
    34   15   66 1   
    35   17   48 1   
    36   17   49 1   
    37   17   50 1   
    38   18   51 1   
    39   18   52 1   
    40   18   53 1   
    41   19   20 1   
    42   19   21 1   
    43   19   54 1   
    44   20   55 1   
    45   21   22 2   
    46   21   23 1   
    47   23   24 1   
    48   23   56 1   
    49   24   25 1   
    50   24   57 1   
    51   24   58 1   
    52   25   26 1   
    53   25   59 1   
    54   25   60 1   
    55   26   27 2   
    56   26   28 1   
    57   28   29 1   
    58   28   61 1   
    59   29   30 1   
    60   29   62 1   
    61   29   63 1   
    62   30   64 1   
    63   30   65 1   
    64   46   66 1   
    65   47   66 1   
@<TRIPOS>SUBSTRUCTURE
     1 SYO         1 TEMP              0 ****  ****    0 ROOT
