@<TRIPOS>MOLECULE
SYP
   38    38     1     0     0
SMALL
bcc


@<TRIPOS>ATOM
      1 C1          0.4970   -0.1700   -0.3780 ca        1 SYP     -0.505600
      2 C2          1.8470   -0.2080    0.0590 ca        1 SYP      0.695200
      3 N3          2.1950    0.1370    1.3430 nb        1 SYP     -0.766000
      4 C4          1.1710    0.5270    2.1400 ca        1 SYP      0.713900
      5 N5         -0.1420    0.6160    1.8450 nb        1 SYP     -0.760000
      6 C6         -0.4970    0.2520    0.5600 ca        1 SYP      0.725200
      7 N7         -1.8400    0.2610    0.2170 nh        1 SYP     -0.860900
      8 C8         -2.2310    0.1920   -1.1650 c3        1 SYP      0.226800
      9 C9         -3.6890    0.5510   -1.4100 c3        1 SYP     -0.006300
     10 S10        -3.8830    0.4640   -3.1730 sh        1 SYP     -0.411900
     11 N11         2.8840   -0.5490   -0.8290 nh        1 SYP     -0.872900
     12 C12         2.6190   -1.3490   -1.9770 c3        1 SYP      0.213800
     13 C13         2.3750   -0.4490   -3.2270 c3        1 SYP      0.064800
     14 N14         1.9440   -1.2400   -4.4130 n4        1 SYP     -0.686800
     15 C15         1.7110   -0.3340   -5.6200 c         1 SYP      0.548100
     16 C16         0.3530    0.2970   -5.7030 c3        1 SYP     -0.143400
     17 O17         2.6590   -0.2510   -6.3790 o         1 SYP     -0.391100
     18 C18         0.2950    1.2880   -6.8410 c3        1 SYP     -0.107100
     19 H1          0.2160   -0.4610   -1.3940 ha        1 SYP      0.119000
     20 H4          1.4540    0.8120    3.1790 h5        1 SYP      0.072100
     21 HN7        -2.4900    0.6510    0.8640 hn        1 SYP      0.456800
     22 H8         -2.0540   -0.8650   -1.5270 h1        1 SYP      0.043200
     23 H8A        -1.5840    0.8810   -1.7870 h1        1 SYP      0.043200
     24 H9         -3.9230    1.5800   -1.0430 h1        1 SYP      0.084200
     25 H9A        -4.3730   -0.1670   -0.8980 h1        1 SYP      0.084200
     26 HS10       -5.1910    0.6650   -3.2570 hs        1 SYP      0.244800
     27 HN11        3.8020   -0.6190   -0.4430 hn        1 SYP      0.461800
     28 H12         1.7160   -2.0100   -1.8240 h1        1 SYP      0.065200
     29 H12A        3.5090   -2.0090   -2.1880 h1        1 SYP      0.065200
     30 H13         3.3250    0.0940   -3.4970 hx        1 SYP      0.116700
     31 H13A        1.5740    0.3130   -3.0010 hx        1 SYP      0.116700
     32 HN14        1.0810   -1.7460   -4.1930 hn        1 SYP      0.455800
     33 H16         0.1140    0.8120   -4.7310 hc        1 SYP      0.103200
     34 H16A       -0.4110   -0.5160   -5.8620 hc        1 SYP      0.103200
     35 H18        -0.7350    1.7200   -6.8960 hc        1 SYP      0.077033
     36 H18A        0.5290    0.7920   -7.8150 hc        1 SYP      0.077033
     37 H18B        1.0240    2.1200   -6.6840 hc        1 SYP      0.077033
     38 H142        2.6750   -1.9260   -4.6400 hn        1 SYP      0.455800
@<TRIPOS>BOND
     1    1    2 ar  
     2    1    6 ar  
     3    1   19 1   
     4    2    3 ar  
     5    2   11 1   
     6    3    4 ar  
     7    4    5 ar  
     8    4   20 1   
     9    5    6 ar  
    10    6    7 1   
    11    7    8 1   
    12    7   21 1   
    13    8    9 1   
    14    8   22 1   
    15    8   23 1   
    16    9   10 1   
    17    9   24 1   
    18    9   25 1   
    19   10   26 1   
    20   11   12 1   
    21   11   27 1   
    22   12   13 1   
    23   12   28 1   
    24   12   29 1   
    25   13   14 1   
    26   13   30 1   
    27   13   31 1   
    28   14   15 1   
    29   14   32 1   
    30   14   38 1   
    31   15   16 1   
    32   15   17 2   
    33   16   18 1   
    34   16   33 1   
    35   16   34 1   
    36   18   35 1   
    37   18   36 1   
    38   18   37 1   
@<TRIPOS>SUBSTRUCTURE
     1 SYP         1 TEMP              0 ****  ****    0 ROOT
