@<TRIPOS>MOLECULE
SYP
   37    37     1     0     0
SMALL
bcc


@<TRIPOS>ATOM
      1 C1          1.3360   -0.9480   -0.0290 ca        1 SYP     -0.471600
      2 C2          0.5660   -2.1280   -0.2390 ca        1 SYP      0.694200
      3 N3          1.1380   -3.3780   -0.1110 nb        1 SYP     -0.782000
      4 C4          2.4550   -3.3900    0.1880 ca        1 SYP      0.692900
      5 N5          3.2900   -2.3470    0.3920 nb        1 SYP     -0.785000
      6 C6          2.7140   -1.0970    0.2970 ca        1 SYP      0.689200
      7 N7          3.5010    0.0210    0.6040 nh        1 SYP     -0.843900
      8 C8          3.1320    1.2990    0.0410 c3        1 SYP      0.204800
      9 C9          4.2790    2.3020    0.0420 c3        1 SYP     -0.013300
     10 S10         3.6310    3.7800   -0.6870 sh        1 SYP     -0.363900
     11 N11        -0.7670   -2.0500   -0.6530 nh        1 SYP     -0.842900
     12 C12        -1.5180   -0.8540   -0.3590 c3        1 SYP      0.168800
     13 C13        -3.0420   -1.0670   -0.5480 c3        1 SYP      0.079000
     14 N14        -3.8030    0.1330   -0.3700 n         1 SYP     -0.573900
     15 C15        -4.5210    0.3990    0.7830 c         1 SYP      0.657100
     16 C16        -5.2170    1.7440    0.8800 c3        1 SYP     -0.154400
     17 O17        -4.6030   -0.4410    1.6990 o         1 SYP     -0.601100
     18 C18        -6.2100    1.9630   -0.2300 c3        1 SYP     -0.093100
     19 H1          0.8810    0.0450   -0.1100 ha        1 SYP      0.151000
     20 H4          2.9160   -4.3980    0.2790 h5        1 SYP      0.050100
     21 HN7         4.4830   -0.1470    0.6710 hn        1 SYP      0.424800
     22 H8          2.7530    1.1830   -1.0180 h1        1 SYP      0.060200
     23 H8A         2.2840    1.7130    0.6630 h1        1 SYP      0.060200
     24 H9          4.6330    2.4980    1.0820 h1        1 SYP      0.070200
     25 H9A         5.1440    1.9230   -0.5540 h1        1 SYP      0.070200
     26 HS10        4.6770    4.5670   -0.5080 hs        1 SYP      0.208800
     27 HN11       -1.2870   -2.9020   -0.6070 hn        1 SYP      0.428800
     28 H12        -1.3250   -0.4990    0.6950 h1        1 SYP      0.046700
     29 H12A       -1.1640   -0.0460   -1.0620 h1        1 SYP      0.046700
     30 H13        -3.2330   -1.4530   -1.5910 h1        1 SYP      0.070200
     31 H13A       -3.4030   -1.8380    0.1920 h1        1 SYP      0.070200
     32 HN14       -3.6830    0.8550   -1.0390 hn        1 SYP      0.310500
     33 H16        -5.7400    1.7740    1.8740 hc        1 SYP      0.072200
     34 H16A       -4.4430    2.5570    0.8790 hc        1 SYP      0.072200
     35 H18        -5.7020    2.0580   -1.2190 hc        1 SYP      0.043033
     36 H18A       -6.9350    1.1150   -0.2850 hc        1 SYP      0.043033
     37 H18B       -6.7840    2.9040   -0.0420 hc        1 SYP      0.043033
@<TRIPOS>BOND
     1    1    2 ar  
     2    1    6 ar  
     3    1   19 1   
     4    2    3 ar  
     5    2   11 1   
     6    3    4 ar  
     7    4    5 ar  
     8    4   20 1   
     9    5    6 ar  
    10    6    7 1   
    11    7    8 1   
    12    7   21 1   
    13    8    9 1   
    14    8   22 1   
    15    8   23 1   
    16    9   10 1   
    17    9   24 1   
    18    9   25 1   
    19   10   26 1   
    20   11   12 1   
    21   11   27 1   
    22   12   13 1   
    23   12   28 1   
    24   12   29 1   
    25   13   14 1   
    26   13   30 1   
    27   13   31 1   
    28   14   15 1   
    29   14   32 1   
    30   15   16 1   
    31   15   17 2   
    32   16   18 1   
    33   16   33 1   
    34   16   34 1   
    35   18   35 1   
    36   18   36 1   
    37   18   37 1   
@<TRIPOS>SUBSTRUCTURE
     1 SYP         1 TEMP              0 ****  ****    0 ROOT
