@<TRIPOS>MOLECULE
SYP
   40    40     1     0     0
SMALL
bcc


@<TRIPOS>ATOM
      1 C1         -0.7060    0.6220   -0.0620 ca        1 SYP     -0.315600
      2 C2         -0.1450   -0.2130   -1.0640 ca        1 SYP      0.535200
      3 N3          0.0320   -1.5500   -0.9010 nb        1 SYP     -0.650000
      4 C4         -0.3640   -2.0680    0.2930 ca        1 SYP      0.747900
      5 N5         -0.9160   -1.3750    1.3250 nb        1 SYP     -0.607000
      6 C6         -1.0830   -0.0390    1.1440 ca        1 SYP      0.571200
      7 N7         -1.6830    0.7340    2.2540 n4        1 SYP     -0.772700
      8 C8         -3.1240    1.1190    1.9810 c3        1 SYP      0.119800
      9 C9         -4.1150   -0.0160    2.1660 c3        1 SYP     -0.066300
     10 S10        -5.5100    0.4160    1.1900 sh        1 SYP     -0.273900
     11 N11         0.2460    0.4030   -2.3650 n4        1 SYP     -0.751700
     12 C12         1.1150   -0.4610   -3.2330 c3        1 SYP      0.090800
     13 C13         1.5280    0.2770   -4.5260 c3        1 SYP      0.070800
     14 N14         2.3580   -0.5460   -5.4340 n4        1 SYP     -0.712800
     15 C15         2.7870    0.2410   -6.7390 c         1 SYP      0.581100
     16 C16         3.5520   -0.5850   -7.7270 c3        1 SYP     -0.138400
     17 O17         2.4220    1.3940   -6.7480 o         1 SYP     -0.372100
     18 C18         4.7530    0.1890   -8.2240 c3        1 SYP     -0.118100
     19 H1         -0.8480    1.7060   -0.1980 ha        1 SYP      0.204000
     20 H4         -0.2240   -3.1760    0.4420 h5        1 SYP      0.154100
     21 HN7        -1.1190    1.5840    2.3980 hn        1 SYP      0.491300
     22 H8         -3.1750    1.5200    0.9270 hx        1 SYP      0.125200
     23 H8A        -3.3600    1.9600    2.7030 hx        1 SYP      0.125200
     24 H9         -4.3630   -0.1700    3.2460 h1        1 SYP      0.112200
     25 H9A        -3.7220   -0.9890    1.7740 h1        1 SYP      0.112200
     26 HS10       -6.4060    0.7040    2.1360 hs        1 SYP      0.266800
     27 HN11        0.7410    1.2850   -2.1560 hn        1 SYP      0.484300
     28 H12         0.5370   -1.4020   -3.4840 hx        1 SYP      0.144700
     29 H12A        2.0290   -0.7510   -2.6330 hx        1 SYP      0.144700
     30 H13         2.1230    1.2090   -4.2780 hx        1 SYP      0.134700
     31 H13A        0.6120    0.6020   -5.1080 hx        1 SYP      0.134700
     32 HN14        3.2170   -0.8480   -4.9620 hn        1 SYP      0.464800
     33 H16         2.8450   -0.7840   -8.5890 hc        1 SYP      0.122200
     34 H16A        3.8750   -1.5750   -7.3070 hc        1 SYP      0.122200
     35 H18         5.5090    0.3350   -7.4150 hc        1 SYP      0.092700
     36 H18A        4.4550    1.1870   -8.6320 hc        1 SYP      0.092700
     37 H18B        5.2330   -0.3980   -9.0510 hc        1 SYP      0.092700
     38 H72        -1.6560    0.1710    3.1270 hn        1 SYP      0.491300
     39 H112       -0.6270    0.6240   -2.8730 hn        1 SYP      0.484300
     40 H142        1.8450   -1.3840   -5.7310 hn        1 SYP      0.464800
@<TRIPOS>BOND
     1    1    2 ar  
     2    1    6 ar  
     3    1   19 1   
     4    2    3 ar  
     5    2   11 1   
     6    3    4 ar  
     7    4    5 ar  
     8    4   20 1   
     9    5    6 ar  
    10    6    7 1   
    11    7    8 1   
    12    7   21 1   
    13    7   38 1   
    14    8    9 1   
    15    8   22 1   
    16    8   23 1   
    17    9   10 1   
    18    9   24 1   
    19    9   25 1   
    20   10   26 1   
    21   11   12 1   
    22   11   27 1   
    23   11   39 1   
    24   12   13 1   
    25   12   28 1   
    26   12   29 1   
    27   13   14 1   
    28   13   30 1   
    29   13   31 1   
    30   14   15 1   
    31   14   32 1   
    32   14   40 1   
    33   15   16 1   
    34   15   17 2   
    35   16   18 1   
    36   16   33 1   
    37   16   34 1   
    38   18   35 1   
    39   18   36 1   
    40   18   37 1   
@<TRIPOS>SUBSTRUCTURE
     1 SYP         1 TEMP              0 ****  ****    0 ROOT
