@<TRIPOS>MOLECULE
SYP
   38    38     1     0     0
SMALL
bcc


@<TRIPOS>ATOM
      1 C1          0.5100   -0.1580   -0.3810 ca        1 SYP     -0.505600
      2 C2          1.8630   -0.1910    0.0510 ca        1 SYP      0.695200
      3 N3          2.2160    0.1650    1.3300 nb        1 SYP     -0.766000
      4 C4          1.1950    0.5600    2.1290 ca        1 SYP      0.713900
      5 N5         -0.1190    0.6450    1.8390 nb        1 SYP     -0.760000
      6 C6         -0.4800    0.2700    0.5590 ca        1 SYP      0.725200
      7 N7         -1.8240    0.2740    0.2220 nu        1 SYP     -0.860900
      8 C8         -2.2210    0.1930   -1.1580 c3        1 SYP      0.226800
      9 C9         -3.6800    0.5500   -1.4000 c3        1 SYP     -0.006300
     10 S10        -3.8810    0.4500   -3.1610 sh        1 SYP     -0.411900
     11 N11         2.8960   -0.5370   -0.8390 nu        1 SYP     -0.872900
     12 C12         2.6270   -1.3440   -1.9820 c3        1 SYP      0.213800
     13 C13         2.3730   -0.4510   -3.2350 c3        1 SYP      0.064800
     14 N14         1.9340   -1.2490   -4.4130 ny        1 SYP     -0.686800
     15 C15         1.6890   -0.3500   -5.6230 c         1 SYP      0.548100
     16 C16         0.3280    0.2770   -5.6980 c3        1 SYP     -0.143400
     17 O17         2.6310   -0.2690   -6.3900 o         1 SYP     -0.391100
     18 C18         0.2600    1.2650   -6.8380 c3        1 SYP     -0.107100
     19 H1          0.2250   -0.4590   -1.3920 ha        1 SYP      0.119000
     20 H4          1.4830    0.8540    3.1650 h5        1 SYP      0.072100
     21 HN7        -2.4720    0.6690    0.8690 hn        1 SYP      0.456800
     22 H8         -2.0460   -0.8670   -1.5120 h1        1 SYP      0.043200
     23 H8A        -1.5770    0.8780   -1.7890 h1        1 SYP      0.043200
     24 H9         -3.9140    1.5810   -1.0390 h1        1 SYP      0.084200
     25 H9A        -4.3620   -0.1650   -0.8800 h1        1 SYP      0.084200
     26 HS10       -5.1910    0.6470   -3.2410 hs        1 SYP      0.244800
     27 HN11        3.8170   -0.6030   -0.4570 hn        1 SYP      0.462800
     28 H12         3.5180   -2.0020   -2.1940 h1        1 SYP      0.065200
     29 H12A        1.7260   -2.0060   -1.8190 h1        1 SYP      0.065200
     30 H13         1.5740    0.3120   -3.0080 hx        1 SYP      0.116700
     31 H13A        3.3220    0.0910   -3.5150 hx        1 SYP      0.116700
     32 HN14        1.0740   -1.7560   -4.1830 hn        1 SYP      0.455800
     33 H16         0.0950    0.7940   -4.7260 hc        1 SYP      0.103200
     34 H16A       -0.4340   -0.5380   -5.8500 hc        1 SYP      0.103200
     35 H18         0.4880    0.7670   -7.8120 hc        1 SYP      0.077033
     36 H18A       -0.7720    1.6930   -6.8870 hc        1 SYP      0.077033
     37 H18B        0.9880    2.0990   -6.6880 hc        1 SYP      0.077033
     38 H142        2.6650   -1.9350   -4.6420 hn        1 SYP      0.455800
@<TRIPOS>BOND
     1    1    2 ar  
     2    1    6 ar  
     3    1   19 1   
     4    2    3 ar  
     5    2   11 1   
     6    3    4 ar  
     7    4    5 ar  
     8    4   20 1   
     9    5    6 ar  
    10    6    7 1   
    11    7    8 1   
    12    7   21 1   
    13    8    9 1   
    14    8   22 1   
    15    8   23 1   
    16    9   10 1   
    17    9   24 1   
    18    9   25 1   
    19   10   26 1   
    20   11   12 1   
    21   11   27 1   
    22   12   13 1   
    23   12   28 1   
    24   12   29 1   
    25   13   14 1   
    26   13   30 1   
    27   13   31 1   
    28   14   15 1   
    29   14   32 1   
    30   14   38 1   
    31   15   16 1   
    32   15   17 2   
    33   16   18 1   
    34   16   33 1   
    35   16   34 1   
    36   18   35 1   
    37   18   36 1   
    38   18   37 1   
@<TRIPOS>SUBSTRUCTURE
     1 SYP         1 TEMP              0 ****  ****    0 ROOT
