@<TRIPOS>MOLECULE
SYR
   27    27     1     0     0
SMALL
bcc


@<TRIPOS>ATOM
      1 O3         -1.7640   -0.0120    2.8570 o         1 SYR     -0.546000
      2 C8         -0.6340   -0.0050    2.3570 c         1 SYR      0.648700
      3 O4          0.4390   -0.0230    3.2110 os        1 SYR     -0.439900
      4 C10         0.1380   -0.0480    4.6070 c3        1 SYR      0.127700
      5 C6         -0.2780    0.0200    0.9320 ca        1 SYR     -0.108600
      6 C5         -1.3190    0.0390   -0.0040 ca        1 SYR     -0.139500
      7 C4         -1.0100    0.0630   -1.3640 ca        1 SYR      0.075100
      8 O2         -1.9460    0.0830   -2.3860 os        1 SYR     -0.323900
      9 C7         -3.3110    0.0790   -1.9800 c3        1 SYR      0.114200
     10 C1          1.0600    0.0250    0.5230 ca        1 SYR     -0.139500
     11 C2          1.3680    0.0490   -0.8390 ca        1 SYR      0.075100
     12 O5          2.6480    0.0560   -1.3560 os        1 SYR     -0.323900
     13 C9          3.7040    0.0370   -0.4010 c3        1 SYR      0.114200
     14 C3          0.3320    0.0680   -1.8030 ca        1 SYR      0.120100
     15 O1          0.6910    0.0910   -3.1240 oh        1 SYR     -0.467100
     16 H101        1.1450   -0.0580    5.0920 h1        1 SYR      0.051700
     17 H102       -0.4430    0.8630    4.8880 h1        1 SYR      0.051700
     18 H103       -0.4470   -0.9660    4.8550 h1        1 SYR      0.051700
     19 H5         -2.3610    0.0340    0.3500 ha        1 SYR      0.164500
     20 H7C1       -3.8680    0.0980   -2.9520 h1        1 SYR      0.048533
     21 H7C2       -3.5470   -0.8500   -1.4060 h1        1 SYR      0.048533
     22 H7C3       -3.5420    0.9870   -1.3730 h1        1 SYR      0.048533
     23 H1          1.8560    0.0090    1.2830 ha        1 SYR      0.164500
     24 H9C1        4.6240    0.0460   -1.0380 h1        1 SYR      0.048533
     25 H9C2        3.6650    0.9430    0.2510 h1        1 SYR      0.048533
     26 H9C3        3.6620   -0.8930    0.2170 h1        1 SYR      0.048533
     27 HA         -0.1220    0.1030   -3.6560 ho        1 SYR      0.437000
@<TRIPOS>BOND
     1    1    2 2   
     2    2    3 1   
     3    2    5 1   
     4    3    4 1   
     5    4   16 1   
     6    4   17 1   
     7    4   18 1   
     8    5    6 ar  
     9    5   10 ar  
    10    6    7 ar  
    11    6   19 1   
    12    7    8 1   
    13    7   14 ar  
    14    8    9 1   
    15    9   20 1   
    16    9   21 1   
    17    9   22 1   
    18   10   11 ar  
    19   10   23 1   
    20   11   12 1   
    21   11   14 ar  
    22   12   13 1   
    23   13   24 1   
    24   13   25 1   
    25   13   26 1   
    26   14   15 1   
    27   15   27 1   
@<TRIPOS>SUBSTRUCTURE
     1 SYR         1 TEMP              0 ****  ****    0 ROOT
