@<TRIPOS>MOLECULE
SYR
   27    27     1     0     0
SMALL
bcc


@<TRIPOS>ATOM
      1 O3         -0.1280    0.0290    0.2370 o         1 SYR     -0.546000
      2 C8          1.1000    0.0180    0.1120 c         1 SYR      0.648700
      3 O4          1.8550    0.0360    1.2580 os        1 SYR     -0.439900
      4 C10         1.1350    0.0650    2.4910 c3        1 SYR      0.127700
      5 C6          1.8820   -0.0120   -1.1310 ca        1 SYR     -0.108600
      6 C5          1.1830   -0.0320   -2.3440 ca        1 SYR     -0.139500
      7 C4          1.8990   -0.0610   -3.5410 ca        1 SYR      0.075100
      8 O2          1.3270   -0.0820   -4.8030 os        1 SYR     -0.323900
      9 C7         -0.0960   -0.0730   -4.8420 c3        1 SYR      0.114200
     10 C1          3.2800   -0.0210   -1.1050 ca        1 SYR     -0.139500
     11 C2          3.9970   -0.0500   -2.3040 ca        1 SYR      0.075100
     12 O5          5.3740   -0.0610   -2.3970 os        1 SYR     -0.323900
     13 C9          6.0800   -0.0420   -1.1610 c3        1 SYR      0.114200
     14 C3          3.3110   -0.0700   -3.5420 ca        1 SYR      0.120100
     15 O1          4.0630   -0.0980   -4.6860 oh        1 SYR     -0.467100
     16 H101        0.4930   -0.8430    2.5790 h1        1 SYR      0.051700
     17 H102        0.5060    0.9860    2.5430 h1        1 SYR      0.051700
     18 H103        1.9420    0.0750    3.2650 h1        1 SYR      0.051700
     19 H5          0.0820   -0.0240   -2.3310 ha        1 SYR      0.164500
     20 H7C1       -0.4950    0.8590   -4.3710 h1        1 SYR      0.048533
     21 H7C2       -0.5090   -0.9790   -4.3350 h1        1 SYR      0.048533
     22 H7C3       -0.3240   -0.0930   -5.9380 h1        1 SYR      0.048533
     23 H1          3.8010   -0.0050   -0.1340 ha        1 SYR      0.164500
     24 H9C1        5.8390   -0.9470   -0.5520 h1        1 SYR      0.048533
     25 H9C2        7.1540   -0.0560   -1.4810 h1        1 SYR      0.048533
     26 H9C3        5.8510    0.8900   -0.5890 h1        1 SYR      0.048533
     27 HA          3.4550   -0.1090   -5.4440 ho        1 SYR      0.437000
@<TRIPOS>BOND
     1    1    2 2   
     2    2    3 1   
     3    2    5 1   
     4    3    4 1   
     5    4   16 1   
     6    4   17 1   
     7    4   18 1   
     8    5    6 ar  
     9    5   10 ar  
    10    6    7 ar  
    11    6   19 1   
    12    7    8 1   
    13    7   14 ar  
    14    8    9 1   
    15    9   20 1   
    16    9   21 1   
    17    9   22 1   
    18   10   11 ar  
    19   10   23 1   
    20   11   12 1   
    21   11   14 ar  
    22   12   13 1   
    23   13   24 1   
    24   13   25 1   
    25   13   26 1   
    26   14   15 1   
    27   15   27 1   
@<TRIPOS>SUBSTRUCTURE
     1 SYR         1 TEMP              0 ****  ****    0 ROOT
