@<TRIPOS>MOLECULE
SYR
   27    27     1     0     0
SMALL
bcc


@<TRIPOS>ATOM
      1 O3         -0.1470    0.0590    0.2450 o         1 SYR     -0.544000
      2 C8          1.0790    0.0230    0.1030 c         1 SYR      0.648700
      3 O4          1.8500    0.0130    1.2390 os        1 SYR     -0.441900
      4 C10         1.1470    0.0450    2.4820 c3        1 SYR      0.127700
      5 C6          1.8450   -0.0110   -1.1510 ca        1 SYR     -0.108600
      6 C5          1.1300   -0.0030   -2.3550 ca        1 SYR     -0.139500
      7 C4          1.8180   -0.0340   -3.5700 ca        1 SYR      0.075100
      8 O2          1.2180   -0.0280   -4.8130 os        1 SYR     -0.323900
      9 C7         -0.2050    0.0110   -4.8160 c3        1 SYR      0.114700
     10 C1          3.2410   -0.0520   -1.1410 ca        1 SYR     -0.139500
     11 C2          3.9290   -0.0840   -2.3560 ca        1 SYR      0.075100
     12 O5          5.3080   -0.1290   -2.4820 os        1 SYR     -0.323900
     13 C9          6.0460   -0.1020   -1.2650 c3        1 SYR      0.114700
     14 C3          3.2330   -0.0750   -3.5840 ca        1 SYR      0.120100
     15 O1          3.8570   -0.1060   -4.8030 oh        1 SYR     -0.466100
     16 H101        0.4870   -0.8510    2.5700 h1        1 SYR      0.051367
     17 H102        0.5380    0.9780    2.5520 h1        1 SYR      0.051367
     18 H103        1.9640    0.0290    3.2450 h1        1 SYR      0.051367
     19 H5          0.0290    0.0300   -2.3220 ha        1 SYR      0.164500
     20 H7C1       -0.5760    0.9450   -4.3280 h1        1 SYR      0.048700
     21 H7C2       -0.6270   -0.8910   -4.3100 h1        1 SYR      0.048700
     22 H7C3       -0.4580    0.0080   -5.9070 h1        1 SYR      0.048700
     23 H1          3.7790   -0.0590   -0.1810 ha        1 SYR      0.164500
     24 H9C1        5.8090   -1.0000   -0.6430 h1        1 SYR      0.048700
     25 H9C2        7.1110   -0.1280   -1.6100 h1        1 SYR      0.048700
     26 H9C3        5.8360    0.8370   -0.6980 h1        1 SYR      0.048700
     27 HA          4.8150   -0.1270   -4.6480 ho        1 SYR      0.437000
@<TRIPOS>BOND
     1    1    2 2   
     2    2    3 1   
     3    2    5 1   
     4    3    4 1   
     5    4   16 1   
     6    4   17 1   
     7    4   18 1   
     8    5    6 ar  
     9    5   10 ar  
    10    6    7 ar  
    11    6   19 1   
    12    7    8 1   
    13    7   14 ar  
    14    8    9 1   
    15    9   20 1   
    16    9   21 1   
    17    9   22 1   
    18   10   11 ar  
    19   10   23 1   
    20   11   12 1   
    21   11   14 ar  
    22   12   13 1   
    23   13   24 1   
    24   13   25 1   
    25   13   26 1   
    26   14   15 1   
    27   15   27 1   
@<TRIPOS>SUBSTRUCTURE
     1 SYR         1 TEMP              0 ****  ****    0 ROOT
