@<TRIPOS>MOLECULE
SYS
   20    19     1     0     0
SMALL
bcc


@<TRIPOS>ATOM
      1 N          -3.0710    0.6780   -1.7480 n3        1 SYS     -0.878800
      2 CA         -1.6810    0.3860   -1.6700 c3        1 SYS      0.016500
      3 CB         -1.2330    0.4470   -0.2280 c3        1 SYS      0.016700
      4 SE          0.4030   -0.5240   -0.0260 ss        1 SYS     -0.322200
      5 C          -1.4250   -0.9990   -2.2190 c         1 SYS      0.885600
      6 O          -2.1980   -1.9470   -1.9200 o         1 SYS     -0.837300
      7 HN         -3.3030    0.8270   -2.6220 hn        1 SYS      0.333800
      8 HNA        -3.2540    1.4260   -1.2520 hn        1 SYS      0.333800
      9 HA         -1.1800    1.0420   -2.1950 h1        1 SYS      0.062700
     10 HB         -1.0930    1.3800    0.0300 h1        1 SYS      0.074700
     11 HBA        -1.9200    0.0500    0.3440 h1        1 SYS      0.074700
     12 O2         -0.4390   -1.2050   -2.9740 o         1 SYS     -0.837300
     13 C4          1.2840    0.0370    1.5770 c3        1 SYS     -0.090300
     14 C5          2.7370   -0.3830    1.5270 c         1 SYS      0.657100
     15 N2          3.5180   -0.3760    2.7120 n         1 SYS     -0.657000
     16 O3          3.2340   -0.7260    0.4740 o         1 SYS     -0.675100
     17 H6          0.8510   -0.3780    2.3490 h1        1 SYS      0.084200
     18 H7          1.2290    1.0110    1.6560 h1        1 SYS      0.084200
     19 H8          4.3960   -0.6300    2.6820 hn        1 SYS      0.335500
     20 H9          3.1440   -0.1180    3.5050 hn        1 SYS      0.335500
@<TRIPOS>BOND
     1    1    2 1   
     2    1    7 1   
     3    1    8 1   
     4    2    3 1   
     5    2    5 1   
     6    2    9 1   
     7    3    4 1   
     8    3   10 1   
     9    3   11 1   
    10    4   13 1   
    11    5    6 1   
    12    5   12 1   
    13   13   14 1   
    14   13   17 1   
    15   13   18 1   
    16   14   15 1   
    17   14   16 2   
    18   15   19 1   
    19   15   20 1   
@<TRIPOS>SUBSTRUCTURE
     1 SYS         1 TEMP              0 ****  ****    0 ROOT
