@<TRIPOS>MOLECULE
SYS
   20    19     1     0     0
SMALL
bcc


@<TRIPOS>ATOM
      1 N           2.0530    1.5710   -0.1150 n3        1 SYS     -0.878800
      2 CA          1.1430    0.4400    0.0170 c3        1 SYS      0.016500
      3 CB          0.5490   -0.0040   -1.3150 c3        1 SYS      0.016700
      4 SE         -1.0150    0.7650   -1.6790 ss        1 SYS     -0.322200
      5 C           1.7720   -0.8100    0.7210 c         1 SYS      0.885600
      6 O           2.9620   -0.7390    1.1250 o         1 SYS     -0.837300
      7 HN          2.4330    1.7550    0.7980 hn        1 SYS      0.333800
      8 HNA         2.8280    1.2880   -0.6900 hn        1 SYS      0.333800
      9 HA          0.2990    0.7830    0.6870 h1        1 SYS      0.062700
     10 HB          1.2160    0.2570   -2.1720 h1        1 SYS      0.074700
     11 HBA         0.4200   -1.1170   -1.2960 h1        1 SYS      0.074700
     12 O2          1.0300   -1.8290    0.8600 o         1 SYS     -0.837300
     13 C4         -2.1820   -0.5450   -1.5080 c3        1 SYS     -0.090300
     14 C5         -2.7040   -0.7530   -0.1020 c         1 SYS      0.657100
     15 N2         -1.8570   -1.2420    0.8460 n         1 SYS     -0.657000
     16 O3         -3.9100   -0.5240    0.1640 o         1 SYS     -0.675100
     17 H6         -3.0510   -0.2500   -2.1510 h1        1 SYS      0.084200
     18 H7         -1.7630   -1.5060   -1.8940 h1        1 SYS      0.084200
     19 H8         -0.8770   -1.3730    0.6720 hn        1 SYS      0.335500
     20 H9         -2.1820   -1.3360    1.7750 hn        1 SYS      0.335500
@<TRIPOS>BOND
     1    1    2 1   
     2    1    7 1   
     3    1    8 1   
     4    2    3 1   
     5    2    5 1   
     6    2    9 1   
     7    3    4 1   
     8    3   10 1   
     9    3   11 1   
    10    4   13 1   
    11    5    6 1   
    12    5   12 1   
    13   13   14 1   
    14   13   17 1   
    15   13   18 1   
    16   14   15 1   
    17   14   16 2   
    18   15   19 1   
    19   15   20 1   
@<TRIPOS>SUBSTRUCTURE
     1 SYS         1 TEMP              0 ****  ****    0 ROOT
