@<TRIPOS>MOLECULE
SYY
   29    30     1     0     0
SMALL
bcc


@<TRIPOS>ATOM
      1 S           0.2780   -0.1280   -0.0810 ss        1 SYY      0.131200
      2 C1          0.5350    1.2460    2.0310 cc        1 SYY     -0.185000
      3 N1          3.0130    1.0520    2.4190 ns        1 SYY     -0.445100
      4 O1          4.1860   -0.5360    0.3210 o         1 SYY     -0.584000
      5 C2          1.8620    0.7820    1.7060 cc        1 SYY      0.127600
      6 O2          2.7620   -1.3460   -1.1900 os        1 SYY     -0.438900
      7 S2          5.2590    0.0750    5.9920 ss        1 SYY      0.043200
      8 C3          1.8360   -0.0030    0.5280 cd        1 SYY     -0.277700
      9 O3          2.1350    2.3980    4.0880 o         1 SYY     -0.585100
     10 C5         -0.3890    0.7990    1.1120 cd        1 SYY     -0.151100
     11 C6          3.0070   -0.6050   -0.0590 c         1 SYY      0.694700
     12 C9          3.8950   -1.9590   -1.8060 c3        1 SYY      0.130700
     13 C11         3.1110    1.8300    3.5670 c         1 SYY      0.671100
     14 C12         4.5120    1.9950    4.1470 c3        1 SYY     -0.073100
     15 C14         5.1750    0.7170    4.4390 cc        1 SYY     -0.144400
     16 C15         5.8290   -0.0970    3.5310 cd        1 SYY     -0.146000
     17 C16         6.3860   -1.2510    4.1630 cd        1 SYY     -0.152000
     18 C17         6.1350   -1.2590    5.5180 cc        1 SYY     -0.169100
     19 H1          0.3220    1.8730    2.9030 ha        1 SYY      0.195000
     20 HN1         3.8490    0.6010    2.0930 hn        1 SYY      0.357500
     21 H5         -1.4550    1.0280    1.1590 h4        1 SYY      0.179000
     22 H9          4.6260   -1.1780   -2.1240 h1        1 SYY      0.051367
     23 H9A         4.3790   -2.6690   -1.0940 h1        1 SYY      0.051367
     24 H9B         3.4560   -2.4940   -2.6850 h1        1 SYY      0.051367
     25 H12         4.4060    2.6100    5.0840 hc        1 SYY      0.086200
     26 H12A        5.1260    2.5920    3.4170 hc        1 SYY      0.086200
     27 H15         5.9200    0.0910    2.4570 ha        1 SYY      0.167000
     28 H16         6.9390   -2.0190    3.6180 ha        1 SYY      0.157000
     29 H17         6.4580   -2.0310    6.2150 h4        1 SYY      0.173000
@<TRIPOS>BOND
     1    1    8 1   
     2    1   10 1   
     3    2    5 1   
     4    2   10 2   
     5    2   19 1   
     6    3    5 1   
     7    3   13 1   
     8    3   20 1   
     9    4   11 2   
    10    5    8 2   
    11    6   11 1   
    12    6   12 1   
    13    7   15 1   
    14    7   18 1   
    15    8   11 1   
    16    9   13 2   
    17   10   21 1   
    18   12   22 1   
    19   12   23 1   
    20   12   24 1   
    21   13   14 1   
    22   14   15 1   
    23   14   25 1   
    24   14   26 1   
    25   15   16 2   
    26   16   17 1   
    27   16   27 1   
    28   17   18 2   
    29   17   28 1   
    30   18   29 1   
@<TRIPOS>SUBSTRUCTURE
     1 SYY         1 TEMP              0 ****  ****    0 ROOT
