@<TRIPOS>MOLECULE
SYY
   29    30     1     0     0
SMALL
bcc


@<TRIPOS>ATOM
      1 S          -3.4580    1.5280    0.0680 ss        1 SYY      0.131200
      2 C1         -1.3860    2.2900   -1.1750 cc        1 SYY     -0.185000
      3 N1          0.1390    0.3250   -0.7950 n         1 SYY     -0.445100
      4 O1         -1.2430   -1.6690    0.7570 o         1 SYY     -0.584000
      5 C2         -1.0620    0.9900   -0.6400 cc        1 SYY      0.127600
      6 O2         -3.3130   -1.1390    1.3900 os        1 SYY     -0.438900
      7 S2          4.2630    0.1450    0.5150 ss        1 SYY      0.043200
      8 C3         -2.1610    0.4630    0.0800 cd        1 SYY     -0.277700
      9 O3          1.2720    1.8620   -2.1070 o         1 SYY     -0.585100
     10 C5         -2.6690    2.6610   -0.8390 cd        1 SYY     -0.151100
     11 C6         -2.1520   -0.8250    0.7270 c         1 SYY      0.694700
     12 C9         -3.3480   -2.4080    2.0450 c3        1 SYY      0.130700
     13 C11         1.2480    0.7760   -1.5040 c         1 SYY      0.671100
     14 C12         2.4450   -0.1680   -1.5440 c3        1 SYY     -0.073100
     15 C14         2.9210   -0.5610   -0.2110 cc        1 SYY     -0.144400
     16 C15         2.3840   -1.5490    0.5970 cd        1 SYY     -0.146000
     17 C16         3.1140   -1.6890    1.8160 cd        1 SYY     -0.152000
     18 C17         4.1720   -0.8070    1.8780 cc        1 SYY     -0.169100
     19 H1         -0.6810    2.8810   -1.7680 ha        1 SYY      0.195000
     20 HN1         0.2260   -0.5480   -0.3060 hn        1 SYY      0.357500
     21 H5         -3.1280    3.6060   -1.1360 h4        1 SYY      0.179000
     22 H9         -3.2090   -3.2270    1.2990 h1        1 SYY      0.051367
     23 H9A        -2.5480   -2.4580    2.8220 h1        1 SYY      0.051367
     24 H9B        -4.3680   -2.4370    2.5030 h1        1 SYY      0.051367
     25 H12         2.1540   -1.0790   -2.1360 hc        1 SYY      0.086200
     26 H12A        3.2570    0.3620   -2.1140 hc        1 SYY      0.086200
     27 H15         1.5070   -2.1590    0.3580 ha        1 SYY      0.167000
     28 H16         2.8470   -2.4120    2.5900 ha        1 SYY      0.157000
     29 H17         4.8750   -0.7230    2.7060 h4        1 SYY      0.173000
@<TRIPOS>BOND
     1    1    8 1   
     2    1   10 1   
     3    2    5 1   
     4    2   10 2   
     5    2   19 1   
     6    3    5 1   
     7    3   13 1   
     8    3   20 1   
     9    4   11 2   
    10    5    8 2   
    11    6   11 1   
    12    6   12 1   
    13    7   15 1   
    14    7   18 1   
    15    8   11 1   
    16    9   13 2   
    17   10   21 1   
    18   12   22 1   
    19   12   23 1   
    20   12   24 1   
    21   13   14 1   
    22   14   15 1   
    23   14   25 1   
    24   14   26 1   
    25   15   16 2   
    26   16   17 1   
    27   16   27 1   
    28   17   18 2   
    29   17   28 1   
    30   18   29 1   
@<TRIPOS>SUBSTRUCTURE
     1 SYY         1 TEMP              0 ****  ****    0 ROOT
