@<TRIPOS>MOLECULE
SYY
   30    31     1     0     0
SMALL
bcc


@<TRIPOS>ATOM
      1 S           0.5140   -0.3320   -0.4360 ss        1 SYY      0.407200
      2 C1          0.1980    0.0620    2.0390 cc        1 SYY     -0.112000
      3 N1          2.5730   -0.0860    2.8980 n4        1 SYY     -0.533200
      4 O1          4.2810   -0.5590    0.6580 o         1 SYY     -0.583000
      5 C2          1.5970   -0.1160    1.8330 cc        1 SYY     -0.049400
      6 O2          3.3380   -0.7890   -1.3600 os        1 SYY     -0.411900
      7 S2          5.4790    1.0490    5.8070 ss        1 SYY      0.129200
      8 C3          1.8940   -0.3450    0.4690 cd        1 SYY     -0.236700
      9 O3          1.5870    1.6490    4.1240 o         1 SYY     -0.415100
     10 C5         -0.4780   -0.0420    0.8290 cd        1 SYY     -0.211100
     11 C6          3.2450   -0.5640   -0.0260 c         1 SYY      0.685700
     12 C9          4.6550   -1.0160   -1.8900 c3        1 SYY      0.126700
     13 C11         2.6250    1.2560    3.6200 c         1 SYY      0.557100
     14 C12         3.9810    1.9180    3.6420 c3        1 SYY     -0.047100
     15 C14         5.0130    1.0360    4.1970 cc        1 SYY     -0.254400
     16 C15         5.8010    0.1590    3.4580 cd        1 SYY     -0.138000
     17 C16         6.7590   -0.4990    4.2780 cd        1 SYY     -0.153000
     18 C17         6.6670   -0.0830    5.5940 cc        1 SYY     -0.146100
     19 H1         -0.2650    0.2710    3.0100 ha        1 SYY      0.197000
     20 HN1         3.5190   -0.2960    2.5170 hn        1 SYY      0.482800
     21 H5         -1.5660    0.0630    0.7410 h4        1 SYY      0.216000
     22 H9          5.2920   -0.1180   -1.7090 h1        1 SYY      0.071700
     23 H9A         4.4600   -1.1770   -2.9800 h1        1 SYY      0.071700
     24 H9B         5.1020   -1.9190   -1.4100 h1        1 SYY      0.071700
     25 H12         4.2430    2.2240    2.5880 hc        1 SYY      0.119700
     26 H12A        3.8720    2.8600    4.2540 hc        1 SYY      0.119700
     27 H15         5.7340    0.0020    2.3750 ha        1 SYY      0.176000
     28 H16         7.4780   -1.2300    3.8970 ha        1 SYY      0.177000
     29 H17         7.3020   -0.4430    6.4070 h4        1 SYY      0.197000
     30 H121        2.3240   -0.8150    3.5800 hn        1 SYY      0.482800
@<TRIPOS>BOND
     1    1    8 1   
     2    1   10 1   
     3    2    5 1   
     4    2   10 2   
     5    2   19 1   
     6    3    5 1   
     7    3   13 1   
     8    3   20 1   
     9    3   30 1   
    10    4   11 2   
    11    5    8 2   
    12    6   11 1   
    13    6   12 1   
    14    7   15 1   
    15    7   18 1   
    16    8   11 1   
    17    9   13 2   
    18   10   21 1   
    19   12   22 1   
    20   12   23 1   
    21   12   24 1   
    22   13   14 1   
    23   14   15 1   
    24   14   25 1   
    25   14   26 1   
    26   15   16 2   
    27   16   17 1   
    28   16   27 1   
    29   17   18 2   
    30   17   28 1   
    31   18   29 1   
@<TRIPOS>SUBSTRUCTURE
     1 SYY         1 TEMP              0 ****  ****    0 ROOT
