@<TRIPOS>MOLECULE
SYY
   29    30     1     0     0
SMALL
bcc


@<TRIPOS>ATOM
      1 S           0.2180   -0.1320    0.0100 ss        1 SYY      0.131200
      2 C1          0.5430    1.2700    2.0960 cc        1 SYY     -0.185000
      3 N1          3.0290    1.0610    2.4200 n         1 SYY     -0.445100
      4 O1          4.1330   -0.5660    0.3150 o         1 SYY     -0.584000
      5 C2          1.8570    0.7900    1.7410 cc        1 SYY      0.127600
      6 O2          2.6630   -1.3850   -1.1470 os        1 SYY     -0.438900
      7 S2          5.3610    0.1150    5.9450 ss        1 SYY      0.043200
      8 C3          1.7930   -0.0110    0.5760 cd        1 SYY     -0.277700
      9 O3          2.2060    2.4360    4.0930 o         1 SYY     -0.585100
     10 C5         -0.4080    0.8170    1.2080 cd        1 SYY     -0.151100
     11 C6          2.9440   -0.6310   -0.0340 c         1 SYY      0.694700
     12 C9          3.7740   -2.0160   -1.7840 c3        1 SYY      0.130700
     13 C11         3.1630    1.8540    3.5540 c         1 SYY      0.671100
     14 C12         4.5810    2.0150    4.0950 c3        1 SYY     -0.073100
     15 C14         5.2410    0.7360    4.3860 cc        1 SYY     -0.144400
     16 C15         5.8650   -0.0960    3.4730 cd        1 SYY     -0.146000
     17 C16         6.4300   -1.2450    4.1050 cd        1 SYY     -0.152000
     18 C17         6.2150   -1.2320    5.4670 cc        1 SYY     -0.169100
     19 H1          0.3580    1.9100    2.9640 ha        1 SYY      0.195000
     20 HN1         3.8530    0.5990    2.0780 hn        1 SYY      0.357500
     21 H5         -1.4710    1.0550    1.2800 h4        1 SYY      0.179000
     22 H9          4.2720   -2.7200   -1.0740 h1        1 SYY      0.051367
     23 H9A         4.5020   -1.2450   -2.1330 h1        1 SYY      0.051367
     24 H9B         3.3080   -2.5600   -2.6430 h1        1 SYY      0.051367
     25 H12         4.5040    2.6430    5.0250 hc        1 SYY      0.086200
     26 H12A        5.1790    2.5970    3.3400 hc        1 SYY      0.086200
     27 H15         5.9290    0.0780    2.3940 ha        1 SYY      0.167000
     28 H16         6.9620   -2.0250    3.5560 ha        1 SYY      0.157000
     29 H17         6.5500   -1.9980    6.1650 h4        1 SYY      0.173000
@<TRIPOS>BOND
     1    1    8 1   
     2    1   10 1   
     3    2    5 1   
     4    2   10 2   
     5    2   19 1   
     6    3    5 1   
     7    3   13 1   
     8    3   20 1   
     9    4   11 2   
    10    5    8 2   
    11    6   11 1   
    12    6   12 1   
    13    7   15 1   
    14    7   18 1   
    15    8   11 1   
    16    9   13 2   
    17   10   21 1   
    18   12   22 1   
    19   12   23 1   
    20   12   24 1   
    21   13   14 1   
    22   14   15 1   
    23   14   25 1   
    24   14   26 1   
    25   15   16 2   
    26   16   17 1   
    27   16   27 1   
    28   17   18 2   
    29   17   28 1   
    30   18   29 1   
@<TRIPOS>SUBSTRUCTURE
     1 SYY         1 TEMP              0 ****  ****    0 ROOT
