@<TRIPOS>MOLECULE
SZ0
   56    58     1     0     0
SMALL
bcc


@<TRIPOS>ATOM
      1 N           2.9660    0.5240    0.3810 n3        1 SZ0     -0.919800
      2 C1          3.5000   -0.5390   -0.4370 c3        1 SZ0      0.166500
      3 C2          2.4420   -1.4290   -1.1510 c3        1 SZ0      0.097100
      4 O1          3.0760   -2.2680   -2.1090 oh        1 SZ0     -0.616800
      5 C3          4.4140   -1.4890    0.3690 c3        1 SZ0     -0.043100
      6 C4          5.7500   -0.9000    0.6510 ca        1 SZ0     -0.055300
      7 C5          5.8980    0.1290    1.5910 ca        1 SZ0     -0.120500
      8 C6          6.8860   -1.3870   -0.0090 ca        1 SZ0     -0.120500
      9 C7          7.1590    0.6580    1.8610 ca        1 SZ0     -0.140000
     10 C8          8.1460   -0.8570    0.2660 ca        1 SZ0     -0.140000
     11 C9          8.2850    0.1650    1.2020 ca        1 SZ0     -0.146000
     12 C10         1.3600   -0.5950   -1.8660 c3        1 SZ0      0.128800
     13 N2          0.3160   -0.1080   -0.9820 n3        1 SZ0     -0.708600
     14 C11        -0.4040    1.0500   -1.5230 c3        1 SZ0      0.053500
     15 C12        -1.4210    1.5890   -0.5110 c3        1 SZ0     -0.043400
     16 C13        -2.4280    0.5070   -0.1260 c3        1 SZ0     -0.288900
     17 C14        -1.6680   -0.6960    0.4010 c3        1 SZ0     -0.045400
     18 C15        -0.6150   -1.1640   -0.6010 c3        1 SZ0      0.175800
     19 C           0.4630    2.2800   -1.9790 c         1 SZ0      0.924600
     20 O           1.6890    2.3470   -1.6970 o         1 SZ0     -0.822300
     21 N3         -6.8000   -2.0520    0.5010 nb        1 SZ0     -0.639000
     22 C17        -5.8620   -2.1520    1.4620 ca        1 SZ0      0.368700
     23 C18        -4.8390   -1.2040    1.6470 ca        1 SZ0     -0.142300
     24 C19        -4.7780   -0.0960    0.7970 ca        1 SZ0     -0.299500
     25 C20        -5.7530    0.0190   -0.2000 ca        1 SZ0     -0.142300
     26 C21        -6.7380   -0.9780   -0.3100 ca        1 SZ0      0.368700
     27 S1         -3.5750    1.1050    0.9870 sy        1 SZ0      1.351300
     28 O3         -3.1070    1.0440    2.3110 o         1 SZ0     -0.649800
     29 O4         -4.1250    2.3240    0.5610 o         1 SZ0     -0.649800
     30 H           2.6410    1.2830   -0.2000 hn        1 SZ0      0.381300
     31 H1          4.1300   -0.0600   -1.2460 h1        1 SZ0      0.057700
     32 H3          1.9970   -2.1540   -0.4160 h1        1 SZ0      0.060700
     33 H4          3.4720   -1.6900   -2.7720 ho        1 SZ0      0.397000
     34 H5          3.9170   -1.7630    1.3380 hc        1 SZ0      0.047200
     35 H6          4.5360   -2.4340   -0.2270 hc        1 SZ0      0.047200
     36 H7          5.0080    0.5310    2.0990 ha        1 SZ0      0.141000
     37 H8          6.7810   -2.1900   -0.7530 ha        1 SZ0      0.141000
     38 H9          7.2630    1.4720    2.5930 ha        1 SZ0      0.119000
     39 H10         9.0290   -1.2450   -0.2610 ha        1 SZ0      0.119000
     40 H11         9.2770    0.5860    1.4170 ha        1 SZ0      0.116000
     41 H12         1.8670    0.2970   -2.3400 h1        1 SZ0      0.059700
     42 H13         0.9400   -1.2380   -2.6960 h1        1 SZ0      0.059700
     43 H14        -0.9800    0.7350   -2.4480 h1        1 SZ0      0.013700
     44 H15        -0.8870    1.9520    0.4060 hc        1 SZ0      0.077700
     45 H16        -1.9460    2.4590   -0.9900 hc        1 SZ0      0.077700
     46 H17        -2.9350    0.1950   -1.0840 h1        1 SZ0      0.111700
     47 H18        -1.1740   -0.4260    1.3730 hc        1 SZ0      0.047200
     48 H19        -2.3790   -1.5430    0.5920 hc        1 SZ0      0.047200
     49 H20        -1.1510   -1.5970   -1.4990 h1        1 SZ0      0.018700
     50 H21        -0.0280   -2.0000   -0.1270 h1        1 SZ0      0.018700
     51 H24        -5.7560    0.8880   -0.8780 ha        1 SZ0      0.166500
     52 H25        -7.5210   -0.9160   -1.0870 h4        1 SZ0      0.022600
     53 H2          2.2000    0.1900    0.9320 hn        1 SZ0      0.381300
     54 OXT        -0.1700    3.1450   -2.6400 o         1 SZ0     -0.822300
     55 H22        -5.9360   -3.0380    2.1170 h4        1 SZ0      0.022600
     56 H23        -4.1020   -1.3240    2.4570 ha        1 SZ0      0.166500
@<TRIPOS>BOND
     1    1    2 1   
     2    1   30 1   
     3    1   53 1   
     4    2    3 1   
     5    2    5 1   
     6    2   31 1   
     7    3    4 1   
     8    3   12 1   
     9    3   32 1   
    10    4   33 1   
    11    5    6 1   
    12    5   34 1   
    13    5   35 1   
    14    6    7 ar  
    15    6    8 ar  
    16    7    9 ar  
    17    7   36 1   
    18    8   10 ar  
    19    8   37 1   
    20    9   11 ar  
    21    9   38 1   
    22   10   11 ar  
    23   10   39 1   
    24   11   40 1   
    25   12   13 1   
    26   12   41 1   
    27   12   42 1   
    28   13   14 1   
    29   13   18 1   
    30   14   15 1   
    31   14   19 1   
    32   14   43 1   
    33   15   16 1   
    34   15   44 1   
    35   15   45 1   
    36   16   17 1   
    37   16   27 1   
    38   16   46 1   
    39   17   18 1   
    40   17   47 1   
    41   17   48 1   
    42   18   49 1   
    43   18   50 1   
    44   19   20 1   
    45   19   54 1   
    46   21   22 ar  
    47   21   26 ar  
    48   22   23 ar  
    49   22   55 1   
    50   23   24 ar  
    51   23   56 1   
    52   24   25 ar  
    53   24   27 1   
    54   25   26 ar  
    55   25   51 1   
    56   26   52 1   
    57   27   28 2   
    58   27   29 2   
@<TRIPOS>SUBSTRUCTURE
     1 SZ0         1 TEMP              0 ****  ****    0 ROOT
