@<TRIPOS>MOLECULE
SZ1
   23    23     1     0     0
SMALL
bcc


@<TRIPOS>ATOM
      1 N          -1.5650   -1.2290   -0.8380 n3        1 SZ1     -0.915800
      2 C1         -0.1340   -1.2290   -0.8380 c3        1 SZ1      0.176500
      3 C2          0.3620   -1.2290    0.5900 c3        1 SZ1     -0.066400
      4 C3         -0.4390   -0.2680    1.4380 c3        1 SZ1     -0.072400
      5 C4          0.3100    1.0330    1.6300 c3        1 SZ1     -0.072400
      6 C5          0.9390    1.4920    0.3290 c3        1 SZ1     -0.072400
      7 C6         -0.0020    1.2590   -0.8380 c3        1 SZ1     -0.072400
      8 C7          0.3620   -0.0090   -1.5810 c3        1 SZ1     -0.066400
      9 HN         -1.8690   -2.0200   -0.5010 hn        1 SZ1      0.348800
     10 HNA        -1.8690   -1.1260   -1.6920 hn        1 SZ1      0.348800
     11 H1          0.1870   -2.0330   -1.2900 h1        1 SZ1     -0.002300
     12 H2          1.3010   -0.9630    0.6040 hc        1 SZ1      0.036450
     13 H2A         0.2780   -2.1290    0.9590 hc        1 SZ1      0.036450
     14 H3         -1.2910   -0.0860    0.9990 hc        1 SZ1      0.046700
     15 H3A        -0.6070   -0.6730    2.3100 hc        1 SZ1      0.046700
     16 H4         -0.3120    1.7170    1.9450 hc        1 SZ1      0.033450
     17 H4A         1.0100    0.9040    2.2980 hc        1 SZ1      0.033450
     18 H5          1.1450    2.4440    0.3900 hc        1 SZ1      0.033450
     19 H5A         1.7650    0.9940    0.1790 hc        1 SZ1      0.033450
     20 H6         -0.9160    1.1840   -0.5030 hc        1 SZ1      0.046700
     21 H6A         0.0530    2.0170   -1.4500 hc        1 SZ1      0.046700
     22 H7          1.3330   -0.0610   -1.6700 hc        1 SZ1      0.036450
     23 H7A        -0.0410    0.0130   -2.4690 hc        1 SZ1      0.036450
@<TRIPOS>BOND
     1    1    2 1   
     2    1    9 1   
     3    1   10 1   
     4    2    3 1   
     5    2    8 1   
     6    2   11 1   
     7    3    4 1   
     8    3   12 1   
     9    3   13 1   
    10    4    5 1   
    11    4   14 1   
    12    4   15 1   
    13    5    6 1   
    14    5   16 1   
    15    5   17 1   
    16    6    7 1   
    17    6   18 1   
    18    6   19 1   
    19    7    8 1   
    20    7   20 1   
    21    7   21 1   
    22    8   22 1   
    23    8   23 1   
@<TRIPOS>SUBSTRUCTURE
     1 SZ1         1 TEMP              0 ****  ****    0 ROOT
