@<TRIPOS>MOLECULE
SZ1
   24    24     1     0     0
SMALL
bcc


@<TRIPOS>ATOM
      1 N          -0.0510   -0.0090   -0.0120 n4        1 SZ1     -0.847600
      2 C1          1.4620    0.0320    0.0310 c3        1 SZ1      0.128500
      3 C2          1.9480    0.0030    1.4850 c3        1 SZ1     -0.100400
      4 C3          3.3930   -0.4440    1.5750 c3        1 SZ1     -0.080900
      5 C4          4.3570    0.4070    0.7760 c3        1 SZ1     -0.089400
      6 C5          4.2900    0.1380   -0.7120 c3        1 SZ1     -0.089400
      7 C6          3.2730    0.9760   -1.4580 c3        1 SZ1     -0.080900
      8 C7          1.9890    1.2680   -0.7070 c3        1 SZ1     -0.100400
      9 HN         -0.3890   -0.8490    0.4640 hn        1 SZ1      0.456467
     10 HNA        -0.3700   -0.0160   -0.9850 hn        1 SZ1      0.456467
     11 H1          1.8070   -0.9070   -0.5010 hx        1 SZ1      0.115700
     12 H2          1.3280   -0.7110    2.0940 hc        1 SZ1      0.065700
     13 H2A         1.8390    1.0230    1.9410 hc        1 SZ1      0.065700
     14 H3          3.6880   -0.4060    2.6590 hc        1 SZ1      0.066950
     15 H3A         3.4750   -1.5160    1.2480 hc        1 SZ1      0.066950
     16 H4          5.3970    0.1730    1.1340 hc        1 SZ1      0.061200
     17 H4A         4.1780    1.4940    0.9840 hc        1 SZ1      0.061200
     18 H5          5.2990    0.3450   -1.1630 hc        1 SZ1      0.061200
     19 H5A         4.0840   -0.9520   -0.8870 hc        1 SZ1      0.061200
     20 H6          3.7350    1.9670   -1.7220 hc        1 SZ1      0.066950
     21 H6A         3.0290    0.4620   -2.4260 hc        1 SZ1      0.066950
     22 H7          2.1670    2.0920    0.0350 hc        1 SZ1      0.065700
     23 H7A         1.2390    1.6530   -1.4510 hc        1 SZ1      0.065700
     24 HN3        -0.4340    0.8170    0.4570 hn        1 SZ1      0.456467
@<TRIPOS>BOND
     1    1    2 1   
     2    1    9 1   
     3    1   10 1   
     4    1   24 1   
     5    2    3 1   
     6    2    8 1   
     7    2   11 1   
     8    3    4 1   
     9    3   12 1   
    10    3   13 1   
    11    4    5 1   
    12    4   14 1   
    13    4   15 1   
    14    5    6 1   
    15    5   16 1   
    16    5   17 1   
    17    6    7 1   
    18    6   18 1   
    19    6   19 1   
    20    7    8 1   
    21    7   20 1   
    22    7   21 1   
    23    8   22 1   
    24    8   23 1   
@<TRIPOS>SUBSTRUCTURE
     1 SZ1         1 TEMP              0 ****  ****    0 ROOT
