@<TRIPOS>MOLECULE
SZ1
   23    23     1     0     0
SMALL
bcc


@<TRIPOS>ATOM
      1 N           2.6060    0.0930    0.1620 n3        1 SZ1     -0.915800
      2 C1          1.1510    0.0200    0.2200 c3        1 SZ1      0.175500
      3 C2          0.6510   -1.3430   -0.2910 c3        1 SZ1     -0.072900
      4 C3         -0.7630   -1.6500    0.1480 c3        1 SZ1     -0.076400
      5 C4         -1.7870   -0.6260   -0.2940 c3        1 SZ1     -0.074400
      6 C5         -1.7410    0.6430    0.5300 c3        1 SZ1     -0.074400
      7 C6         -0.7700    1.6860    0.0200 c3        1 SZ1     -0.076400
      8 C7          0.5050    1.1530   -0.5970 c3        1 SZ1     -0.072900
      9 HN          2.9210    0.9710    0.5250 hn        1 SZ1      0.347300
     10 HNA         3.0100   -0.6500    0.6950 hn        1 SZ1      0.347300
     11 H1          0.7930    0.1260    1.2940 h1        1 SZ1      0.010700
     12 H2          0.7170   -1.3650   -1.4110 hc        1 SZ1      0.044950
     13 H2A         1.3180   -2.1620    0.0920 hc        1 SZ1      0.044950
     14 H3         -1.0490   -2.6500   -0.2790 hc        1 SZ1      0.036450
     15 H3A        -0.7940   -1.7500    1.2660 hc        1 SZ1      0.036450
     16 H4         -1.6420   -0.3850   -1.3800 hc        1 SZ1      0.038450
     17 H4A        -2.8080   -1.0840   -0.1900 hc        1 SZ1      0.038450
     18 H5         -2.7670    1.1010    0.5500 hc        1 SZ1      0.038450
     19 H5A        -1.4860    0.3840    1.5930 hc        1 SZ1      0.038450
     20 H6         -1.2860    2.3170   -0.7540 hc        1 SZ1      0.036450
     21 H6A        -0.5080    2.3680    0.8740 hc        1 SZ1      0.036450
     22 H7          1.2160    2.0160   -0.7070 hc        1 SZ1      0.044950
     23 H7A         0.2960    0.7810   -1.6340 hc        1 SZ1      0.044950
@<TRIPOS>BOND
     1    1    2 1   
     2    1    9 1   
     3    1   10 1   
     4    2    3 1   
     5    2    8 1   
     6    2   11 1   
     7    3    4 1   
     8    3   12 1   
     9    3   13 1   
    10    4    5 1   
    11    4   14 1   
    12    4   15 1   
    13    5    6 1   
    14    5   16 1   
    15    5   17 1   
    16    6    7 1   
    17    6   18 1   
    18    6   19 1   
    19    7    8 1   
    20    7   20 1   
    21    7   21 1   
    22    8   22 1   
    23    8   23 1   
@<TRIPOS>SUBSTRUCTURE
     1 SZ1         1 TEMP              0 ****  ****    0 ROOT
