@<TRIPOS>MOLECULE
SZ1
   24    24     1     0     0
SMALL
bcc


@<TRIPOS>ATOM
      1 N          -0.0510   -0.0090   -0.0130 n4        1 SZ1     -0.847600
      2 C1          1.4620    0.0320    0.0310 c3        1 SZ1      0.128500
      3 C2          1.9470    0.0020    1.4850 c3        1 SZ1     -0.100400
      4 C3          3.3920   -0.4440    1.5750 c3        1 SZ1     -0.080900
      5 C4          4.3560    0.4070    0.7770 c3        1 SZ1     -0.089400
      6 C5          4.2900    0.1390   -0.7110 c3        1 SZ1     -0.089400
      7 C6          3.2730    0.9770   -1.4570 c3        1 SZ1     -0.080900
      8 C7          1.9890    1.2680   -0.7070 c3        1 SZ1     -0.100400
      9 HN         -0.3890   -0.8500    0.4630 hn        1 SZ1      0.456467
     10 HNA        -0.4340    0.8160    0.4570 hn        1 SZ1      0.456467
     11 H1          1.8070   -0.9070   -0.5020 hx        1 SZ1      0.115700
     12 H2          1.3270   -0.7120    2.0930 hc        1 SZ1      0.065700
     13 H2A         1.8380    1.0220    1.9410 hc        1 SZ1      0.065700
     14 H3          3.6880   -0.4060    2.6590 hc        1 SZ1      0.066950
     15 H3A         3.4750   -1.5150    1.2480 hc        1 SZ1      0.066950
     16 H4          4.1770    1.4940    0.9850 hc        1 SZ1      0.061200
     17 H4A         5.3970    0.1740    1.1350 hc        1 SZ1      0.061200
     18 H5          5.3000    0.3460   -1.1610 hc        1 SZ1      0.061200
     19 H5A         4.0850   -0.9510   -0.8860 hc        1 SZ1      0.061200
     20 H6          3.0290    0.4630   -2.4260 hc        1 SZ1      0.066950
     21 H6A         3.7340    1.9680   -1.7210 hc        1 SZ1      0.066950
     22 H7          2.1660    2.0920    0.0360 hc        1 SZ1      0.065700
     23 H7A         1.2390    1.6530   -1.4500 hc        1 SZ1      0.065700
     24 HN3        -0.3690   -0.0160   -0.9860 hn        1 SZ1      0.456467
@<TRIPOS>BOND
     1    1    2 1   
     2    1    9 1   
     3    1   10 1   
     4    1   24 1   
     5    2    3 1   
     6    2    8 1   
     7    2   11 1   
     8    3    4 1   
     9    3   12 1   
    10    3   13 1   
    11    4    5 1   
    12    4   14 1   
    13    4   15 1   
    14    5    6 1   
    15    5   16 1   
    16    5   17 1   
    17    6    7 1   
    18    6   18 1   
    19    6   19 1   
    20    7    8 1   
    21    7   20 1   
    22    7   21 1   
    23    8   22 1   
    24    8   23 1   
@<TRIPOS>SUBSTRUCTURE
     1 SZ1         1 TEMP              0 ****  ****    0 ROOT
