@<TRIPOS>MOLECULE
SZ3
   22    22     1     0     0
SMALL
bcc


@<TRIPOS>ATOM
      1 N          -0.0150   -0.0690   -0.0670 nz        1 SZ3     -0.843600
      2 O           5.4390    1.0650    0.7810 oh        1 SZ3     -0.577800
      3 C1          1.4870    0.0360    0.0190 c3        1 SZ3      0.116500
      4 C2          1.9570    0.0050    1.4770 c3        1 SZ3     -0.097400
      5 C3          3.4700    0.0170    1.5150 c3        1 SZ3     -0.102400
      6 C4          4.0320    1.2400    0.7920 c3        1 SZ3      0.142100
      7 C5          3.5020    1.3290   -0.6380 c3        1 SZ3     -0.102400
      8 C6          1.9890    1.3070   -0.6730 c3        1 SZ3     -0.097400
      9 HN         -0.3080   -0.0680   -1.0480 hn        1 SZ3      0.458800
     10 HNA        -0.4480    0.7280    0.4100 hn        1 SZ3      0.458800
     11 H1          1.8960   -0.8710   -0.5240 hx        1 SZ3      0.116700
     12 H2          1.5580    0.8970    2.0300 hc        1 SZ3      0.068200
     13 H2A         1.5860   -0.9210    1.9910 hc        1 SZ3      0.068200
     14 H3          3.8150    0.0330    2.5830 hc        1 SZ3      0.083200
     15 H3A         3.8860   -0.9130    1.0450 hc        1 SZ3      0.083200
     16 H4          3.7610    2.1770    1.3560 h1        1 SZ3      0.046700
     17 H5          3.8630    2.2800   -1.1120 hc        1 SZ3      0.083200
     18 H5A         3.9210    0.4780   -1.2380 hc        1 SZ3      0.083200
     19 H6          1.5870    2.2150   -0.1500 hc        1 SZ3      0.068200
     20 H6A         1.6440    1.3360   -1.7410 hc        1 SZ3      0.068200
     21 HN3        -0.3280   -0.9350    0.3820 hn        1 SZ3      0.458800
     22 HO          5.8270    1.8930    0.4700 ho        1 SZ3      0.419000
@<TRIPOS>BOND
     1    1    3 1   
     2    1    9 1   
     3    1   10 1   
     4    1   21 1   
     5    2    6 1   
     6    2   22 1   
     7    3    4 1   
     8    3    8 1   
     9    3   11 1   
    10    4    5 1   
    11    4   12 1   
    12    4   13 1   
    13    5    6 1   
    14    5   14 1   
    15    5   15 1   
    16    6    7 1   
    17    6   16 1   
    18    7    8 1   
    19    7   17 1   
    20    7   18 1   
    21    8   19 1   
    22    8   20 1   
@<TRIPOS>SUBSTRUCTURE
     1 SZ3         1 TEMP              0 ****  ****    0 ROOT
