@<TRIPOS>MOLECULE
SZ3
   22    22     1     0     0
SMALL
bcc


@<TRIPOS>ATOM
      1 N          -0.0160   -0.0660   -0.0680 n4        1 SZ3     -0.843600
      2 O           5.4390    1.0610    0.7860 oh        1 SZ3     -0.577800
      3 C1          1.4860    0.0360    0.0210 c3        1 SZ3      0.116500
      4 C2          1.9520    0.0150    1.4800 c3        1 SZ3     -0.097400
      5 C3          3.4650    0.0240    1.5230 c3        1 SZ3     -0.102400
      6 C4          4.0330    1.2390    0.7920 c3        1 SZ3      0.142100
      7 C5          3.5070    1.3190   -0.6410 c3        1 SZ3     -0.102400
      8 C6          1.9940    1.3000   -0.6800 c3        1 SZ3     -0.097400
      9 HN         -0.4480    0.7360    0.4010 hn        1 SZ3      0.458800
     10 HNA        -0.3060   -0.0710   -1.0500 hn        1 SZ3      0.458800
     11 H1          1.8940   -0.8760   -0.5140 hx        1 SZ3      0.116700
     12 H2          1.5770   -0.9050    2.0010 hc        1 SZ3      0.068200
     13 H2A         1.5540    0.9130    2.0250 hc        1 SZ3      0.068200
     14 H3          3.8800   -0.9110    1.0610 hc        1 SZ3      0.083200
     15 H3A         3.8070    0.0470    2.5910 hc        1 SZ3      0.083200
     16 H4          3.7620    2.1820    1.3470 h1        1 SZ3      0.046700
     17 H5          3.8720    2.2650   -1.1210 hc        1 SZ3      0.083200
     18 H5A         3.9250    0.4620   -1.2330 hc        1 SZ3      0.083200
     19 H6          1.6520    1.3220   -1.7490 hc        1 SZ3      0.068200
     20 H6A         1.5930    2.2140   -0.1650 hc        1 SZ3      0.068200
     21 HN3        -0.3320   -0.9270    0.3860 hn        1 SZ3      0.458800
     22 HO          5.8300    1.8850    0.4700 ho        1 SZ3      0.419000
@<TRIPOS>BOND
     1    1    3 1   
     2    1    9 1   
     3    1   10 1   
     4    1   21 1   
     5    2    6 1   
     6    2   22 1   
     7    3    4 1   
     8    3    8 1   
     9    3   11 1   
    10    4    5 1   
    11    4   12 1   
    12    4   13 1   
    13    5    6 1   
    14    5   14 1   
    15    5   15 1   
    16    6    7 1   
    17    6   16 1   
    18    7    8 1   
    19    7   17 1   
    20    7   18 1   
    21    8   19 1   
    22    8   20 1   
@<TRIPOS>SUBSTRUCTURE
     1 SZ3         1 TEMP              0 ****  ****    0 ROOT
