@<TRIPOS>MOLECULE
SZ3
   21    21     1     0     0
SMALL
bcc


@<TRIPOS>ATOM
      1 N          -2.5900   -0.5250   -0.3410 n3        1 SZ3     -0.913800
      2 O           2.8880    0.4030    0.3650 oh        1 SZ3     -0.600800
      3 C1         -1.1560   -0.5250   -0.3410 c3        1 SZ3      0.170500
      4 C2         -0.6650   -0.5250    1.0960 c3        1 SZ3     -0.073900
      5 C3          0.8450   -0.5250    1.1910 c3        1 SZ3     -0.094400
      6 C4          1.4790    0.5790    0.3610 c3        1 SZ3      0.141100
      7 C5          0.9890    0.5790   -1.0750 c3        1 SZ3     -0.094400
      8 C6         -0.6650    0.6830   -1.1220 c3        1 SZ3     -0.073900
      9 HN         -2.8940   -1.2830    0.0650 hn        1 SZ3      0.350300
     10 HNA        -2.8940   -0.4970   -1.2000 hn        1 SZ3      0.350300
     11 HO          3.2750    1.1220    0.7140 ho        1 SZ3      0.398000
     12 H1         -0.8400   -1.3360   -0.7820 h1        1 SZ3      0.009700
     13 H2         -1.0100   -1.3190    1.5470 hc        1 SZ3      0.048950
     14 H2A        -1.0100    0.2700    1.5470 hc        1 SZ3      0.048950
     15 H3          1.1020   -0.4040    2.1250 hc        1 SZ3      0.050950
     16 H3A         1.1810   -1.3860    0.8800 hc        1 SZ3      0.050950
     17 H4          1.2670    1.4410    0.7680 h1        1 SZ3      0.034700
     18 H5          1.3730    1.3420   -1.5470 hc        1 SZ3      0.050950
     19 H5A         1.2720   -0.2460   -1.5130 hc        1 SZ3      0.050950
     20 H6         -0.9650    1.5080   -0.6950 hc        1 SZ3      0.048950
     21 H6A        -0.9810    0.6430   -2.0440 hc        1 SZ3      0.048950
@<TRIPOS>BOND
     1    1    3 1   
     2    1    9 1   
     3    1   10 1   
     4    2    6 1   
     5    2   11 1   
     6    3    4 1   
     7    3    8 1   
     8    3   12 1   
     9    4    5 1   
    10    4   13 1   
    11    4   14 1   
    12    5    6 1   
    13    5   15 1   
    14    5   16 1   
    15    6    7 1   
    16    6   17 1   
    17    7    8 1   
    18    7   18 1   
    19    7   19 1   
    20    8   20 1   
    21    8   21 1   
@<TRIPOS>SUBSTRUCTURE
     1 SZ3         1 TEMP              0 ****  ****    0 ROOT
