@<TRIPOS>MOLECULE
SZ3
   21    21     1     0     0
SMALL
bcc


@<TRIPOS>ATOM
      1 N           2.8700    0.0220   -0.0540 n3        1 SZ3     -0.913800
      2 O          -2.7490   -0.0920    0.1770 oh        1 SZ3     -0.600800
      3 C1          1.4590    0.0090    0.2970 c3        1 SZ3      0.170500
      4 C2          0.7550   -1.2490   -0.2390 c3        1 SZ3     -0.073900
      5 C3         -0.6990   -1.2670    0.1770 c3        1 SZ3     -0.094400
      6 C4         -1.4180   -0.0170   -0.3210 c3        1 SZ3      0.141100
      7 C5         -0.7190    1.2460    0.1720 c3        1 SZ3     -0.094400
      8 C6          0.7360    1.2570   -0.2380 c3        1 SZ3     -0.073900
      9 HN          3.3130    0.8320    0.3300 hn        1 SZ3      0.350300
     10 HNA         3.3200   -0.8010    0.2950 hn        1 SZ3      0.350300
     11 H1          1.3220    0.0080    1.4260 h1        1 SZ3      0.009700
     12 H2          0.8330   -1.2750   -1.3570 hc        1 SZ3      0.048950
     13 H2A         1.2610   -2.1670    0.1580 hc        1 SZ3      0.048950
     14 H3         -1.2060   -2.1730   -0.2430 hc        1 SZ3      0.050950
     15 H3A        -0.7870   -1.3190    1.2940 hc        1 SZ3      0.050950
     16 H4         -1.4460   -0.0170   -1.4480 h1        1 SZ3      0.034700
     17 H5         -1.2350    2.1470   -0.2500 hc        1 SZ3      0.050950
     18 H5A        -0.8080    1.3000    1.2890 hc        1 SZ3      0.050950
     19 H6          1.2260    2.1820    0.1620 hc        1 SZ3      0.048950
     20 H6A         0.8160    1.2860   -1.3560 hc        1 SZ3      0.048950
     21 HO         -3.1890    0.7240   -0.0860 ho        1 SZ3      0.398000
@<TRIPOS>BOND
     1    1    3 1   
     2    1    9 1   
     3    1   10 1   
     4    2    6 1   
     5    2   21 1   
     6    3    4 1   
     7    3    8 1   
     8    3   11 1   
     9    4    5 1   
    10    4   12 1   
    11    4   13 1   
    12    5    6 1   
    13    5   14 1   
    14    5   15 1   
    15    6    7 1   
    16    6   16 1   
    17    7    8 1   
    18    7   17 1   
    19    7   18 1   
    20    8   19 1   
    21    8   20 1   
@<TRIPOS>SUBSTRUCTURE
     1 SZ3         1 TEMP              0 ****  ****    0 ROOT
