@<TRIPOS>MOLECULE
SZ3
   22    22     1     0     0
SMALL
bcc


@<TRIPOS>ATOM
      1 N          -0.0150   -0.0650   -0.0740 n4        1 SZ3     -0.843600
      2 O           5.4380    1.0600    0.7920 oh        1 SZ3     -0.577800
      3 C1          1.4870    0.0360    0.0180 c3        1 SZ3      0.116500
      4 C2          1.9500    0.0140    1.4790 c3        1 SZ3     -0.097400
      5 C3          3.4630    0.0220    1.5240 c3        1 SZ3     -0.102400
      6 C4          4.0320    1.2390    0.7960 c3        1 SZ3      0.142100
      7 C5          3.5090    1.3200   -0.6380 c3        1 SZ3     -0.102400
      8 C6          1.9960    1.3020   -0.6800 c3        1 SZ3     -0.097400
      9 HN         -0.3320   -0.9270    0.3800 hn        1 SZ3      0.458800
     10 HNA        -0.4480    0.7360    0.3960 hn        1 SZ3      0.458800
     11 H1          1.8960   -0.8750   -0.5170 hx        1 SZ3      0.116700
     12 H2          1.5740   -0.9080    1.9970 hc        1 SZ3      0.068200
     13 H2A         1.5510    0.9100    2.0240 hc        1 SZ3      0.068200
     14 H3          3.8790   -0.9120    1.0620 hc        1 SZ3      0.083200
     15 H3A         3.8030    0.0430    2.5930 hc        1 SZ3      0.083200
     16 H4          3.7600    2.1800    1.3520 h1        1 SZ3      0.046700
     17 H5          3.9280    0.4640   -1.2300 hc        1 SZ3      0.083200
     18 H5A         3.8740    2.2670   -1.1170 hc        1 SZ3      0.083200
     19 H6          1.5940    2.2150   -0.1650 hc        1 SZ3      0.068200
     20 H6A         1.6560    1.3250   -1.7490 hc        1 SZ3      0.068200
     21 HN3        -0.3030   -0.0700   -1.0560 hn        1 SZ3      0.458800
     22 HO          5.8300    1.8850    0.4780 ho        1 SZ3      0.419000
@<TRIPOS>BOND
     1    1    3 1   
     2    1    9 1   
     3    1   10 1   
     4    1   21 1   
     5    2    6 1   
     6    2   22 1   
     7    3    4 1   
     8    3    8 1   
     9    3   11 1   
    10    4    5 1   
    11    4   12 1   
    12    4   13 1   
    13    5    6 1   
    14    5   14 1   
    15    5   15 1   
    16    6    7 1   
    17    6   16 1   
    18    7    8 1   
    19    7   17 1   
    20    7   18 1   
    21    8   19 1   
    22    8   20 1   
@<TRIPOS>SUBSTRUCTURE
     1 SZ3         1 TEMP              0 ****  ****    0 ROOT
