@<TRIPOS>MOLECULE
SZ4
   22    22     1     0     0
SMALL
bcc


@<TRIPOS>ATOM
      1 N           0.0210    0.2200   -0.0290 n4        1 SZ4     -0.844600
      2 O           2.7550    2.3270    4.0280 os        1 SZ4     -0.317900
      3 C1          1.4940   -0.0670    0.0310 c3        1 SZ4      0.173100
      4 C2          1.9680   -0.0930    1.4420 ca        1 SZ4     -0.161300
      5 C3          2.2570   -1.3120    2.0640 ca        1 SZ4     -0.133000
      6 C4          2.7380   -1.3210    3.3740 ca        1 SZ4     -0.078000
      7 C5          2.9220   -0.1300    4.0720 ca        1 SZ4     -0.155000
      8 C6          2.6260    1.0910    3.4440 ca        1 SZ4      0.149100
      9 C7          3.3080    2.3580    5.3450 c3        1 SZ4      0.106700
     10 C8          2.1500    1.1140    2.1200 ca        1 SZ4     -0.154000
     11 HN         -0.2910    0.2910   -1.0000 hn        1 SZ4      0.458800
     12 HNA        -0.1760    1.1020    0.4580 hn        1 SZ4      0.458800
     13 H1          1.6710   -1.0580   -0.4790 hx        1 SZ4      0.114200
     14 H1A         2.0190    0.7460   -0.5520 hx        1 SZ4      0.114200
     15 H3          2.1270   -2.2620    1.5240 ha        1 SZ4      0.145000
     16 H4          2.9770   -2.2800    3.8610 ha        1 SZ4      0.163000
     17 H5          3.3030   -0.1530    5.1050 ha        1 SZ4      0.166000
     18 H7          3.3440    3.4540    5.5760 h1        1 SZ4      0.061367
     19 H7A         4.3340    1.9180    5.3500 h1        1 SZ4      0.061367
     20 H7B         2.6390    1.8230    6.0610 h1        1 SZ4      0.061367
     21 H8          1.9560    2.0840    1.6400 ha        1 SZ4      0.151000
     22 HN3        -0.5000   -0.5290    0.4400 hn        1 SZ4      0.458800
@<TRIPOS>BOND
     1    1    3 1   
     2    1   11 1   
     3    1   12 1   
     4    1   22 1   
     5    2    8 1   
     6    2    9 1   
     7    3    4 1   
     8    3   13 1   
     9    3   14 1   
    10    4    5 ar  
    11    4   10 ar  
    12    5    6 ar  
    13    5   15 1   
    14    6    7 ar  
    15    6   16 1   
    16    7    8 ar  
    17    7   17 1   
    18    8   10 ar  
    19    9   18 1   
    20    9   19 1   
    21    9   20 1   
    22   10   21 1   
@<TRIPOS>SUBSTRUCTURE
     1 SZ4         1 TEMP              0 ****  ****    0 ROOT
