@<TRIPOS>MOLECULE
SZ4
   22    22     1     0     0
SMALL
bcc


@<TRIPOS>ATOM
      1 N           0.0170    0.2150   -0.0250 nz        1 SZ4     -0.844600
      2 O           2.7540    2.3290    4.0250 os        1 SZ4     -0.317900
      3 C1          1.4910   -0.0700    0.0320 c3        1 SZ4      0.173100
      4 C2          1.9680   -0.0950    1.4430 ca        1 SZ4     -0.161300
      5 C3          2.2590   -1.3130    2.0650 ca        1 SZ4     -0.133000
      6 C4          2.7420   -1.3190    3.3740 ca        1 SZ4     -0.078000
      7 C5          2.9260   -0.1270    4.0710 ca        1 SZ4     -0.155000
      8 C6          2.6260    1.0930    3.4420 ca        1 SZ4      0.149100
      9 C7          3.3090    2.3630    5.3410 c3        1 SZ4      0.106700
     10 C8          2.1480    1.1140    2.1190 ca        1 SZ4     -0.154000
     11 HN         -0.2960    0.2850   -0.9970 hn        1 SZ4      0.458800
     12 HNA        -0.1790    1.0970    0.4610 hn        1 SZ4      0.458800
     13 H1          2.0140    0.7420   -0.5520 hx        1 SZ4      0.114200
     14 H1A         1.6670   -1.0620   -0.4770 hx        1 SZ4      0.114200
     15 H3          2.1300   -2.2630    1.5260 ha        1 SZ4      0.145000
     16 H4          2.9840   -2.2780    3.8620 ha        1 SZ4      0.163000
     17 H5          3.3090   -0.1480    5.1040 ha        1 SZ4      0.166000
     18 H7          4.3370    1.9250    5.3450 h1        1 SZ4      0.061367
     19 H7A         2.6430    1.8270    6.0590 h1        1 SZ4      0.061367
     20 H7B         3.3430    3.4590    5.5710 h1        1 SZ4      0.061367
     21 H8          1.9520    2.0830    1.6380 ha        1 SZ4      0.151000
     22 HN3        -0.5020   -0.5330    0.4460 hn        1 SZ4      0.458800
@<TRIPOS>BOND
     1    1    3 1   
     2    1   11 1   
     3    1   12 1   
     4    1   22 1   
     5    2    8 1   
     6    2    9 1   
     7    3    4 1   
     8    3   13 1   
     9    3   14 1   
    10    4    5 ar  
    11    4   10 ar  
    12    5    6 ar  
    13    5   15 1   
    14    6    7 ar  
    15    6   16 1   
    16    7    8 ar  
    17    7   17 1   
    18    8   10 ar  
    19    9   18 1   
    20    9   19 1   
    21    9   20 1   
    22   10   21 1   
@<TRIPOS>SUBSTRUCTURE
     1 SZ4         1 TEMP              0 ****  ****    0 ROOT
