@<TRIPOS>MOLECULE
SZ4
   22    22     1     0     0
SMALL
bcc


@<TRIPOS>ATOM
      1 N           0.0030    0.1950   -0.0110 n4        1 SZ4     -0.844600
      2 O           2.7400    2.3340    4.0260 os        1 SZ4     -0.317900
      3 C1          1.4810   -0.0720    0.0350 c3        1 SZ4      0.173100
      4 C2          1.9670   -0.0940    1.4420 ca        1 SZ4     -0.161300
      5 C3          2.2790   -1.3090    2.0590 ca        1 SZ4     -0.133000
      6 C4          2.7710   -1.3120    3.3650 ca        1 SZ4     -0.078000
      7 C5          2.9440   -0.1200    4.0640 ca        1 SZ4     -0.155000
      8 C6          2.6240    1.0970    3.4410 ca        1 SZ4      0.149100
      9 C7          3.3040    2.3720    5.3380 c3        1 SZ4      0.106700
     10 C8          2.1370    1.1150    2.1210 ca        1 SZ4     -0.154000
     11 HN         -0.3180    0.2630   -0.9810 hn        1 SZ4      0.458800
     12 HNA        -0.2010    1.0740    0.4780 hn        1 SZ4      0.458800
     13 H1          1.9900    0.7480   -0.5510 hx        1 SZ4      0.114200
     14 H1A         1.6660   -1.0600   -0.4780 hx        1 SZ4      0.114200
     15 H3          2.1590   -2.2600    1.5190 ha        1 SZ4      0.145000
     16 H4          3.0290   -2.2690    3.8490 ha        1 SZ4      0.163000
     17 H5          3.3340   -0.1390    5.0930 ha        1 SZ4      0.166000
     18 H7          4.3370    1.9470    5.3330 h1        1 SZ4      0.061367
     19 H7A         2.6490    1.8250    6.0590 h1        1 SZ4      0.061367
     20 H7B         3.3250    3.4670    5.5710 h1        1 SZ4      0.061367
     21 H8          1.9250    2.0830    1.6430 ha        1 SZ4      0.151000
     22 HN3        -0.5030   -0.5610    0.4610 hn        1 SZ4      0.458800
@<TRIPOS>BOND
     1    1    3 1   
     2    1   11 1   
     3    1   12 1   
     4    1   22 1   
     5    2    8 1   
     6    2    9 1   
     7    3    4 1   
     8    3   13 1   
     9    3   14 1   
    10    4    5 ar  
    11    4   10 ar  
    12    5    6 ar  
    13    5   15 1   
    14    6    7 ar  
    15    6   16 1   
    16    7    8 ar  
    17    7   17 1   
    18    8   10 ar  
    19    9   18 1   
    20    9   19 1   
    21    9   20 1   
    22   10   21 1   
@<TRIPOS>SUBSTRUCTURE
     1 SZ4         1 TEMP              0 ****  ****    0 ROOT
