@<TRIPOS>MOLECULE
SZ4
   21    19     1     0     0
SMALL
bcc


@<TRIPOS>ATOM
      1 N          -2.4390   -0.2190   -2.3150 n3        1 SZ4     -0.348000
      2 O           1.0570    1.7040    1.5670 os        1 SZ4     -0.213000
      3 C1         -1.0370   -0.5490   -2.2120 c3        1 SZ4     -0.042000
      4 C2         -0.6170   -0.4830   -0.7920 c2        1 SZ4     -0.057000
      5 C3         -0.9370   -1.5510    0.0810 c1        1 SZ4     -0.144000
      6 C4         -0.4320   -1.5730    1.3570 c1        1 SZ4     -0.150500
      7 C5          0.3970   -0.5440    1.7970 c1        1 SZ4     -0.150500
      8 C6          0.7140    0.5130    0.9360 c1        1 SZ4      0.075000
      9 C7          2.4780    1.8790    1.7640 c3        1 SZ4     -0.075000
     10 C8          0.1980    0.5330   -0.3640 c2        1 SZ4     -0.154000
     11 HN         -2.5270    0.6210   -2.6150 hn        1 SZ4      0.147500
     12 HNA        -2.8320   -0.7800   -2.8850 hn        1 SZ4      0.147500
     13 H1         -0.5140    0.0820   -2.7370 h1        1 SZ4      0.075000
     14 H1A        -0.8950   -1.4380   -2.5460 h1        1 SZ4      0.075000
     15 H3         -1.5390   -2.3030   -0.2390 ha        1 SZ4      0.149000
     16 H4         -0.6710   -2.3720    2.0040 ha        1 SZ4      0.134000
     17 H5          0.7560   -0.5600    2.7090 ha        1 SZ4      0.134000
     18 H7          2.8880    1.0540    1.8120 h1        1 SZ4      0.083000
     19 H7A         2.6400    2.3920    2.6340 h1        1 SZ4      0.083000
     20 H7B         2.8510    2.3870    1.0070 h1        1 SZ4      0.083000
     21 H8          0.4600    1.2070   -0.9640 ha        1 SZ4      0.147000
@<TRIPOS>BOND
     1    1    3 1   
     2    1   11 1   
     3    1   12 1   
     4    2    8 1   
     5    2    9 1   
     6    3    4 1   
     7    3   13 1   
     8    3   14 1   
     9    4    5 1   
    10    4   10 1   
    11    5   15 1   
    12    6    7 1   
    13    6   16 1   
    14    7   17 1   
    15    8   10 1   
    16    9   18 1   
    17    9   19 1   
    18    9   20 1   
    19   10   21 1   
@<TRIPOS>SUBSTRUCTURE
     1 SZ4         1 TEMP              0 ****  ****    0 ROOT
