@<TRIPOS>MOLECULE
SZ4
   21    21     1     0     0
SMALL
bcc


@<TRIPOS>ATOM
      1 N           3.0380    1.3980   -0.4840 n3        1 SZ4     -0.916800
      2 O          -2.0720    1.1070   -0.1890 os        1 SZ4     -0.326900
      3 C1          2.6870    0.3360    0.4300 c3        1 SZ4      0.203100
      4 C2          1.2930   -0.1940    0.2530 ca        1 SZ4     -0.065300
      5 C3          1.0730   -1.5780    0.2800 ca        1 SZ4     -0.162000
      6 C4         -0.2170   -2.0830    0.1520 ca        1 SZ4     -0.098000
      7 C5         -1.3060   -1.2240   -0.0080 ca        1 SZ4     -0.203000
      8 C6         -1.0810    0.1560   -0.0350 ca        1 SZ4      0.120100
      9 C7         -3.4010    0.6140   -0.3100 c3        1 SZ4      0.113700
     10 C8          0.2190    0.6800    0.0970 ca        1 SZ4     -0.136000
     11 HN          4.0310    1.5170   -0.5090 hn        1 SZ4      0.352800
     12 HNA         2.7030    1.2110   -1.4080 hn        1 SZ4      0.352800
     13 H1          3.4090   -0.5340    0.3720 h1        1 SZ4      0.035700
     14 H1A         2.7690    0.7600    1.4750 h1        1 SZ4      0.035700
     15 H3          1.9210   -2.2670    0.4040 ha        1 SZ4      0.132000
     16 H4         -0.3860   -3.1700    0.1760 ha        1 SZ4      0.131000
     17 H5         -2.3180   -1.6380   -0.1090 ha        1 SZ4      0.136000
     18 H7         -3.6970    0.0470    0.6050 h1        1 SZ4      0.043700
     19 H7A        -4.0150    1.5440   -0.4150 h1        1 SZ4      0.043700
     20 H7B        -3.5020   -0.0280   -1.2180 h1        1 SZ4      0.043700
     21 H8          0.3680    1.7700    0.0780 ha        1 SZ4      0.164000
@<TRIPOS>BOND
     1    1    3 1   
     2    1   11 1   
     3    1   12 1   
     4    2    8 1   
     5    2    9 1   
     6    3    4 1   
     7    3   13 1   
     8    3   14 1   
     9    4    5 ar  
    10    4   10 ar  
    11    5    6 ar  
    12    5   15 1   
    13    6    7 ar  
    14    6   16 1   
    15    7    8 ar  
    16    7   17 1   
    17    8   10 ar  
    18    9   18 1   
    19    9   19 1   
    20    9   20 1   
    21   10   21 1   
@<TRIPOS>SUBSTRUCTURE
     1 SZ4         1 TEMP              0 ****  ****    0 ROOT
