@<TRIPOS>MOLECULE
SZ6
   63    66     1     0     0
SMALL
bcc


@<TRIPOS>ATOM
      1 C8          0.0730    1.0700    0.2280 c3        1 SZ6     -0.046800
      2 C2          1.4440    0.5470    0.0790 ca        1 SZ6     -0.303900
      3 C1          2.2800    0.4440    1.2180 ca        1 SZ6      0.435200
      4 N6          3.5330   -0.0310    1.1760 nb        1 SZ6     -0.668000
      5 C5          3.9730   -0.4270   -0.0630 ca        1 SZ6      0.720000
      6 Cl7         5.5730   -1.0490   -0.1540 cl        1 SZ6     -0.095000
      7 N4          3.2660   -0.3760   -1.2270 nb        1 SZ6     -0.677000
      8 C3          2.0000    0.1200   -1.1530 cp        1 SZ6      0.503800
      9 C9          1.2310    0.1880   -2.4100 cp        1 SZ6     -0.165500
     10 C14         0.5440    1.3540   -2.7660 ca        1 SZ6     -0.083000
     11 C13        -0.1720    1.4260   -3.9560 ca        1 SZ6     -0.153000
     12 C10         1.2130   -0.9040   -3.2850 ca        1 SZ6     -0.083000
     13 C11         0.5110   -0.8410   -4.4830 ca        1 SZ6     -0.153000
     14 C12        -0.2010    0.3260   -4.8420 ca        1 SZ6      0.060600
     15 N15        -0.9370    0.3900   -6.0580 n         1 SZ6     -0.385000
     16 C16        -0.8190    1.5160   -6.8960 c         1 SZ6      0.701700
     17 O19        -0.4360    2.6030   -6.4340 o         1 SZ6     -0.556100
     18 C18        -1.2210    1.4170   -8.3260 ca        1 SZ6     -0.223600
     19 C28        -2.1420    2.3530   -8.8150 ca        1 SZ6     -0.014000
     20 C29        -2.4840    2.3900  -10.1600 ca        1 SZ6     -0.250000
     21 C30        -1.8730    1.4890  -11.0500 ca        1 SZ6      0.192100
     22 O33        -2.1550    1.4640  -12.3890 oh        1 SZ6     -0.483100
     23 C31        -0.9360    0.5500  -10.5960 ca        1 SZ6     -0.251000
     24 C32        -0.6190    0.5220   -9.2320 ca        1 SZ6      0.187100
     25 O34         0.2710   -0.3960   -8.7270 oh        1 SZ6     -0.506100
     26 C17        -1.4960   -0.8420   -6.5640 c3        1 SZ6      0.127300
     27 C20        -2.4270   -1.5480   -5.6130 ca        1 SZ6     -0.025300
     28 C25        -3.4190   -0.8520   -4.9110 ca        1 SZ6     -0.113000
     29 C24        -4.2900   -1.5330   -4.0660 ca        1 SZ6     -0.092500
     30 C21        -2.3230   -2.9370   -5.4650 ca        1 SZ6     -0.113000
     31 C22        -3.1950   -3.6230   -4.6250 ca        1 SZ6     -0.092500
     32 C23        -4.1810   -2.9220   -3.9190 ca        1 SZ6     -0.209300
     33 C26        -5.0720   -3.6410   -2.9740 c3        1 SZ6      0.188100
     34 N27        -6.3360   -4.0880   -3.6800 ny        1 SZ6     -0.678800
     35 C35        -7.2520   -4.8170   -2.7550 c         1 SZ6      0.457100
     36 O37        -8.0770   -4.1860   -2.1200 o         1 SZ6     -0.356100
     37 C36        -7.0710   -6.3730   -2.6830 c3        1 SZ6      0.375900
     38 F39        -7.1050   -6.9140   -3.9410 f         1 SZ6     -0.198300
     39 F38        -5.8210   -6.6880   -2.2230 f         1 SZ6     -0.198300
     40 H81C       -0.3470    0.7930    1.2280 hc        1 SZ6      0.050700
     41 H82C        0.0760    2.1880    0.1520 hc        1 SZ6      0.050700
     42 H83C       -0.6030    0.6660   -0.5660 hc        1 SZ6      0.050700
     43 H1          1.9180    0.7610    2.2140 h4        1 SZ6      0.038100
     44 H14         0.5780    2.2360   -2.1060 ha        1 SZ6      0.149000
     45 H10         1.7760   -1.8180   -3.0380 ha        1 SZ6      0.149000
     46 H13        -0.6850    2.3670   -4.2160 ha        1 SZ6      0.148500
     47 H11         0.5360   -1.7130   -5.1530 ha        1 SZ6      0.148500
     48 H171       -0.6670   -1.5460   -6.8720 h1        1 SZ6      0.077700
     49 H172       -2.0980   -0.6160   -7.4960 h1        1 SZ6      0.077700
     50 H28        -2.5840    3.0820   -8.1140 ha        1 SZ6      0.156000
     51 H29        -3.2080    3.1300  -10.5300 ha        1 SZ6      0.150000
     52 H33        -2.7560    2.1980  -12.5900 ho        1 SZ6      0.434000
     53 H31        -0.4570   -0.1360  -11.3090 ha        1 SZ6      0.165000
     54 H34         0.7840   -0.7590   -9.4660 ho        1 SZ6      0.438000
     55 H25        -3.5030    0.2430   -5.0160 ha        1 SZ6      0.165500
     56 H21        -1.5370   -3.4910   -6.0050 ha        1 SZ6      0.165500
     57 H24        -5.0510   -0.9720   -3.5010 ha        1 SZ6      0.140500
     58 H22        -3.0880   -4.7120   -4.5000 ha        1 SZ6      0.140500
     59 H261       -4.5740   -4.5680   -2.5620 hx        1 SZ6      0.114700
     60 H262       -5.3880   -2.9750   -2.1200 hx        1 SZ6      0.114700
     61 H27        -6.8050   -3.2540   -4.0600 hn        1 SZ6      0.468800
     62 H36        -7.8910   -6.7850   -2.0150 h2        1 SZ6      0.163700
     63 H272       -6.0820   -4.7020   -4.4650 hn        1 SZ6      0.468800
@<TRIPOS>BOND
     1    1    2 1   
     2    1   40 1   
     3    1   41 1   
     4    1   42 1   
     5    2    3 ar  
     6    2    8 ar  
     7    3    4 ar  
     8    3   43 1   
     9    4    5 ar  
    10    5    6 1   
    11    5    7 ar  
    12    7    8 ar  
    13    8    9 1   
    14    9   10 ar  
    15    9   12 ar  
    16   10   11 ar  
    17   10   44 1   
    18   11   14 ar  
    19   11   46 1   
    20   12   13 ar  
    21   12   45 1   
    22   13   14 ar  
    23   13   47 1   
    24   14   15 1   
    25   15   16 1   
    26   15   26 1   
    27   16   17 2   
    28   16   18 1   
    29   18   19 ar  
    30   18   24 ar  
    31   19   20 ar  
    32   19   50 1   
    33   20   21 ar  
    34   20   51 1   
    35   21   22 1   
    36   21   23 ar  
    37   22   52 1   
    38   23   24 ar  
    39   23   53 1   
    40   24   25 1   
    41   25   54 1   
    42   26   27 1   
    43   26   48 1   
    44   26   49 1   
    45   27   28 ar  
    46   27   30 ar  
    47   28   29 ar  
    48   28   55 1   
    49   29   32 ar  
    50   29   57 1   
    51   30   31 ar  
    52   30   56 1   
    53   31   32 ar  
    54   31   58 1   
    55   32   33 1   
    56   33   34 1   
    57   33   59 1   
    58   33   60 1   
    59   34   35 1   
    60   34   61 1   
    61   34   63 1   
    62   35   36 2   
    63   35   37 1   
    64   37   38 1   
    65   37   39 1   
    66   37   62 1   
@<TRIPOS>SUBSTRUCTURE
     1 SZ6         1 TEMP              0 ****  ****    0 ROOT
