@<TRIPOS>MOLECULE
SZ6
   63    66     1     0     0
SMALL
bcc


@<TRIPOS>ATOM
      1 C8          0.0580    1.0560    0.2390 c3        1 SZ6     -0.046800
      2 C2          1.4310    0.5380    0.0900 ca        1 SZ6     -0.303900
      3 C1          2.2650    0.4340    1.2290 ca        1 SZ6      0.435200
      4 N6          3.5210   -0.0350    1.1870 nb        1 SZ6     -0.668000
      5 C5          3.9640   -0.4240   -0.0530 ca        1 SZ6      0.720000
      6 CL7         5.5670   -1.0400   -0.1450 cl        1 SZ6     -0.095000
      7 N4          3.2590   -0.3700   -1.2180 nb        1 SZ6     -0.677000
      8 C3          1.9900    0.1200   -1.1440 cp        1 SZ6      0.503800
      9 C9          1.2230    0.1910   -2.4010 cp        1 SZ6     -0.165500
     10 C14         0.5320    1.3550   -2.7530 ca        1 SZ6     -0.083000
     11 C13        -0.1820    1.4290   -3.9440 ca        1 SZ6     -0.153000
     12 C10         1.2110   -0.8980   -3.2820 ca        1 SZ6     -0.083000
     13 C11         0.5100   -0.8320   -4.4800 ca        1 SZ6     -0.153000
     14 C12        -0.2060    0.3330   -4.8350 ca        1 SZ6      0.060600
     15 N15        -0.9400    0.4000   -6.0510 n         1 SZ6     -0.385000
     16 C16        -0.8260    1.5300   -6.8850 c         1 SZ6      0.701700
     17 O19        -0.4470    2.6170   -6.4170 o         1 SZ6     -0.556100
     18 C18        -1.2260    1.4360   -8.3150 ca        1 SZ6     -0.223600
     19 C28        -2.1500    2.3710   -8.8010 ca        1 SZ6     -0.014000
     20 C29        -2.4900    2.4130  -10.1460 ca        1 SZ6     -0.250000
     21 C30        -1.8750    1.5180  -11.0390 ca        1 SZ6      0.192100
     22 O33        -2.1550    1.4990  -12.3800 oh        1 SZ6     -0.483100
     23 C31        -0.9350    0.5810  -10.5890 ca        1 SZ6     -0.251000
     24 C32        -0.6190    0.5480   -9.2250 ca        1 SZ6      0.187100
     25 O34         0.2730   -0.3690   -8.7230 oh        1 SZ6     -0.506100
     26 C17        -1.4940   -0.8320   -6.5640 c3        1 SZ6      0.127300
     27 C20        -2.4230   -1.5460   -5.6180 ca        1 SZ6     -0.025300
     28 C25        -3.4200   -0.8570   -4.9140 ca        1 SZ6     -0.113000
     29 C24        -4.2880   -1.5460   -4.0730 ca        1 SZ6     -0.092500
     30 C21        -2.3120   -2.9360   -5.4750 ca        1 SZ6     -0.113000
     31 C22        -3.1820   -3.6290   -4.6380 ca        1 SZ6     -0.092500
     32 C23        -4.1730   -2.9350   -3.9310 ca        1 SZ6     -0.209300
     33 C26        -5.0610   -3.6620   -2.9900 c3        1 SZ6      0.188100
     34 N27        -6.3220   -4.1130   -3.7000 n4        1 SZ6     -0.678800
     35 C35        -7.2360   -4.8500   -2.7780 c         1 SZ6      0.457100
     36 O37        -8.0650   -4.2250   -2.1430 o         1 SZ6     -0.356100
     37 C36        -7.0470   -6.4060   -2.7120 c3        1 SZ6      0.375900
     38 F39        -7.0770   -6.9420   -3.9720 f         1 SZ6     -0.198300
     39 F38        -5.7960   -6.7160   -2.2510 f         1 SZ6     -0.198300
     40 H81C        0.0560    2.1740    0.1680 hc        1 SZ6      0.050700
     41 H82C       -0.3630    0.7720    1.2360 hc        1 SZ6      0.050700
     42 H83C       -0.6150    0.6520   -0.5580 hc        1 SZ6      0.050700
     43 H1          1.9010    0.7460    2.2260 h4        1 SZ6      0.038100
     44 H14         0.5610    2.2340   -2.0890 ha        1 SZ6      0.149000
     45 H10         1.7770   -1.8110   -3.0370 ha        1 SZ6      0.149000
     46 H13        -0.6990    2.3690   -4.2000 ha        1 SZ6      0.148500
     47 H11         0.5400   -1.7020   -5.1540 ha        1 SZ6      0.148500
     48 H171       -0.6610   -1.5320   -6.8750 h1        1 SZ6      0.077700
     49 H172       -2.0960   -0.6050   -7.4960 h1        1 SZ6      0.077700
     50 H28        -2.5950    3.0950   -8.0970 ha        1 SZ6      0.156000
     51 H29        -3.2160    3.1520  -10.5140 ha        1 SZ6      0.150000
     52 H33        -2.7590    2.2320  -12.5770 ho        1 SZ6      0.434000
     53 H31        -0.4520   -0.0990  -11.3050 ha        1 SZ6      0.165000
     54 H34         0.7880   -0.7270   -9.4640 ho        1 SZ6      0.438000
     55 H25        -3.5080    0.2370   -5.0140 ha        1 SZ6      0.165500
     56 H21        -1.5240   -3.4840   -6.0170 ha        1 SZ6      0.165500
     57 H24        -5.0520   -0.9910   -3.5060 ha        1 SZ6      0.140500
     58 H22        -3.0710   -4.7180   -4.5180 ha        1 SZ6      0.140500
     59 H261       -5.3830   -3.0010   -2.1340 hx        1 SZ6      0.114700
     60 H262       -4.5600   -4.5880   -2.5810 hx        1 SZ6      0.114700
     61 H27        -6.0640   -4.7230   -4.4870 hn        1 SZ6      0.468800
     62 H36        -7.8660   -6.8240   -2.0470 h2        1 SZ6      0.163700
     63 H272       -6.7950   -3.2800   -4.0780 hn        1 SZ6      0.468800
@<TRIPOS>BOND
     1    1    2 1   
     2    1   40 1   
     3    1   41 1   
     4    1   42 1   
     5    2    3 ar  
     6    2    8 ar  
     7    3    4 ar  
     8    3   43 1   
     9    4    5 ar  
    10    5    6 1   
    11    5    7 ar  
    12    7    8 ar  
    13    8    9 1   
    14    9   10 ar  
    15    9   12 ar  
    16   10   11 ar  
    17   10   44 1   
    18   11   14 ar  
    19   11   46 1   
    20   12   13 ar  
    21   12   45 1   
    22   13   14 ar  
    23   13   47 1   
    24   14   15 1   
    25   15   16 1   
    26   15   26 1   
    27   16   17 2   
    28   16   18 1   
    29   18   19 ar  
    30   18   24 ar  
    31   19   20 ar  
    32   19   50 1   
    33   20   21 ar  
    34   20   51 1   
    35   21   22 1   
    36   21   23 ar  
    37   22   52 1   
    38   23   24 ar  
    39   23   53 1   
    40   24   25 1   
    41   25   54 1   
    42   26   27 1   
    43   26   48 1   
    44   26   49 1   
    45   27   28 ar  
    46   27   30 ar  
    47   28   29 ar  
    48   28   55 1   
    49   29   32 ar  
    50   29   57 1   
    51   30   31 ar  
    52   30   56 1   
    53   31   32 ar  
    54   31   58 1   
    55   32   33 1   
    56   33   34 1   
    57   33   59 1   
    58   33   60 1   
    59   34   35 1   
    60   34   61 1   
    61   34   63 1   
    62   35   36 2   
    63   35   37 1   
    64   37   38 1   
    65   37   39 1   
    66   37   62 1   
@<TRIPOS>SUBSTRUCTURE
     1 SZ6         1 TEMP              0 ****  ****    0 ROOT
