@<TRIPOS>MOLECULE
SZ8
   26    25     1     0     0
SMALL
bcc


@<TRIPOS>ATOM
      1 C1         -0.0380    0.7760    0.1680 c2        1 SZ8      0.393300
      2 N1         -0.8840    0.6870   -0.8250 nh        1 SZ8     -0.339100
      3 O1         -0.7190    1.0320    3.7890 o         1 SZ8     -0.532000
      4 C2          1.0380   -0.2500    0.4950 c3        1 SZ8      0.068500
      5 N2          1.7290    0.1870    1.7010 n3        1 SZ8     -0.707600
      6 C3          3.1690    0.2290    1.6020 c3        1 SZ8      0.138100
      7 C4          1.1100    1.4320    2.1860 c3        1 SZ8      0.125500
      8 C5          0.4790    1.1980    3.5560 c         1 SZ8      0.636100
      9 C6          0.8910    0.9950    5.8860 c3        1 SZ8      0.121700
     10 C7          0.0110    1.8760    1.1870 c3        1 SZ8     -0.211700
     11 H1          0.1410   -2.3740   -2.0290 ha        1 SZ8      0.002000
     12 HN1         0.2490   -1.8660   -1.5920 ha        1 SZ8      0.002000
     13 HN1A       -0.8640   -0.0940   -1.4610 hn        1 SZ8      0.335700
     14 H2          1.7290   -0.3980   -0.3850 h1        1 SZ8      0.121200
     15 H2A         0.5440   -1.2440    0.7230 h1        1 SZ8      0.121200
     16 H3          3.5480    0.9760    0.8530 h1        1 SZ8      0.066367
     17 H3A         3.5750    0.4870    2.6180 h1        1 SZ8      0.066367
     18 H3B         3.5330   -0.7940    1.3180 h1        1 SZ8      0.066367
     19 H4          1.8770    2.2550    2.3050 h1        1 SZ8      0.113700
     20 H6          0.1550    1.7920    6.1500 h1        1 SZ8      0.068367
     21 H6A         1.8130    1.0560    6.5160 h1        1 SZ8      0.068367
     22 H6B         0.4140   -0.0130    5.9450 h1        1 SZ8      0.068367
     23 H7         -0.9810    1.9930    1.7120 hc        1 SZ8      0.141200
     24 H7A         0.2720    2.8590    0.7120 hc        1 SZ8      0.141200
     25 O2          1.3890    1.2170    4.5570 os        1 SZ8     -0.409900
     26 H13        -1.5950    1.3800   -0.9780 hn        1 SZ8      0.335700
@<TRIPOS>BOND
     1    1    2 2   
     2    1    4 1   
     3    1   10 1   
     4    2   13 1   
     5    2   26 1   
     6    3    8 2   
     7    4    5 1   
     8    4   14 1   
     9    4   15 1   
    10    5    6 1   
    11    5    7 1   
    12    6   16 1   
    13    6   17 1   
    14    6   18 1   
    15    7    8 1   
    16    7   10 1   
    17    7   19 1   
    18    8   25 1   
    19    9   20 1   
    20    9   21 1   
    21    9   22 1   
    22    9   25 1   
    23   10   23 1   
    24   10   24 1   
    25   11   12 1   
@<TRIPOS>SUBSTRUCTURE
     1 SZ8         1 TEMP              0 ****  ****    0 ROOT
