@<TRIPOS>MOLECULE
SZ8
   26    24     1     0     0
SMALL
bcc


@<TRIPOS>ATOM
      1 C1          1.0780   -0.7430    0.1890 c2        1 SZ8      0.164000
      2 N1          0.1410   -1.5860   -0.1660 n3        1 SZ8     -0.196000
      3 O1          0.3860    0.8940    4.1090 oh        1 SZ8     -0.358000
      4 C2          1.0610    0.7380   -0.1660 c3        1 SZ8     -0.068000
      5 N2          1.6850    1.6240    0.7720 n3        1 SZ8     -0.257000
      6 C3          3.1070    1.4450    0.9510 c3        1 SZ8     -0.128000
      7 C4          0.9460    1.9100    1.9940 c3        1 SZ8     -0.018000
      8 C5          0.6060    0.6750    2.8290 c2        1 SZ8      0.310000
      9 C6         -0.2360   -1.0300    5.7490 c1        1 SZ8      0.000000
     10 C7         -0.3570    2.6770    1.7570 c3        1 SZ8     -0.215000
     11 H1         -1.1180    2.0500    1.2360 hc        1 SZ8      0.101667
     12 HN1         1.9820   -1.1420    0.7070 h4        1 SZ8      0.202000
     13 HN1A       -0.7020   -1.2860   -0.6160 hn        1 SZ8      0.270500
     14 H2         -0.0010    1.0880   -0.3300 h1        1 SZ8      0.146000
     15 H2A         1.6140    0.8200   -1.1530 h1        1 SZ8      0.146000
     16 H3          3.5970    1.3390   -0.0530 h1        1 SZ8      0.095000
     17 H3A         3.3610    0.5490    1.5810 h1        1 SZ8      0.095000
     18 H3B         3.5220    2.3620    1.4500 h1        1 SZ8      0.095000
     19 H4          1.6140    2.5670    2.6350 h1        1 SZ8      0.157000
     20 H6          0.1340    0.0110    4.6680 ho        1 SZ8      0.330000
     21 H6A         0.5210   -1.5370    6.3590 ha        1 SZ8      0.078500
     22 H6B        -1.2750   -1.2750    6.0010 ha        1 SZ8      0.078500
     23 H7         -0.7670    2.9820    2.7520 hc        1 SZ8      0.101667
     24 H7A        -0.1640    3.5930    1.1480 hc        1 SZ8      0.101667
     25 O2          0.5160   -0.4980    2.3890 o         1 SZ8     -0.502000
     26 H13         0.1890   -2.5550    0.0880 hn        1 SZ8      0.270500
@<TRIPOS>BOND
     1    1    2 1   
     2    1    4 1   
     3    1   12 1   
     4    2   13 1   
     5    2   26 1   
     6    3    8 1   
     7    3   20 1   
     8    4    5 1   
     9    4   14 1   
    10    4   15 1   
    11    5    6 1   
    12    5    7 1   
    13    6   16 1   
    14    6   17 1   
    15    6   18 1   
    16    7    8 1   
    17    7   10 1   
    18    7   19 1   
    19    8   25 1   
    20    9   21 1   
    21    9   22 1   
    22   10   11 1   
    23   10   23 1   
    24   10   24 1   
@<TRIPOS>SUBSTRUCTURE
     1 SZ8         1 TEMP              0 ****  ****    0 ROOT
