@<TRIPOS>MOLECULE
SZ8
   26    24     1     0     0
SMALL
bcc


@<TRIPOS>ATOM
      1 C1          1.0380   -0.6830    0.2250 c2        1 SZ8      0.164000
      2 N1          0.1140   -1.5560   -0.0900 n8        1 SZ8     -0.196000
      3 O1          0.4180    0.9930    4.1410 oh        1 SZ8     -0.358000
      4 C2          0.9710    0.7910   -0.1500 c3        1 SZ8     -0.068000
      5 N2          1.5990    1.7070    0.7570 n3        1 SZ8     -0.257000
      6 C3          3.0300    1.5680    0.8970 c3        1 SZ8     -0.128000
      7 C4          0.8880    1.9920    1.9950 c3        1 SZ8     -0.018000
      8 C5          0.6060    0.7610    2.8580 c2        1 SZ8      0.310000
      9 C6         -0.1050   -0.9220    5.8250 c1        1 SZ8      0.000000
     10 C7         -0.4410    2.7210    1.7860 c3        1 SZ8     -0.215000
     11 H1         -1.2000    2.0670    1.2970 hc        1 SZ8      0.101667
     12 HN1         1.9670   -1.0510    0.7220 h4        1 SZ8      0.202000
     13 HN1A       -0.7490   -1.2840   -0.5190 hn        1 SZ8      0.270500
     14 H2          1.4930    0.8730   -1.1540 h1        1 SZ8      0.146000
     15 H2A        -0.1040    1.1110   -0.2870 h1        1 SZ8      0.146000
     16 H3          3.4930    1.4600   -0.1200 h1        1 SZ8      0.095000
     17 H3A         3.3250    0.6880    1.5310 h1        1 SZ8      0.095000
     18 H3B         3.4340    2.5030    1.3700 h1        1 SZ8      0.095000
     19 H4          1.5560    2.6760    2.6070 h1        1 SZ8      0.157000
     20 H6          0.2060    0.1130    4.7190 ho        1 SZ8      0.330000
     21 H6A        -1.1290   -1.1870    6.1140 ha        1 SZ8      0.078500
     22 H6B         0.6830   -1.4010    6.4180 ha        1 SZ8      0.078500
     23 H7         -0.8300    3.0300    2.7880 hc        1 SZ8      0.101667
     24 H7A        -0.2900    3.6330    1.1590 hc        1 SZ8      0.101667
     25 O2          0.5340   -0.4200    2.4370 o         1 SZ8     -0.502000
     26 H13         0.1950   -2.5190    0.1770 hn        1 SZ8      0.270500
@<TRIPOS>BOND
     1    1    2 1   
     2    1    4 1   
     3    1   12 1   
     4    2   13 1   
     5    2   26 1   
     6    3    8 1   
     7    3   20 1   
     8    4    5 1   
     9    4   14 1   
    10    4   15 1   
    11    5    6 1   
    12    5    7 1   
    13    6   16 1   
    14    6   17 1   
    15    6   18 1   
    16    7    8 1   
    17    7   10 1   
    18    7   19 1   
    19    8   25 1   
    20    9   21 1   
    21    9   22 1   
    22   10   11 1   
    23   10   23 1   
    24   10   24 1   
@<TRIPOS>SUBSTRUCTURE
     1 SZ8         1 TEMP              0 ****  ****    0 ROOT
