@<TRIPOS>MOLECULE
SZ8
   25    25     1     0     0
SMALL
bcc


@<TRIPOS>ATOM
      1 C1         -2.2870   -0.6150   -0.5130 c3        1 SZ8      0.152500
      2 N1         -3.3230   -0.8700    0.4680 n3        1 SZ8     -0.917800
      3 O1          2.3580    0.0700    0.4790 os        1 SZ8     -0.437900
      4 C2         -1.8390    0.8800   -0.5260 c3        1 SZ8      0.166800
      5 N2         -0.5030    0.9960    0.0490 n3        1 SZ8     -0.719600
      6 C3         -0.3930    1.9110    1.1590 c3        1 SZ8      0.153100
      7 C4         -0.0000   -0.3530    0.3450 c3        1 SZ8      0.139500
      8 C5          1.3830   -0.5400   -0.2600 c         1 SZ8      0.640100
      9 C6          3.6940   -0.0290   -0.0150 c3        1 SZ8      0.124700
     10 C7         -0.9850   -1.3920   -0.2250 c3        1 SZ8     -0.088400
     11 H1         -2.6360   -0.8790   -1.5560 h1        1 SZ8      0.024700
     12 HN1        -4.1470   -0.3480    0.2470 hn        1 SZ8      0.353300
     13 HN1A       -3.5430   -1.8450    0.4990 hn        1 SZ8      0.353300
     14 H2         -1.7640    1.2210   -1.5950 h1        1 SZ8      0.053700
     15 H2A        -2.5790    1.5420    0.0010 h1        1 SZ8      0.053700
     16 H3         -1.0330    1.6330    2.0410 h1        1 SZ8      0.040700
     17 H3A         0.6800    1.9400    1.4860 h1        1 SZ8      0.040700
     18 H3B        -0.6950    2.9310    0.8040 h1        1 SZ8      0.040700
     19 H4          0.1140   -0.5140    1.4600 h1        1 SZ8      0.072700
     20 H6          4.0070   -1.1000   -0.0520 h1        1 SZ8      0.049700
     21 H6A         3.7590    0.4240   -1.0330 h1        1 SZ8      0.049700
     22 H6B         4.2960    0.5480    0.7300 h1        1 SZ8      0.049700
     23 H7         -1.1270   -2.2240    0.5050 hc        1 SZ8      0.071200
     24 H7A        -0.5890   -1.8250   -1.1790 hc        1 SZ8      0.071200
     25 O2          1.7140   -1.1680   -1.2660 o         1 SZ8     -0.541000
@<TRIPOS>BOND
     1    1    2 1   
     2    1    4 1   
     3    1   10 1   
     4    1   11 1   
     5    2   12 1   
     6    2   13 1   
     7    3    8 1   
     8    3    9 1   
     9    4    5 1   
    10    4   14 1   
    11    4   15 1   
    12    5    6 1   
    13    5    7 1   
    14    6   16 1   
    15    6   17 1   
    16    6   18 1   
    17    7    8 1   
    18    7   10 1   
    19    7   19 1   
    20    8   25 2   
    21    9   20 1   
    22    9   21 1   
    23    9   22 1   
    24   10   23 1   
    25   10   24 1   
@<TRIPOS>SUBSTRUCTURE
     1 SZ8         1 TEMP              0 ****  ****    0 ROOT
