@<TRIPOS>MOLECULE
SZ9
   20    20     1     0     0
SMALL
bcc


@<TRIPOS>ATOM
      1 N          -2.9770   -0.4770   -0.1150 n3        1 SZ9     -0.918800
      2 O           1.1650    0.8750   -0.3160 os        1 SZ9     -0.367800
      3 C2          1.7010   -0.3690    0.0440 cc        1 SZ9      0.249000
      4 C3          0.6880   -1.2260    0.4260 cd        1 SZ9     -0.256300
      5 C4         -0.5520   -0.4890    0.3050 cd        1 SZ9     -0.234600
      6 C5         -1.8840   -1.0370    0.6500 c3        1 SZ9      0.234100
      7 C6         -0.2220    0.7790   -0.1460 cc        1 SZ9      0.276000
      8 C7         -0.9940    1.9800   -0.4700 c3        1 SZ9     -0.131400
      9 HN         -2.7190   -0.3410   -1.0710 hn        1 SZ9      0.350300
     10 HNA        -3.7730   -1.0820   -0.0710 hn        1 SZ9      0.350300
     11 H1          3.6590    0.2410    0.6200 hc        1 SZ9      0.056367
     12 H1A         3.4640   -1.5310    0.2430 hc        1 SZ9      0.056367
     13 H1B         3.4950   -0.3030   -1.1020 hc        1 SZ9      0.056367
     14 H3          0.7800   -2.2560    0.7580 ha        1 SZ9      0.158000
     15 H5         -2.0970   -0.8100    1.7380 h1        1 SZ9      0.035700
     16 H5A        -1.8270   -2.1640    0.5560 h1        1 SZ9      0.035700
     17 H7         -0.3430    2.8890   -0.4490 hc        1 SZ9      0.060700
     18 H7A        -1.4390    1.8830   -1.4930 hc        1 SZ9      0.060700
     19 H7B        -1.8270    2.1040    0.2680 hc        1 SZ9      0.060700
     20 C1          3.1560   -0.4980   -0.0540 c3        1 SZ9     -0.130400
@<TRIPOS>BOND
     1    1    6 1   
     2    1    9 1   
     3    1   10 1   
     4    2    3 1   
     5    2    7 1   
     6    3    4 2   
     7    3   20 1   
     8    4    5 1   
     9    4   14 1   
    10    5    6 1   
    11    5    7 2   
    12    6   15 1   
    13    6   16 1   
    14    7    8 1   
    15    8   17 1   
    16    8   18 1   
    17    8   19 1   
    18   11   20 1   
    19   12   20 1   
    20   13   20 1   
@<TRIPOS>SUBSTRUCTURE
     1 SZ9         1 TEMP              0 ****  ****    0 ROOT
