@<TRIPOS>MOLECULE
SZ9
   21    21     1     0     0
SMALL
bcc


@<TRIPOS>ATOM
      1 N          -0.0120    0.3700   -0.0610 n4        1 SZ9     -0.848600
      2 O           2.7430   -0.1400    3.5000 os        1 SZ9     -0.332800
      3 C2          2.7460    1.2450    3.2490 cc        1 SZ9      0.311000
      4 C3          2.2610    1.4860    1.9800 cd        1 SZ9     -0.274300
      5 C4          1.9370    0.1940    1.4060 cd        1 SZ9     -0.364600
      6 C5          1.4420   -0.0150    0.0450 c3        1 SZ9      0.220100
      7 C6          2.2490   -0.7660    2.3650 cc        1 SZ9      0.359000
      8 C7          2.1890   -2.2290    2.4070 c3        1 SZ9     -0.162400
      9 HN         -0.1300    1.3410    0.2480 hn        1 SZ9      0.456467
     10 HNA        -0.3370    0.2780   -1.0260 hn        1 SZ9      0.456467
     11 H1          2.9750    3.1570    4.1400 hc        1 SZ9      0.080367
     12 H1A         2.8160    1.7710    5.3160 hc        1 SZ9      0.080367
     13 H1B         4.3640    2.0060    4.4000 hc        1 SZ9      0.080367
     14 H3          2.1660    2.4490    1.4850 ha        1 SZ9      0.170000
     15 H5          2.0060    0.6310   -0.6900 hx        1 SZ9      0.111200
     16 H5A         1.5280   -1.0970   -0.2680 hx        1 SZ9      0.111200
     17 H7          1.8030   -2.6330    1.4400 hc        1 SZ9      0.081033
     18 H7A         3.2120   -2.6500    2.5950 hc        1 SZ9      0.081033
     19 H7B         1.5230   -2.5680    3.2430 hc        1 SZ9      0.081033
     20 HN3        -0.5790   -0.2290    0.5470 hn        1 SZ9      0.456467
     21 C1          3.2480    2.0900    4.3340 c3        1 SZ9     -0.151400
@<TRIPOS>BOND
     1    1    6 1   
     2    1    9 1   
     3    1   10 1   
     4    1   20 1   
     5    2    3 1   
     6    2    7 1   
     7    3    4 2   
     8    3   21 1   
     9    4    5 1   
    10    4   14 1   
    11    5    6 1   
    12    5    7 2   
    13    6   15 1   
    14    6   16 1   
    15    7    8 1   
    16    8   17 1   
    17    8   18 1   
    18    8   19 1   
    19   11   21 1   
    20   12   21 1   
    21   13   21 1   
@<TRIPOS>SUBSTRUCTURE
     1 SZ9         1 TEMP              0 ****  ****    0 ROOT
