@<TRIPOS>MOLECULE
SZ9
   21    21     1     0     0
SMALL
bcc


@<TRIPOS>ATOM
      1 N           0.0290    0.4570    0.0750 nz        1 SZ9     -0.853600
      2 O           2.7810   -0.2440    3.6250 os        1 SZ9     -0.218200
      3 C2          2.8810    1.1770    3.4890 c2        1 SZ9      0.005900
      4 C3          2.3800    1.5710    2.1280 c3        1 SZ9      0.006000
      5 C4          1.9820    0.2420    1.5380 c2        1 SZ9     -0.409400
      6 C5          1.4970    0.1050    0.1700 c3        1 SZ9      0.225000
      7 C6          2.2570   -0.7470    2.4490 c2        1 SZ9      0.223900
      8 C7          2.1190   -2.2100    2.4080 c3        1 SZ9     -0.084900
      9 HN         -0.1170    1.4100    0.4210 hn        1 SZ9      0.453467
     10 HNA        -0.2910    0.3960   -0.8940 hn        1 SZ9      0.453467
     11 H1          1.5140    2.2750    2.2070 hc        1 SZ9      0.070700
     12 H1A         3.6990    1.4290    5.4390 ha        1 SZ9      0.155000
     13 H1B         3.4640    2.9830    4.4290 ha        1 SZ9      0.155000
     14 H3          3.1870    2.0650    1.5290 hc        1 SZ9      0.070700
     15 H5          2.0420    0.8120   -0.5230 hx        1 SZ9      0.106700
     16 H5A         1.6060   -0.9510   -0.2130 hx        1 SZ9      0.106700
     17 H7          1.6790   -2.5400    1.4370 hc        1 SZ9      0.087033
     18 H7A         3.1260   -2.6880    2.5360 hc        1 SZ9      0.087033
     19 H7B         1.4690   -2.5600    3.2520 hc        1 SZ9      0.087033
     20 HN3        -0.5220   -0.1810    0.6550 hn        1 SZ9      0.453467
     21 C1          3.3690    1.8920    4.4990 c2        1 SZ9     -0.178000
@<TRIPOS>BOND
     1    1    6 1   
     2    1    9 1   
     3    1   10 1   
     4    1   20 1   
     5    2    3 1   
     6    2    7 1   
     7    3    4 1   
     8    3   21 2   
     9    4    5 1   
    10    4   11 1   
    11    4   14 1   
    12    5    6 1   
    13    5    7 2   
    14    6   15 1   
    15    6   16 1   
    16    7    8 1   
    17    8   17 1   
    18    8   18 1   
    19    8   19 1   
    20   12   21 1   
    21   13   21 1   
@<TRIPOS>SUBSTRUCTURE
     1 SZ9         1 TEMP              0 ****  ****    0 ROOT
