@<TRIPOS>MOLECULE
SZH
   53    50     1     0     0
SMALL
bcc


@<TRIPOS>ATOM
      1 C1         -0.4220    1.3380   -1.2570 c3        1 SZH     -0.207000
      2 C2          0.9490    1.0790   -0.7600 c2        1 SZH     -0.026000
      3 C3          4.9940    5.4660   -4.3590 c3        1 SZH     -0.237000
      4 C4          5.1580    4.4060   -5.3920 c2        1 SZH      0.340000
      5 C5          1.0230    0.1840    0.4300 c3        1 SZH     -0.230000
      6 C6          0.6250    3.2430   -5.1790 c3        1 SZH     -0.193000
      7 C7          0.2620    0.7660    1.5930 c1        1 SZH      0.029000
      8 C8          2.0620    1.5910   -1.3090 c2        1 SZH     -0.228000
      9 C9          2.0970    2.5020   -2.4780 c3        1 SZH     -0.114000
     10 C10         2.0760    1.7280   -3.7830 c3        1 SZH     -0.141000
     11 C11         3.0030    3.7270   -4.8620 c1        1 SZH      0.032000
     12 C12         2.0020    2.6290   -5.0160 c3        1 SZH     -0.190000
     13 C13         6.1120    6.5380   -4.4340 c3        1 SZH      0.426000
     14 N15         9.0810    4.7980   -6.3660 n8        1 SZH     -0.262500
     15 O19         6.0870    4.2050   -6.1650 o         1 SZH     -0.279000
     16 O23        -0.3860   -0.1250    2.2840 os        1 SZH     -0.624000
     17 F25         6.0100    7.4760   -3.4380 f         1 SZH     -0.159333
     18 F26         7.3860    6.0420   -4.3180 f         1 SZH     -0.159333
     19 F27         6.1220    7.2610   -5.5990 f         1 SZH     -0.159333
     20 P28        -2.3110    3.2360    2.5610 p5        1 SZH      2.711000
     21 P29        -1.1410    0.4210    3.6880 p5        1 SZH      2.049000
     22 H1         -0.4210    1.8420   -2.2550 hc        1 SZH      0.095667
     23 H3          5.0100    4.9960   -3.3380 hc        1 SZH      0.180000
     24 H5          2.2580    1.1080    3.5070 ha        1 SZH      0.001000
     25 H5A         2.4590    0.8690    2.9050 ha        1 SZH      0.001000
     26 H5B         0.6550   -0.8380    0.1400 hc        1 SZH      0.096000
     27 H6          0.4070    3.9550   -4.3460 hc        1 SZH      0.085000
     28 H6A        -0.1480    2.4360   -5.1680 hc        1 SZH      0.085000
     29 H6B         0.5580    3.7940   -6.1470 hc        1 SZH      0.085000
     30 H7         -0.9880    0.3780   -1.3520 hc        1 SZH      0.095667
     31 H7A        -0.9690    1.9940   -0.5260 hc        1 SZH      0.095667
     32 H8          2.0860    0.0720    0.7850 hc        1 SZH      0.096000
     33 H8A         3.0480    1.3560   -0.8770 ha        1 SZH      0.112000
     34 H9          3.0290    3.1310   -2.4350 hc        1 SZH      0.082500
     35 H9A         1.2280    3.2130   -2.4470 hc        1 SZH      0.082500
     36 H10        -1.0940    0.4210   -3.8550 ha        1 SZH      0.001000
     37 H10A       -1.0560    0.3750   -4.5300 ha        1 SZH      0.001000
     38 H11         2.9960    1.0920   -3.8550 hc        1 SZH      0.093000
     39 H11A        2.2170    1.9860   -5.9180 hc        1 SZH      0.095000
     40 H12         1.1860    1.0430   -3.7950 hc        1 SZH      0.093000
     41 HN14        3.9950    5.9690   -4.4840 hc        1 SZH      0.180000
     42 HN1A        7.5170    5.8940   -6.9140 hn        1 SZH      0.130250
     43 HN15        8.4230    4.2150   -5.8600 hn        1 SZH      0.130250
     44 N14         8.4620    5.6710   -7.2100 n8        1 SZH     -0.262500
     45 O16        -2.0480    3.3890    0.9430 os        1 SZH     -0.596000
     46 O17        -2.4620    4.3880    3.4210 o         1 SZH     -1.068000
     47 O20        -3.2980    2.9980    1.2620 os        1 SZH     -0.596000
     48 O18        -2.3120   -0.4270    3.8700 o         1 SZH     -0.793500
     49 O21        -0.0700    0.7860    4.6070 o         1 SZH     -0.793500
     50 O24        -1.8030    1.8970    3.1060 os        1 SZH     -1.234000
     51 H152        9.5690    5.3480   -5.6680 hn        1 SZH      0.130250
     52 H143        8.3840    5.2180   -8.1120 hn        1 SZH      0.130250
     53 O22         4.1410    3.4510   -5.5200 os        1 SZH     -0.210000
@<TRIPOS>BOND
     1    1    2 1   
     2    1   22 1   
     3    1   30 1   
     4    1   31 1   
     5    2    5 1   
     6    2    8 1   
     7    3    4 1   
     8    3   13 1   
     9    3   23 1   
    10    3   41 1   
    11    4   15 1   
    12    4   53 1   
    13    5    7 1   
    14    5   26 1   
    15    5   32 1   
    16    6   12 1   
    17    6   27 1   
    18    6   28 1   
    19    6   29 1   
    20    7   16 1   
    21    8    9 1   
    22    8   33 1   
    23    9   10 1   
    24    9   34 1   
    25    9   35 1   
    26   10   12 1   
    27   10   38 1   
    28   10   40 1   
    29   11   12 1   
    30   11   53 1   
    31   12   39 1   
    32   13   17 1   
    33   13   18 1   
    34   13   19 1   
    35   14   43 1   
    36   14   44 1   
    37   14   51 1   
    38   16   21 1   
    39   20   45 1   
    40   20   46 1   
    41   20   47 1   
    42   20   50 1   
    43   21   48 1   
    44   21   49 1   
    45   21   50 1   
    46   24   25 1   
    47   36   37 1   
    48   42   44 1   
    49   44   52 1   
    50   45   47 1   
@<TRIPOS>SUBSTRUCTURE
     1 SZH         1 TEMP              0 ****  ****    0 ROOT
