@<TRIPOS>MOLECULE
V02
   52    54     1     0     0
SMALL
bcc


@<TRIPOS>ATOM
      1 CAA        -0.3630   -0.0720   -0.2660 c3        1 V02     -0.092100
      2 CAU         1.1150   -0.3770   -0.2250 c3        1 V02     -0.043100
      3 CAV         1.6960   -0.1410    1.1260 ca        1 V02     -0.064300
      4 CAK         1.8610    1.1670    1.6030 ca        1 V02     -0.112000
      5 CAQ         2.0820   -1.2160    1.9300 ca        1 V02     -0.107000
      6 CAY         2.6300   -1.0000    3.2030 ca        1 V02     -0.102300
      7 CAP         2.7800    0.3090    3.6690 ca        1 V02     -0.140000
      8 CAJ         2.3970    1.3850    2.8680 ca        1 V02     -0.124000
      9 CAZ         3.0040   -2.2000    4.0280 c3        1 V02      0.219000
     10 CAN         4.4040   -4.2870    3.8580 ca        1 V02     -0.129500
     11 CAH         5.4650   -5.0080    3.3160 ca        1 V02     -0.144500
     12 CAE         6.2720   -4.4370    2.3310 ca        1 V02     -0.127000
     13 CAI         6.0130   -3.1390    1.8950 ca        1 V02     -0.144500
     14 CAO         4.9520   -2.4130    2.4370 ca        1 V02     -0.129500
     15 CAX         4.1330   -2.9790    3.4240 ca        1 V02     -0.111300
     16 SAT         3.5050   -1.7660    5.7450 ss        1 V02     -0.236200
     17 CAS         5.1420   -1.1390    5.6230 c3        1 V02     -0.088300
     18 CAR         6.0770   -2.2400    6.0820 c3        1 V02      0.104800
     19 NAB         7.5230   -1.8580    5.9880 n4        1 V02     -0.841600
     20 CAG        -0.2460   -3.3440    5.6180 ca        1 V02     -0.080000
     21 CAM         0.9060   -2.6090    5.3410 ca        1 V02     -0.155000
     22 CAW         1.7700   -3.0130    4.3100 ca        1 V02     -0.060300
     23 CAL         1.4590   -4.1370    3.5410 ca        1 V02     -0.149000
     24 CAF         0.2900   -4.8610    3.8270 ca        1 V02      0.133100
     25 CAD        -0.5650   -4.4730    4.8690 ca        1 V02     -0.195000
     26 OAC         0.0530   -5.9580    3.0350 oh        1 V02     -0.491100
     27 HAA1       -0.9240   -0.7380    0.4340 hc        1 V02      0.042367
     28 HAA2       -0.7570   -0.2330   -1.2990 hc        1 V02      0.042367
     29 HAA3       -0.5550    0.9880    0.0270 hc        1 V02      0.042367
     30 HAU1        1.2840   -1.4430   -0.5340 hc        1 V02      0.052700
     31 HAU2        1.6500    0.2730   -0.9710 hc        1 V02      0.052700
     32 HAQ         1.9450   -2.2490    1.5700 ha        1 V02      0.147000
     33 HAK         1.5550    2.0180    0.9760 ha        1 V02      0.146000
     34 HAJ         2.5120    2.4130    3.2460 ha        1 V02      0.140000
     35 HAP         3.1740    0.4980    4.6800 ha        1 V02      0.133000
     36 HAN         3.7540   -4.7530    4.6180 ha        1 V02      0.158000
     37 HAO         4.7390   -1.4000    2.0560 ha        1 V02      0.158000
     38 HAH         5.6460   -6.0430    3.6460 ha        1 V02      0.148500
     39 HAE         7.0930   -5.0190    1.8830 ha        1 V02      0.148000
     40 HAI         6.6280   -2.6920    1.0990 ha        1 V02      0.148500
     41 HAS1        5.2120   -0.2430    6.2910 h1        1 V02      0.098200
     42 HAS2        5.3660   -0.8180    4.5740 h1        1 V02      0.098200
     43 HAR1        5.9250   -3.1610    5.4380 hx        1 V02      0.124200
     44 HAR2        5.8660   -2.5080    7.1580 hx        1 V02      0.124200
     45 HAB1        7.7080   -1.0320    6.5640 hn        1 V02      0.456133
     46 HAB2        7.7620   -1.6380    5.0160 hn        1 V02      0.456133
     47 HAL         2.1030   -4.4620    2.7100 ha        1 V02      0.160000
     48 HAM         1.1160   -1.6970    5.9250 ha        1 V02      0.153000
     49 HAD        -1.4770   -5.0480    5.0840 ha        1 V02      0.148000
     50 HAC        -0.7970   -6.3430    3.2980 ho        1 V02      0.430000
     51 HAB3        8.1130   -2.6300    6.3110 hn        1 V02      0.456133
     52 HAG        -0.9150   -3.0220    6.4310 ha        1 V02      0.147000
@<TRIPOS>BOND
     1    1    2 1   
     2    1   27 1   
     3    1   28 1   
     4    1   29 1   
     5    2    3 1   
     6    2   30 1   
     7    2   31 1   
     8    3    4 ar  
     9    3    5 ar  
    10    4    8 ar  
    11    4   33 1   
    12    5    6 ar  
    13    5   32 1   
    14    6    7 ar  
    15    6    9 1   
    16    7    8 ar  
    17    7   35 1   
    18    8   34 1   
    19    9   15 1   
    20    9   16 1   
    21    9   22 1   
    22   10   11 ar  
    23   10   15 ar  
    24   10   36 1   
    25   11   12 ar  
    26   11   38 1   
    27   12   13 ar  
    28   12   39 1   
    29   13   14 ar  
    30   13   40 1   
    31   14   15 ar  
    32   14   37 1   
    33   16   17 1   
    34   17   18 1   
    35   17   41 1   
    36   17   42 1   
    37   18   19 1   
    38   18   43 1   
    39   18   44 1   
    40   19   45 1   
    41   19   46 1   
    42   19   51 1   
    43   20   21 ar  
    44   20   25 ar  
    45   20   52 1   
    46   21   22 ar  
    47   21   48 1   
    48   22   23 ar  
    49   23   24 ar  
    50   23   47 1   
    51   24   25 ar  
    52   24   26 1   
    53   25   49 1   
    54   26   50 1   
@<TRIPOS>SUBSTRUCTURE
     1 V02         1 TEMP              0 ****  ****    0 ROOT
