@<TRIPOS>MOLECULE
V02
   51    53     1     0     0
SMALL
bcc


@<TRIPOS>ATOM
      1 CAA        -3.5270   -4.0040    0.8250 c3        1 V02     -0.090100
      2 CAU        -2.1920   -3.6930    1.4600 c3        1 V02     -0.037100
      3 CAV        -1.2350   -3.1020    0.4840 ca        1 V02     -0.080300
      4 CAK        -0.6570   -3.9050   -0.5080 ca        1 V02     -0.122000
      5 CAQ        -0.9000   -1.7480    0.5500 ca        1 V02     -0.112000
      6 CAY         0.0070   -1.1850   -0.3600 ca        1 V02     -0.083300
      7 CAP         0.5650   -1.9960   -1.3530 ca        1 V02     -0.123000
      8 CAJ         0.2350   -3.3500   -1.4210 ca        1 V02     -0.128000
      9 CAZ         0.3070    0.2880   -0.2830 c3        1 V02      0.203000
     10 CAN         0.5290    2.1060    1.4430 ca        1 V02     -0.116500
     11 CAH         0.8770    2.5510    2.7160 ca        1 V02     -0.136000
     12 CAE         1.3510    1.6510    3.6710 ca        1 V02     -0.125000
     13 CAI         1.4780    0.3030    3.3420 ca        1 V02     -0.136000
     14 CAO         1.1290   -0.1470    2.0690 ca        1 V02     -0.116500
     15 CAX         0.6420    0.7470    1.1050 ca        1 V02     -0.091300
     16 SAT         1.7140    0.7910   -1.3370 ss        1 V02     -0.316200
     17 CAS         3.1500    0.0630   -0.6000 c3        1 V02     -0.023300
     18 CAR         4.3440    0.8360   -1.1420 c3        1 V02      0.167800
     19 NAB         5.6100    0.2990   -0.6970 n3        1 V02     -0.913800
     20 CAG        -2.0050    1.9240   -2.8290 ca        1 V02     -0.098000
     21 CAM        -0.9130    1.2610   -2.2670 ca        1 V02     -0.146000
     22 CAW        -0.8610    1.0270   -0.8880 ca        1 V02     -0.030300
     23 CAL        -1.9250    1.4440   -0.0790 ca        1 V02     -0.201000
     24 CAF        -3.0170    2.1020   -0.6570 ca        1 V02      0.120100
     25 CAD        -3.0650    2.3530   -2.0380 ca        1 V02     -0.151000
     26 OAC        -4.0920    2.5390    0.0840 oh        1 V02     -0.498100
     27 HAA1       -4.0060   -3.0740    0.4370 hc        1 V02      0.037033
     28 HAA2       -3.3990   -4.7150   -0.0270 hc        1 V02      0.037033
     29 HAA3       -4.2090   -4.4680    1.5770 hc        1 V02      0.037033
     30 HAU1       -2.3460   -2.9880    2.3210 hc        1 V02      0.045700
     31 HAU2       -1.7510   -4.6370    1.8800 hc        1 V02      0.045700
     32 HAQ        -1.3530   -1.1070    1.3240 ha        1 V02      0.136000
     33 HAK        -0.9160   -4.9720   -0.5640 ha        1 V02      0.133000
     34 HAJ         0.6830   -3.9790   -2.2040 ha        1 V02      0.134000
     35 HAP         1.2610   -1.5610   -2.0900 ha        1 V02      0.155000
     36 HAN         0.1700    2.8250    0.6900 ha        1 V02      0.148000
     37 HAO         1.2380   -1.2160    1.8250 ha        1 V02      0.148000
     38 HAH         0.7820    3.6190    2.9650 ha        1 V02      0.134500
     39 HAE         1.6240    2.0050    4.6750 ha        1 V02      0.133000
     40 HAI         1.8550   -0.4130    4.0870 ha        1 V02      0.134500
     41 HAS1        3.1000    0.1270    0.5150 h1        1 V02      0.073200
     42 HAS2        3.2160   -1.0180   -0.8770 h1        1 V02      0.073200
     43 HAR1        4.3350    0.7780   -2.2690 h1        1 V02      0.039200
     44 HAR2        4.2120    1.9240   -0.8620 h1        1 V02      0.039200
     45 HAB1        6.3590    0.8840   -1.0080 hn        1 V02      0.349800
     46 HAB2        5.6390    0.2290    0.3010 hn        1 V02      0.349800
     47 HAL        -1.9050    1.2520    1.0050 ha        1 V02      0.141000
     48 HAM        -0.0940    0.9170   -2.9220 ha        1 V02      0.157000
     49 HAD        -3.9320    2.8740   -2.4680 ha        1 V02      0.151000
     50 HAC        -3.9370    2.2940    1.0070 ho        1 V02      0.418000
     51 HAG        -2.0280    2.1070   -3.9140 ha        1 V02      0.137000
@<TRIPOS>BOND
     1    1    2 1   
     2    1   27 1   
     3    1   28 1   
     4    1   29 1   
     5    2    3 1   
     6    2   30 1   
     7    2   31 1   
     8    3    4 ar  
     9    3    5 ar  
    10    4    8 ar  
    11    4   33 1   
    12    5    6 ar  
    13    5   32 1   
    14    6    7 ar  
    15    6    9 1   
    16    7    8 ar  
    17    7   35 1   
    18    8   34 1   
    19    9   15 1   
    20    9   16 1   
    21    9   22 1   
    22   10   11 ar  
    23   10   15 ar  
    24   10   36 1   
    25   11   12 ar  
    26   11   38 1   
    27   12   13 ar  
    28   12   39 1   
    29   13   14 ar  
    30   13   40 1   
    31   14   15 ar  
    32   14   37 1   
    33   16   17 1   
    34   17   18 1   
    35   17   41 1   
    36   17   42 1   
    37   18   19 1   
    38   18   43 1   
    39   18   44 1   
    40   19   45 1   
    41   19   46 1   
    42   20   21 ar  
    43   20   25 ar  
    44   20   51 1   
    45   21   22 ar  
    46   21   48 1   
    47   22   23 ar  
    48   23   24 ar  
    49   23   47 1   
    50   24   25 ar  
    51   24   26 1   
    52   25   49 1   
    53   26   50 1   
@<TRIPOS>SUBSTRUCTURE
     1 V02         1 TEMP              0 ****  ****    0 ROOT
