@<TRIPOS>MOLECULE
V02
   51    46     1     0     0
SMALL
bcc


@<TRIPOS>ATOM
      1 CAA        -3.2790   -4.4150   -1.7010 c3        1 V02     -0.208000
      2 CAU        -2.7100   -3.1730   -2.3640 c3        1 V02     -0.124000
      3 CAV        -2.6010   -2.0480   -1.3320 c2        1 V02     -0.072000
      4 CAK        -3.7430   -1.5790   -0.7010 c2        1 V02     -0.122000
      5 CAQ        -1.3770   -1.4130   -1.1200 c1        1 V02     -0.116000
      6 CAY        -1.3040   -0.3070   -0.2740 c1        1 V02     -0.067500
      7 CAP        -2.4520    0.1610    0.3570 c1        1 V02     -0.121000
      8 CAJ        -3.6680   -0.4700    0.1460 c1        1 V02     -0.131000
      9 CAZ         0.0290    0.3370    0.0190 c3        1 V02      0.003000
     10 CAN         1.2800    2.4040   -0.3800 c1        1 V02     -0.121000
     11 CAH         1.5160    3.6690   -0.9150 c1        1 V02     -0.133667
     12 CAE         0.5750    4.2520   -1.7740 c1        1 V02     -0.133667
     13 CAI        -0.5830    3.5750   -2.0910 c1        1 V02     -0.133667
     14 CAO        -0.8200    2.3000   -1.5520 c1        1 V02     -0.133667
     15 CAX         0.1110    1.7200   -0.7000 c1        1 V02     -0.067500
     16 SAT         1.3550   -0.7260   -0.5770 ss        1 V02      0.046000
     17 CAS         2.9700    0.0110   -0.1390 c3        1 V02     -0.285000
     18 CAR         4.0760   -0.9810   -0.4400 c3        1 V02     -0.068000
     19 NAB         4.9580   -0.4290   -1.4290 n3        1 V02     -0.345000
     20 CAG        -0.3060    1.7960    3.5020 c1        1 V02     -0.133667
     21 CAM        -0.3950    1.6470    2.1220 c1        1 V02     -0.155000
     22 CAW         0.1740    0.5310    1.5030 c2        1 V02     -0.048000
     23 CAL         0.8290   -0.4280    2.2690 c2        1 V02     -0.146000
     24 CAF         0.9170   -0.2750    3.6550 c1        1 V02      0.074000
     25 CAD         0.3510    0.8330    4.2680 c1        1 V02     -0.133667
     26 OAC         1.5860   -1.2230    4.4160 oh        1 V02     -0.250000
     27 HAA1       -3.5030   -5.0820   -2.3910 hc        1 V02      0.076333
     28 HAA2       -2.6200   -4.7880   -1.0930 hc        1 V02      0.076333
     29 HAA3       -4.0950   -4.1760   -1.1970 hc        1 V02      0.076333
     30 HAU1       -1.8090   -3.3750   -2.7290 hc        1 V02      0.086500
     31 HAU2       -3.2980   -2.8940   -3.0880 hc        1 V02      0.086500
     32 HAQ        -0.5490   -1.7520   -1.5760 ha        1 V02      0.157000
     33 HAK        -4.5950   -2.0200   -0.8480 ha        1 V02      0.132000
     34 HAJ        -4.4840   -0.1360    0.5960 ha        1 V02      0.132000
     35 HAP        -2.4020    0.9170    0.9350 ha        1 V02      0.140000
     36 HAN         1.9330    1.9980    0.2160 ha        1 V02      0.140000
     37 HAO        -1.6240    1.8300   -1.7730 ha        1 V02      0.135667
     38 HAH         2.3290    4.1450   -0.6920 ha        1 V02      0.135667
     39 HAE         0.7420    5.1500   -2.1540 ha        1 V02      0.135667
     40 HAI        -1.2520    3.9910   -2.7030 ha        1 V02      0.135667
     41 HAS1        2.9810    0.2370    0.8360 h1        1 V02      0.111500
     42 HAS2        3.1100    0.8200   -0.6610 h1        1 V02      0.111500
     43 HAR1        3.6790   -1.8250   -0.7850 h1        1 V02      0.078500
     44 HAR2        4.5800   -1.1690    0.3810 h1        1 V02      0.078500
     45 HAB1        5.7510   -0.2060   -1.0380 hn        1 V02      0.145000
     46 HAB2        5.1030   -1.0360   -2.0750 hn        1 V02      0.145000
     47 HAL         1.2420   -1.2370    1.8220 ha        1 V02      0.175000
     48 HAM        -0.8570    2.3250    1.5850 ha        1 V02      0.148000
     49 HAD         0.4130    0.9390    5.2460 ha        1 V02      0.135667
     50 HAC         2.4380   -0.9980    4.4840 ho        1 V02      0.217000
     51 HAG        -0.7010    2.5700    3.9320 ha        1 V02      0.135667
@<TRIPOS>BOND
     1    1    2 1   
     2    1   27 1   
     3    1   28 1   
     4    1   29 1   
     5    2    3 1   
     6    2   30 1   
     7    2   31 1   
     8    3    4 1   
     9    3    5 1   
    10    4    8 1   
    11    4   33 1   
    12    5   32 1   
    13    6    7 1   
    14    6    9 1   
    15    7   35 1   
    16    8   34 1   
    17    9   15 1   
    18    9   16 1   
    19    9   22 1   
    20   10   15 1   
    21   10   36 1   
    22   11   12 1   
    23   11   38 1   
    24   12   39 1   
    25   13   14 1   
    26   13   40 1   
    27   14   37 1   
    28   16   17 1   
    29   17   18 1   
    30   17   41 1   
    31   17   42 1   
    32   18   19 1   
    33   18   43 1   
    34   18   44 1   
    35   19   45 1   
    36   19   46 1   
    37   20   25 1   
    38   20   51 1   
    39   21   22 1   
    40   21   48 1   
    41   22   23 1   
    42   23   24 1   
    43   23   47 1   
    44   24   26 1   
    45   25   49 1   
    46   26   50 1   
@<TRIPOS>SUBSTRUCTURE
     1 V02         1 TEMP              0 ****  ****    0 ROOT
