@<TRIPOS>MOLECULE
V02
   52    54     1     0     0
SMALL
bcc


@<TRIPOS>ATOM
      1 CAA        -0.3910   -0.0240   -0.2100 c3        1 V02     -0.092100
      2 CAU         1.0870   -0.3370   -0.1890 c3        1 V02     -0.043100
      3 CAV         1.6850   -0.1150    1.1570 ca        1 V02     -0.064300
      4 CAK         1.8640    1.1880    1.6410 ca        1 V02     -0.112000
      5 CAQ         2.0720   -1.1990    1.9480 ca        1 V02     -0.107000
      6 CAY         2.6370   -0.9960    3.2170 ca        1 V02     -0.102300
      7 CAP         2.8010    0.3080    3.6900 ca        1 V02     -0.140000
      8 CAJ         2.4160    1.3930    2.9020 ca        1 V02     -0.124000
      9 CAZ         3.0110   -2.2040    4.0290 c3        1 V02      0.219000
     10 CAN         4.3930   -4.3010    3.8270 ca        1 V02     -0.129500
     11 CAH         5.4410   -5.0270    3.2670 ca        1 V02     -0.144500
     12 CAE         6.2410   -4.4550    2.2760 ca        1 V02     -0.127000
     13 CAI         5.9870   -3.1520    1.8520 ca        1 V02     -0.144500
     14 CAO         4.9380   -2.4220    2.4120 ca        1 V02     -0.129500
     15 CAX         4.1270   -2.9870    3.4050 ca        1 V02     -0.111300
     16 SAT         3.5380   -1.7860    5.7420 ss        1 V02     -0.236200
     17 CAS         5.1770   -1.1700    5.6040 c3        1 V02     -0.088300
     18 CAR         6.1110   -2.2810    6.0410 c3        1 V02      0.104800
     19 NAB         7.5580   -1.9080    5.9310 nz        1 V02     -0.841600
     20 CAG        -0.2270   -3.3350    5.6510 ca        1 V02     -0.080000
     21 CAM         0.9280   -2.6070    5.3650 ca        1 V02     -0.155000
     22 CAW         1.7740   -3.0100    4.3200 ca        1 V02     -0.060300
     23 CAL         1.4460   -4.1250    3.5470 ca        1 V02     -0.149000
     24 CAF         0.2750   -4.8430    3.8430 ca        1 V02      0.133100
     25 CAD        -0.5640   -4.4560    4.8980 ca        1 V02     -0.195000
     26 OAC         0.0190   -5.9330    3.0460 oh        1 V02     -0.491100
     27 HAA1       -0.7970   -0.1740   -1.2390 hc        1 V02      0.042367
     28 HAA2       -0.5730    1.0350    0.0930 hc        1 V02      0.042367
     29 HAA3       -0.9470   -0.6920    0.4910 hc        1 V02      0.042367
     30 HAU1        1.6160    0.3160   -0.9360 hc        1 V02      0.052700
     31 HAU2        1.2460   -1.4020   -0.5090 hc        1 V02      0.052700
     32 HAQ         1.9240   -2.2280    1.5820 ha        1 V02      0.147000
     33 HAK         1.5560    2.0460    1.0240 ha        1 V02      0.146000
     34 HAJ         2.5430    2.4170    3.2860 ha        1 V02      0.140000
     35 HAP         3.2080    0.4870    4.6980 ha        1 V02      0.133000
     36 HAN         3.7480   -4.7680    4.5910 ha        1 V02      0.158000
     37 HAO         4.7280   -1.4050    2.0410 ha        1 V02      0.158000
     38 HAH         5.6190   -6.0650    3.5870 ha        1 V02      0.148500
     39 HAE         7.0510   -5.0400    1.8140 ha        1 V02      0.148000
     40 HAI         6.5950   -2.7030    1.0510 ha        1 V02      0.148500
     41 HAS1        5.2620   -0.2800    6.2770 h1        1 V02      0.098200
     42 HAS2        5.3890   -0.8430    4.5530 h1        1 V02      0.098200
     43 HAR1        5.9430   -3.1960    5.3930 hx        1 V02      0.124200
     44 HAR2        5.9120   -2.5550    7.1190 hx        1 V02      0.124200
     45 HAB1        7.7560   -1.0870    6.5110 hn        1 V02      0.456133
     46 HAB2        8.1470   -2.6860    6.2400 hn        1 V02      0.456133
     47 HAL         2.0760   -4.4500    2.7060 ha        1 V02      0.160000
     48 HAM         1.1520   -1.7010    5.9530 ha        1 V02      0.153000
     49 HAD        -1.4780   -5.0260    5.1200 ha        1 V02      0.148000
     50 HAC        -0.8310   -6.3130    3.3170 ho        1 V02      0.430000
     51 HAB3        7.7850   -1.6820    4.9580 hn        1 V02      0.456133
     52 HAG        -0.8830   -3.0140    6.4750 ha        1 V02      0.147000
@<TRIPOS>BOND
     1    1    2 1   
     2    1   27 1   
     3    1   28 1   
     4    1   29 1   
     5    2    3 1   
     6    2   30 1   
     7    2   31 1   
     8    3    4 ar  
     9    3    5 ar  
    10    4    8 ar  
    11    4   33 1   
    12    5    6 ar  
    13    5   32 1   
    14    6    7 ar  
    15    6    9 1   
    16    7    8 ar  
    17    7   35 1   
    18    8   34 1   
    19    9   15 1   
    20    9   16 1   
    21    9   22 1   
    22   10   11 ar  
    23   10   15 ar  
    24   10   36 1   
    25   11   12 ar  
    26   11   38 1   
    27   12   13 ar  
    28   12   39 1   
    29   13   14 ar  
    30   13   40 1   
    31   14   15 ar  
    32   14   37 1   
    33   16   17 1   
    34   17   18 1   
    35   17   41 1   
    36   17   42 1   
    37   18   19 1   
    38   18   43 1   
    39   18   44 1   
    40   19   45 1   
    41   19   46 1   
    42   19   51 1   
    43   20   21 ar  
    44   20   25 ar  
    45   20   52 1   
    46   21   22 ar  
    47   21   48 1   
    48   22   23 ar  
    49   23   24 ar  
    50   23   47 1   
    51   24   25 ar  
    52   24   26 1   
    53   25   49 1   
    54   26   50 1   
@<TRIPOS>SUBSTRUCTURE
     1 V02         1 TEMP              0 ****  ****    0 ROOT
