@<TRIPOS>MOLECULE
V02
   52    54     1     0     0
SMALL
bcc


@<TRIPOS>ATOM
      1 CAA        -0.3610    0.0200   -0.2120 c3        1 V02     -0.092100
      2 CAU         1.1170   -0.2890   -0.1800 c3        1 V02     -0.043100
      3 CAV         1.7000   -0.0860    1.1750 ca        1 V02     -0.064300
      4 CAK         1.8700    1.2100    1.6810 ca        1 V02     -0.112000
      5 CAQ         2.0840   -1.1800    1.9540 ca        1 V02     -0.107000
      6 CAY         2.6350   -0.9950    3.2310 ca        1 V02     -0.102300
      7 CAP         2.7890    0.3020    3.7260 ca        1 V02     -0.140000
      8 CAJ         2.4080    1.3980    2.9510 ca        1 V02     -0.124000
      9 CAZ         3.0050   -2.2140    4.0280 c3        1 V02      0.219000
     10 CAN         4.3930   -4.3050    3.8070 ca        1 V02     -0.129500
     11 CAH         5.4480   -5.0200    3.2450 ca        1 V02     -0.144500
     12 CAE         6.2550   -4.4310    2.2690 ca        1 V02     -0.127000
     13 CAI         6.0010   -3.1230    1.8630 ca        1 V02     -0.144500
     14 CAO         4.9460   -2.4030    2.4250 ca        1 V02     -0.129500
     15 CAX         4.1280   -2.9860    3.4030 ca        1 V02     -0.111300
     16 SAT         3.5170   -1.8200    5.7520 ss        1 V02     -0.236200
     17 CAS         5.1550   -1.1970    5.6360 c3        1 V02     -0.088300
     18 CAR         6.0890   -2.3120    6.0640 c3        1 V02      0.104800
     19 NAB         7.5350   -1.9330    5.9710 n4        1 V02     -0.841600
     20 CAG        -0.2430   -3.3760    5.6060 ca        1 V02     -0.080000
     21 CAM         0.9120   -2.6420    5.3410 ca        1 V02     -0.155000
     22 CAW         1.7680   -3.0270    4.2980 ca        1 V02     -0.060300
     23 CAL         1.4480   -4.1310    3.5050 ca        1 V02     -0.149000
     24 CAF         0.2770   -4.8560    3.7800 ca        1 V02      0.133100
     25 CAD        -0.5720   -4.4870    4.8340 ca        1 V02     -0.195000
     26 OAC         0.0300   -5.9340    2.9650 oh        1 V02     -0.491100
     27 HAA1       -0.7550   -0.1160   -1.2480 hc        1 V02      0.042367
     28 HAA2       -0.5490    1.0740    0.1050 hc        1 V02      0.042367
     29 HAA3       -0.9220   -0.6600    0.4730 hc        1 V02      0.042367
     30 HAU1        1.6530    0.3760   -0.9120 hc        1 V02      0.052700
     31 HAU2        1.2830   -1.3490   -0.5140 hc        1 V02      0.052700
     32 HAQ         1.9430   -2.2040    1.5710 ha        1 V02      0.147000
     33 HAK         1.5650    2.0760    1.0740 ha        1 V02      0.146000
     34 HAJ         2.5270    2.4160    3.3520 ha        1 V02      0.140000
     35 HAP         3.1850    0.4680    4.7400 ha        1 V02      0.133000
     36 HAN         3.7440   -4.7840    4.5590 ha        1 V02      0.158000
     37 HAO         4.7370   -1.3810    2.0670 ha        1 V02      0.158000
     38 HAH         5.6250   -6.0620    3.5510 ha        1 V02      0.148500
     39 HAE         7.0700   -5.0080    1.8060 ha        1 V02      0.148000
     40 HAI         6.6150   -2.6610    1.0740 ha        1 V02      0.148500
     41 HAS1        5.3750   -0.8530    4.5930 h1        1 V02      0.098200
     42 HAS2        5.2310   -0.3170    6.3230 h1        1 V02      0.098200
     43 HAR1        5.9290   -3.2180    5.4010 hx        1 V02      0.124200
     44 HAR2        5.8820   -2.6030    7.1360 hx        1 V02      0.124200
     45 HAB1        7.7700   -1.6920    5.0030 hn        1 V02      0.456133
     46 HAB2        8.1240   -2.7150    6.2730 hn        1 V02      0.456133
     47 HAL         2.0860   -4.4410    2.6640 ha        1 V02      0.160000
     48 HAM         1.1290   -1.7440    5.9440 ha        1 V02      0.153000
     49 HAD        -1.4860   -5.0620    5.0400 ha        1 V02      0.148000
     50 HAC        -0.8210   -6.3200    3.2230 ho        1 V02      0.430000
     51 HAB3        7.7260   -1.1210    6.5650 hn        1 V02      0.456133
     52 HAG        -0.9070   -3.0690    6.4300 ha        1 V02      0.147000
@<TRIPOS>BOND
     1    1    2 1   
     2    1   27 1   
     3    1   28 1   
     4    1   29 1   
     5    2    3 1   
     6    2   30 1   
     7    2   31 1   
     8    3    4 ar  
     9    3    5 ar  
    10    4    8 ar  
    11    4   33 1   
    12    5    6 ar  
    13    5   32 1   
    14    6    7 ar  
    15    6    9 1   
    16    7    8 ar  
    17    7   35 1   
    18    8   34 1   
    19    9   15 1   
    20    9   16 1   
    21    9   22 1   
    22   10   11 ar  
    23   10   15 ar  
    24   10   36 1   
    25   11   12 ar  
    26   11   38 1   
    27   12   13 ar  
    28   12   39 1   
    29   13   14 ar  
    30   13   40 1   
    31   14   15 ar  
    32   14   37 1   
    33   16   17 1   
    34   17   18 1   
    35   17   41 1   
    36   17   42 1   
    37   18   19 1   
    38   18   43 1   
    39   18   44 1   
    40   19   45 1   
    41   19   46 1   
    42   19   51 1   
    43   20   21 ar  
    44   20   25 ar  
    45   20   52 1   
    46   21   22 ar  
    47   21   48 1   
    48   22   23 ar  
    49   23   24 ar  
    50   23   47 1   
    51   24   25 ar  
    52   24   26 1   
    53   25   49 1   
    54   26   50 1   
@<TRIPOS>SUBSTRUCTURE
     1 V02         1 TEMP              0 ****  ****    0 ROOT
