@<TRIPOS>MOLECULE
V04
   40    42     1     0     0
SMALL
bcc


@<TRIPOS>ATOM
      1 C1         -0.3290    0.3250   -0.7800 ca        1 V04     -0.330600
      2 F1         -4.6090    0.2940    1.2610 f         1 V04     -0.120900
      3 I1         -5.6590    4.2930    4.6450 i         1 V04     -0.078900
      4 N1          1.2690    0.1390    3.0610 na        1 V04      0.020900
      5 O1         -2.0530    0.6740   -2.4690 o         1 V04     -0.494100
      6 C2          0.9280   -0.3370   -0.6130 ca        1 V04     -0.042000
      7 N2          0.3270    0.7410    3.8050 nc        1 V04     -0.493100
      8 O2          0.2880   -0.9760   -3.5620 os        1 V04     -0.212100
      9 C3          1.5660   -0.4590    0.5880 ca        1 V04     -0.161000
     10 O3          0.2870    0.5400   -6.0870 oh        1 V04     -0.653800
     11 C4         -1.0310    0.8550    0.3670 ca        1 V04      0.390600
     12 N4          0.0550    0.3410   -3.3010 n4        1 V04     -0.464300
     13 C5         -0.3650    0.7430    1.6140 ca        1 V04     -0.316900
     14 C6          0.9190    0.0970    1.7200 ca        1 V04      0.026800
     15 C7         -0.6750    1.1200    2.9870 cd        1 V04      0.393800
     16 C8         -2.9810    2.0720    1.2820 ca        1 V04      0.055600
     17 C9         -2.5950    3.3200    1.8080 ca        1 V04     -0.104000
     18 C10        -3.3700    3.9500    2.7770 ca        1 V04     -0.104000
     19 C11        -4.5480    3.3610    3.2410 ca        1 V04      0.055900
     20 C12        -4.9590    2.1340    2.7330 ca        1 V04     -0.121000
     21 C13        -4.1870    1.4800    1.7550 ca        1 V04      0.127900
     22 C14        -0.9120    0.4400   -2.0810 c         1 V04      0.614700
     23 C15         1.0090   -1.2880   -4.7820 c3        1 V04      0.090400
     24 C16         0.2400   -0.8790   -6.0280 c3        1 V04      0.087400
     25 H2          1.3990   -0.8180   -1.4880 ha        1 V04      0.135000
     26 H3          2.5270   -0.9810    0.6880 ha        1 V04      0.165000
     27 HN3        -2.7790    1.3110   -0.5990 hn        1 V04      0.474800
     28 HO3         0.0180    0.8090   -6.9740 ho        1 V04      0.450000
     29 HN4         0.9430    0.8210   -3.0940 hn        1 V04      0.462300
     30 H7         -1.5670    1.6310    3.3580 h4        1 V04      0.075800
     31 H9         -1.6720    3.8070    1.4530 ha        1 V04      0.157000
     32 H10        -3.0420    4.9280    3.1700 ha        1 V04      0.168000
     33 H12        -5.8880    1.6490    3.0790 ha        1 V04      0.180000
     34 H15         2.0270   -0.8210   -4.7520 h1        1 V04      0.108200
     35 H15A        1.0750   -2.4100   -4.6990 h1        1 V04      0.108200
     36 H16         0.7300   -1.3350   -6.9290 h1        1 V04      0.075200
     37 H16A       -0.8300   -1.2150   -5.9680 h1        1 V04      0.075200
     38 HN1         2.0920   -0.2280    3.4860 hn        1 V04      0.347700
     39 N3         -2.2460    1.4610    0.2360 nh        1 V04     -0.613000
     40 H42        -0.4030    0.7930   -4.1210 hn        1 V04      0.462300
@<TRIPOS>BOND
     1    1    6 ar  
     2    1   11 ar  
     3    1   22 1   
     4    2   21 1   
     5    3   19 1   
     6    4    7 1   
     7    4   14 1   
     8    4   38 1   
     9    5   22 2   
    10    6    9 ar  
    11    6   25 1   
    12    7   15 2   
    13    8   12 1   
    14    8   23 1   
    15    9   14 ar  
    16    9   26 1   
    17   10   24 1   
    18   10   28 1   
    19   11   13 ar  
    20   11   39 1   
    21   12   22 1   
    22   12   29 1   
    23   12   40 1   
    24   13   14 ar  
    25   13   15 1   
    26   15   30 1   
    27   16   17 ar  
    28   16   21 ar  
    29   16   39 1   
    30   17   18 ar  
    31   17   31 1   
    32   18   19 ar  
    33   18   32 1   
    34   19   20 ar  
    35   20   21 ar  
    36   20   33 1   
    37   23   24 1   
    38   23   34 1   
    39   23   35 1   
    40   24   36 1   
    41   24   37 1   
    42   27   39 1   
@<TRIPOS>SUBSTRUCTURE
     1 V04         1 TEMP              0 ****  ****    0 ROOT
