@<TRIPOS>MOLECULE
V04
   39    41     1     0     0
SMALL
bcc


@<TRIPOS>ATOM
      1 C1         -3.2380    0.0250    0.2370 ca        1 V04     -0.256600
      2 F1          0.6790   -0.0340   -3.0100 f         1 V04     -0.132900
      3 I1          4.9100    1.9470   -0.4260 i         1 V04     -0.128900
      4 N1         -3.2190    4.0270    1.3440 na        1 V04     -0.022100
      5 O1         -2.8970   -1.7610   -1.3350 o         1 V04     -0.573100
      6 C2         -4.3470    0.4860    0.9780 ca        1 V04     -0.038000
      7 N2         -2.0820    4.4770    0.7900 nc        1 V04     -0.509100
      8 O2         -3.2790   -3.6100    0.5610 os        1 V04     -0.281900
      9 C3         -4.4630    1.7880    1.4210 ca        1 V04     -0.183000
     10 O3         -3.7630   -6.4390    0.9450 oh        1 V04     -0.597800
     11 C4         -2.1790    0.8970   -0.1260 ca        1 V04      0.298600
     12 N4         -3.6800   -2.3500    0.7740 n         1 V04     -0.351400
     13 C5         -2.2760    2.2330    0.3230 ca        1 V04     -0.272900
     14 C6         -3.4180    2.6670    1.0910 ca        1 V04      0.000800
     15 C7         -1.4790    3.4450    0.1700 cd        1 V04      0.365800
     16 C8          0.2060    0.8170   -0.7950 ca        1 V04      0.158600
     17 C9          0.7330    1.4040    0.3750 ca        1 V04     -0.175000
     18 C10         2.0820    1.7270    0.4730 ca        1 V04     -0.075000
     19 C11         2.9550    1.4700   -0.5830 ca        1 V04      0.005900
     20 C12         2.4750    0.8800   -1.7480 ca        1 V04     -0.099000
     21 C13         1.1170    0.5510   -1.8670 ca        1 V04      0.068900
     22 C14        -3.2110   -1.3990   -0.1880 c         1 V04      0.631700
     23 C15        -4.1610   -4.3870   -0.2990 c3        1 V04      0.085400
     24 C16        -3.5580   -5.7860   -0.2910 c3        1 V04      0.125400
     25 H2         -5.1650   -0.2200    1.2030 ha        1 V04      0.149000
     26 H3         -5.3360    2.1260    1.9940 ha        1 V04      0.148000
     27 HN3        -1.3350   -0.2860   -1.5720 hn        1 V04      0.481800
     28 HO3        -3.3310   -5.9030    1.6220 ho        1 V04      0.407000
     29 HN4        -3.4180   -2.1030    1.7220 hn        1 V04      0.300500
     30 H7         -0.5320    3.5480   -0.3640 h4        1 V04      0.066800
     31 H9          0.0680    1.6100    1.2290 ha        1 V04      0.155000
     32 H10         2.4510    2.1860    1.4040 ha        1 V04      0.151000
     33 H12         3.1440    0.6600   -2.5960 ha        1 V04      0.163000
     34 H15        -5.1980   -4.3900    0.1210 h1        1 V04      0.065700
     35 H15A       -4.1490   -3.9480   -1.3290 h1        1 V04      0.065700
     36 H16        -2.4620   -5.7380   -0.5300 h1        1 V04      0.060700
     37 H16A       -4.0880   -6.4240   -1.0480 h1        1 V04      0.060700
     38 HN1        -3.8320    4.6460    1.8180 hn        1 V04      0.330700
     39 N3         -1.1350    0.4610   -0.9330 nh        1 V04     -0.651000
@<TRIPOS>BOND
     1    1    6 ar  
     2    1   11 ar  
     3    1   22 1   
     4    2   21 1   
     5    3   19 1   
     6    4    7 1   
     7    4   14 1   
     8    4   38 1   
     9    5   22 2   
    10    6    9 ar  
    11    6   25 1   
    12    7   15 2   
    13    8   12 1   
    14    8   23 1   
    15    9   14 ar  
    16    9   26 1   
    17   10   24 1   
    18   10   28 1   
    19   11   13 ar  
    20   11   39 1   
    21   12   22 1   
    22   12   29 1   
    23   13   14 ar  
    24   13   15 1   
    25   15   30 1   
    26   16   17 ar  
    27   16   21 ar  
    28   16   39 1   
    29   17   18 ar  
    30   17   31 1   
    31   18   19 ar  
    32   18   32 1   
    33   19   20 ar  
    34   20   21 ar  
    35   20   33 1   
    36   23   24 1   
    37   23   34 1   
    38   23   35 1   
    39   24   36 1   
    40   24   37 1   
    41   27   39 1   
@<TRIPOS>SUBSTRUCTURE
     1 V04         1 TEMP              0 ****  ****    0 ROOT
