@<TRIPOS>MOLECULE
V04
   39    33     1     0     0
SMALL
bcc


@<TRIPOS>ATOM
      1 C1          0.6450   -0.2000   -0.0340 c1        1 V04     -0.245000
      2 F1         -0.3030    2.6080    2.1060 f         1 V04     -0.098000
      3 I1         -4.7920    4.9340    2.7380 i         1 V04      0.159000
      4 N1          2.5040   -0.0720    3.6720 n2        1 V04     -0.196000
      5 O1         -1.3030   -0.3260   -1.4930 o         1 V04     -0.347000
      6 C2          2.0430   -0.1470   -0.0510 c1        1 V04     -0.036000
      7 N2          1.4090   -0.1240    4.5090 n2        1 V04     -0.044000
      8 O2          0.3610   -1.4180   -3.6430 os        1 V04     -0.201000
      9 C3          2.7510   -0.0840    1.1420 c1        1 V04     -0.187000
     10 N3         -1.4360   -0.2540    1.4330 n3        1 V04     -0.255000
     11 O3          2.8000   -3.1750   -5.6330 oh        1 V04     -0.331000
     12 C4         -0.0440   -0.1890    1.1960 c2        1 V04      0.215000
     13 N4          0.7560   -0.5190   -2.6120 n3        1 V04     -0.203000
     14 C5          0.6840   -0.1250    2.4150 c1        1 V04     -0.192000
     15 C6          2.0560   -0.0730    2.3880 c1        1 V04      0.049000
     16 C7          0.2900   -0.1570    3.7410 c1        1 V04     -0.133000
     17 C8         -2.2020    0.9820    1.6120 c2        1 V04      0.056000
     18 C9         -3.5860    0.9560    1.5350 c2        1 V04     -0.158000
     19 C10        -4.3170    2.0790    1.8680 c1        1 V04     -0.083000
     20 C11        -3.6740    3.2270    2.2780 c1        1 V04     -0.268000
     21 C12        -2.3030    3.2600    2.3560 c1        1 V04     -0.108000
     22 C13        -1.5600    2.1310    2.0210 c1        1 V04      0.053000
     23 C14        -0.0480   -0.4000   -1.4060 c1        1 V04      0.311000
     24 C15         1.4090   -1.5460   -4.6090 c3        1 V04     -0.061000
     25 C16         1.6030   -3.0160   -4.9610 c3        1 V04     -0.045000
     26 H2          2.5360   -0.1540   -0.9270 ha        1 V04      0.148000
     27 H3          3.7450   -0.0470    1.1280 ha        1 V04      0.148000
     28 HN3        -1.8770   -1.0710    1.3920 hn        1 V04      0.254000
     29 HO3         2.9710   -4.0180   -5.7190 ho        1 V04      0.213000
     30 HN4         1.5530   -0.0170   -2.7000 hn        1 V04      0.213000
     31 H7         -0.6590   -0.1960    4.0770 DU        1 V04      0.238500
     32 H9         -4.0430    0.1510    1.2460 ha        1 V04      0.158000
     33 H10        -5.3450    2.0610    1.8120 ha        1 V04      0.153000
     34 H12        -1.8590    4.0830    2.5380 ha        1 V04      0.163000
     35 H15         2.2150   -1.2020   -4.2500 h1        1 V04      0.109500
     36 H15A        1.1660   -1.0340   -5.4340 h1        1 V04      0.109500
     37 H16         1.6180   -3.5520   -4.1320 h1        1 V04      0.101000
     38 H16A        0.8670   -3.3160   -5.5320 h1        1 V04      0.101000
     39 HN1         3.3690   -0.0420    3.9330 DU        1 V04      0.238500
@<TRIPOS>BOND
     1    1    6 1   
     2    1   12 1   
     3    2   22 1   
     4    3   20 1   
     5    4    7 1   
     6    4   15 1   
     7    5   23 1   
     8    6   26 1   
     9    7   16 1   
    10    8   13 1   
    11    8   24 1   
    12    9   15 1   
    13    9   27 1   
    14   10   12 1   
    15   10   17 1   
    16   10   28 1   
    17   11   25 1   
    18   11   29 1   
    19   12   14 1   
    20   13   23 1   
    21   13   30 1   
    22   17   18 1   
    23   17   22 1   
    24   18   19 1   
    25   18   32 1   
    26   19   33 1   
    27   20   21 1   
    28   21   34 1   
    29   24   25 1   
    30   24   35 1   
    31   24   36 1   
    32   25   37 1   
    33   25   38 1   
@<TRIPOS>SUBSTRUCTURE
     1 V04         1 TEMP              0 ****  ****    0 ROOT
