@<TRIPOS>MOLECULE
V0N
   50    51     1     0     0
SMALL
bcc


@<TRIPOS>ATOM
      1 C1         -0.3100   -0.1700    0.2360 c3        1 V0N      0.138800
      2 C2         -2.2600    0.3530   -1.2290 c3        1 V0N     -0.032100
      3 N2          1.1260   -0.0440    0.4640 n3        1 V0N     -0.776600
      4 C3          1.5210   -0.2450    1.8700 c3        1 V0N      0.140500
      5 C4          2.5350   -1.4340    1.9200 c3        1 V0N      0.129100
      6 C5          3.1280   -1.4600    0.4940 c3        1 V0N      0.098100
      7 C6          2.0010   -0.8580   -0.3990 c3        1 V0N      0.160500
      8 O7          4.2450   -0.5860    0.4600 oh        1 V0N     -0.625800
      9 O8          3.4790   -1.3080    2.9460 oh        1 V0N     -0.571800
     10 C9          1.3580   -1.9960   -1.2090 c3        1 V0N      0.112400
     11 O10         0.8740   -2.9660   -0.2970 oh        1 V0N     -0.611800
     12 C11         2.2080    1.0010    2.4600 c3        1 V0N     -0.163400
     13 C12         1.4580    2.2650    2.1810 c         1 V0N      0.559100
     14 N13         1.5830    2.7580    0.7520 n4        1 V0N     -0.687800
     15 C14         0.7340    3.9240    0.4430 c3        1 V0N      0.082100
     16 O15         0.7700    2.9270    2.9400 o         1 V0N     -0.413100
     17 C16        -0.7930    0.6420   -0.9670 c3        1 V0N     -0.080400
     18 C19        -2.7970    1.2230   -2.3110 ca        1 V0N     -0.118300
     19 C20        -2.3990    1.0230   -3.6380 ca        1 V0N     -0.103500
     20 C21        -2.8990    1.8210   -4.6600 ca        1 V0N     -0.161000
     21 C22        -3.8210    2.8410   -4.3530 ca        1 V0N      0.139900
     22 C23        -4.2340    3.0420   -3.0230 ca        1 V0N     -0.161000
     23 C24        -3.7200    2.2320   -2.0160 ca        1 V0N     -0.103500
     24 F25        -4.3110    3.6260   -5.3390 f         1 V0N     -0.126900
     25 H1         -0.6230   -1.2480    0.1080 h1        1 V0N      0.066700
     26 H2         -2.3800   -0.7250   -1.5240 hc        1 V0N      0.059200
     27 H3          0.6340   -0.4940    2.5200 h1        1 V0N      0.091700
     28 H4          1.9780   -2.3900    2.1310 h1        1 V0N      0.121700
     29 H5          3.3930   -2.4990    0.1790 h1        1 V0N      0.094700
     30 H6          2.4590   -0.1440   -1.1440 h1        1 V0N      0.074700
     31 H9          0.5190   -1.6140   -1.8490 h1        1 V0N      0.045700
     32 HO10        0.5500   -3.7110   -0.8190 ho        1 V0N      0.426000
     33 H1A        -0.8520    0.2160    1.1490 h1        1 V0N      0.066700
     34 H11         2.2750    0.8650    3.5760 hc        1 V0N      0.120700
     35 H11A        3.2560    1.0800    2.0550 hc        1 V0N      0.120700
     36 HN13        2.5660    2.9870    0.5780 hn        1 V0N      0.476300
     37 H14         0.8900    4.2210   -0.6280 hx        1 V0N      0.107367
     38 H16        -0.6620    1.7390   -0.7680 hc        1 V0N      0.034200
     39 H20        -1.6890    0.2170   -3.8790 ha        1 V0N      0.134500
     40 H21        -2.5920    1.6620   -5.7050 ha        1 V0N      0.158500
     41 H2A        -2.8480    0.5040   -0.2840 hc        1 V0N      0.059200
     42 H23        -4.9660    3.8320   -2.7940 ha        1 V0N      0.158500
     43 H24        -4.0580    2.3840   -0.9790 ha        1 V0N      0.134500
     44 H14A       -0.3440    3.6540    0.6080 hx        1 V0N      0.107367
     45 H14B        1.0000    4.7790    1.1220 hx        1 V0N      0.107367
     46 H16A       -0.1950    0.3980   -1.8840 hc        1 V0N      0.034200
     47 H9A         2.1450   -2.4450   -1.8750 h1        1 V0N      0.045700
     48 HO7         5.0050   -1.0920    0.1480 ho        1 V0N      0.433000
     49 HO8         4.2280   -0.7880    2.6180 ho        1 V0N      0.418000
     50 H132        1.3280    1.9450    0.1420 hn        1 V0N      0.476300
@<TRIPOS>BOND
     1    1    3 1   
     2    1   17 1   
     3    1   25 1   
     4    1   33 1   
     5    2   17 1   
     6    2   18 1   
     7    2   26 1   
     8    2   41 1   
     9    3    4 1   
    10    3    7 1   
    11    4    5 1   
    12    4   12 1   
    13    4   27 1   
    14    5    6 1   
    15    5    9 1   
    16    5   28 1   
    17    6    7 1   
    18    6    8 1   
    19    6   29 1   
    20    7   10 1   
    21    7   30 1   
    22    8   48 1   
    23    9   49 1   
    24   10   11 1   
    25   10   31 1   
    26   10   47 1   
    27   11   32 1   
    28   12   13 1   
    29   12   34 1   
    30   12   35 1   
    31   13   14 1   
    32   13   16 2   
    33   14   15 1   
    34   14   36 1   
    35   14   50 1   
    36   15   37 1   
    37   15   44 1   
    38   15   45 1   
    39   17   38 1   
    40   17   46 1   
    41   18   19 ar  
    42   18   23 ar  
    43   19   20 ar  
    44   19   39 1   
    45   20   21 ar  
    46   20   40 1   
    47   21   22 ar  
    48   21   24 1   
    49   22   23 ar  
    50   22   42 1   
    51   23   43 1   
@<TRIPOS>SUBSTRUCTURE
     1 V0N         1 TEMP              0 ****  ****    0 ROOT
