@<TRIPOS>MOLECULE
V0N
   50    51     1     0     0
SMALL
bcc


@<TRIPOS>ATOM
      1 C1         -0.3180   -0.1730    0.2260 c3        1 V0N      0.138800
      2 C2         -2.2500    0.3490   -1.2640 c3        1 V0N     -0.032100
      3 N2          1.1140   -0.0440    0.4740 n3        1 V0N     -0.776600
      4 C3          1.4910   -0.2490    1.8840 c3        1 V0N      0.140500
      5 C4          2.5080   -1.4350    1.9430 c3        1 V0N      0.129100
      6 C5          3.1200   -1.4520    0.5250 c3        1 V0N      0.098100
      7 C6          2.0040   -0.8510   -0.3810 c3        1 V0N      0.160500
      8 O7          4.2350   -0.5750    0.5100 oh        1 V0N     -0.625800
      9 O8          3.4370   -1.3110    2.9830 oh        1 V0N     -0.571800
     10 C9          1.3760   -1.9870   -1.2050 c3        1 V0N      0.112400
     11 O10         0.8830   -2.9630   -0.3030 oh        1 V0N     -0.611800
     12 C11         2.1660    0.9970    2.4890 c3        1 V0N     -0.163400
     13 C12         1.4140    2.2600    2.2050 c         1 V0N      0.559100
     14 N13         1.5570    2.7590    0.7800 ny        1 V0N     -0.687800
     15 C14         0.7080    3.9230    0.4650 c3        1 V0N      0.082100
     16 O15         0.7140    2.9160    2.9580 o         1 V0N     -0.413100
     17 C16        -0.7880    0.6420   -0.9810 c3        1 V0N     -0.080400
     18 C19        -2.7760    1.2230   -2.3480 ca        1 V0N     -0.118300
     19 C20        -2.3580    1.0320   -3.6710 ca        1 V0N     -0.103500
     20 C21        -2.8480    1.8340   -4.6950 ca        1 V0N     -0.161000
     21 C22        -3.7780    2.8480   -4.3950 ca        1 V0N      0.139900
     22 C23        -4.2100    3.0410   -3.0700 ca        1 V0N     -0.161000
     23 C24        -3.7070    2.2270   -2.0600 ca        1 V0N     -0.103500
     24 F25        -4.2580    3.6370   -5.3830 f         1 V0N     -0.126900
     25 H1         -0.6260   -1.2520    0.0890 h1        1 V0N      0.066700
     26 H2         -2.3610   -0.7280   -1.5660 hc        1 V0N      0.059200
     27 H3          0.5960   -0.5040    2.5200 h1        1 V0N      0.091700
     28 H4          1.9510   -2.3940    2.1420 h1        1 V0N      0.121700
     29 H5          3.3930   -2.4900    0.2090 h1        1 V0N      0.094700
     30 H6          2.4690   -0.1310   -1.1170 h1        1 V0N      0.074700
     31 H9          2.1740   -2.4300   -1.8610 h1        1 V0N      0.045700
     32 HO10        0.5690   -3.7070   -0.8340 ho        1 V0N      0.426000
     33 H1A        -0.8740    0.2070    1.1330 h1        1 V0N      0.066700
     34 H11         3.2180    1.0810    2.0980 hc        1 V0N      0.120700
     35 H11A        2.2180    0.8550    3.6050 hc        1 V0N      0.120700
     36 HN13        1.3130    1.9480    0.1630 hn        1 V0N      0.476300
     37 H14        -0.3710    3.6490    0.6150 hx        1 V0N      0.107367
     38 H16        -0.6640    1.7390   -0.7750 hc        1 V0N      0.034200
     39 H20        -1.6420    0.2310   -3.9070 ha        1 V0N      0.134500
     40 H21        -2.5260    1.6820   -5.7360 ha        1 V0N      0.158500
     41 H2A        -2.8510    0.4930   -0.3260 hc        1 V0N      0.059200
     42 H23        -4.9490    3.8250   -2.8460 ha        1 V0N      0.158500
     43 H24        -4.0590    2.3710   -1.0270 ha        1 V0N      0.134500
     44 H14A        0.8780    4.2260   -0.6030 hx        1 V0N      0.107367
     45 H14B        0.9620    4.7760    1.1510 hx        1 V0N      0.107367
     46 H16A       -0.1760    0.4050   -1.8900 hc        1 V0N      0.034200
     47 H9A         0.5440   -1.6040   -1.8540 h1        1 V0N      0.045700
     48 HO7         5.0010   -1.0770    0.2070 ho        1 V0N      0.433000
     49 HO8         4.1890   -0.7860    2.6670 ho        1 V0N      0.418000
     50 H132        2.5420    2.9920    0.6210 hn        1 V0N      0.476300
@<TRIPOS>BOND
     1    1    3 1   
     2    1   17 1   
     3    1   25 1   
     4    1   33 1   
     5    2   17 1   
     6    2   18 1   
     7    2   26 1   
     8    2   41 1   
     9    3    4 1   
    10    3    7 1   
    11    4    5 1   
    12    4   12 1   
    13    4   27 1   
    14    5    6 1   
    15    5    9 1   
    16    5   28 1   
    17    6    7 1   
    18    6    8 1   
    19    6   29 1   
    20    7   10 1   
    21    7   30 1   
    22    8   48 1   
    23    9   49 1   
    24   10   11 1   
    25   10   31 1   
    26   10   47 1   
    27   11   32 1   
    28   12   13 1   
    29   12   34 1   
    30   12   35 1   
    31   13   14 1   
    32   13   16 2   
    33   14   15 1   
    34   14   36 1   
    35   14   50 1   
    36   15   37 1   
    37   15   44 1   
    38   15   45 1   
    39   17   38 1   
    40   17   46 1   
    41   18   19 ar  
    42   18   23 ar  
    43   19   20 ar  
    44   19   39 1   
    45   20   21 ar  
    46   20   40 1   
    47   21   22 ar  
    48   21   24 1   
    49   22   23 ar  
    50   22   42 1   
    51   23   43 1   
@<TRIPOS>SUBSTRUCTURE
     1 V0N         1 TEMP              0 ****  ****    0 ROOT
