@<TRIPOS>MOLECULE
V10
   46    46     1     0     0
SMALL
bcc


@<TRIPOS>ATOM
      1 OXT         1.4860    1.0030    1.7830 o         1 V10     -0.754300
      2 C           2.0960    0.0720    1.1960 c         1 V10      0.937600
      3 O           1.8600   -0.4930    0.1170 o         1 V10     -0.754300
      4 CA          3.4070   -0.4610    1.9690 c3        1 V10     -0.075500
      5 N           3.4960    0.2100    3.3020 n4        1 V10     -0.838600
      6 CB          3.3420   -1.9720    2.0640 c3        1 V10     -0.098400
      7 CAJ         4.6380   -2.6040    2.5320 c3        1 V10     -0.087400
      8 CAL         4.4080   -3.8120    3.4130 c3        1 V10     -0.172400
      9 CAT         3.8500   -3.4250    4.7510 c         1 V10      0.597100
     10 OAE         3.5370   -2.3010    5.1410 o         1 V10     -0.527100
     11 NAO         3.6660   -4.5430    5.7280 n4        1 V10     -0.678800
     12 CAW         4.8200   -4.6260    6.6940 c3        1 V10      0.073500
     13 CAK         4.4650   -5.4340    7.9250 c3        1 V10     -0.006300
     14 SAI         2.9160   -4.8700    8.5930 sh        1 V10     -0.417900
     15 CAU         6.0150   -5.3500    5.9100 c3        1 V10      0.685100
     16 OAF         5.6380   -6.1530    4.9870 o         1 V10     -0.765500
     17 OAP         6.8380   -4.2710    5.3870 os        1 V10     -0.528600
     18 CAX         8.2150   -4.4980    5.6980 c3        1 V10      0.074100
     19 CAS         8.1560   -5.5840    6.7620 c         1 V10      0.710600
     20 OAD         9.0030   -6.0980    7.4820 o         1 V10     -0.583500
     21 OAH         6.8580   -5.9910    6.9040 os        1 V10     -0.469900
     22 CAN         8.8410   -3.2060    6.1870 c3        1 V10     -0.026300
     23 SAQ        10.5140   -3.0120    5.6730 ss        1 V10     -0.281200
     24 CAA        11.4280   -3.9170    6.8670 c3        1 V10     -0.052000
     25 HA          4.2940   -0.1410    1.3580 hx        1 V10      0.092700
     26 HN1         2.7620    0.9580    3.2960 hn        1 V10      0.448133
     27 HN2         3.2970   -0.4490    4.0550 hn        1 V10      0.448133
     28 HBC1        2.4930   -2.2740    2.7340 hc        1 V10      0.084200
     29 HBC2        3.0790   -2.3360    1.0290 hc        1 V10      0.084200
     30 HAJ1        5.2710   -1.8640    3.0880 hc        1 V10      0.062200
     31 HAJ2        5.2370   -2.9380    1.6410 hc        1 V10      0.062200
     32 HAL1        5.3860   -4.3690    3.5920 hc        1 V10      0.140200
     33 HAL2        3.7070   -4.5360    2.9140 hc        1 V10      0.140200
     34 HAO         3.6810   -5.4470    5.2050 hn        1 V10      0.476800
     35 HAW         5.1200   -3.5780    6.9690 hx        1 V10      0.107700
     36 HAK1        4.4360   -6.5260    7.6800 h1        1 V10      0.117700
     37 HAK2        5.2850   -5.2890    8.6750 h1        1 V10      0.117700
     38 HAI         2.4120   -6.0280    9.0000 hs        1 V10      0.240800
     39 HAX         8.7270   -4.8800    4.7730 h1        1 V10      0.106700
     40 HAN1        8.7540   -3.1270    7.2970 h1        1 V10      0.081700
     41 HAN2        8.2910   -2.3440    5.7310 h1        1 V10      0.081700
     42 HAA1       10.9920   -4.9270    7.0510 h1        1 V10      0.074367
     43 HAA2       12.4550   -4.0290    6.4500 h1        1 V10      0.074367
     44 HAA3       11.4840   -3.3730    7.8350 h1        1 V10      0.074367
     45 HN3         4.4100    0.6260    3.4470 hn        1 V10      0.448133
     46 HAO2        2.7920   -4.4370    6.2700 hn        1 V10      0.476800
@<TRIPOS>BOND
     1    1    2 1   
     2    2    3 1   
     3    2    4 1   
     4    4    5 1   
     5    4    6 1   
     6    4   25 1   
     7    5   26 1   
     8    5   27 1   
     9    5   45 1   
    10    6    7 1   
    11    6   28 1   
    12    6   29 1   
    13    7    8 1   
    14    7   30 1   
    15    7   31 1   
    16    8    9 1   
    17    8   32 1   
    18    8   33 1   
    19    9   10 2   
    20    9   11 1   
    21   11   12 1   
    22   11   34 1   
    23   11   46 1   
    24   12   13 1   
    25   12   15 1   
    26   12   35 1   
    27   13   14 1   
    28   13   36 1   
    29   13   37 1   
    30   14   38 1   
    31   15   16 1   
    32   15   17 1   
    33   15   21 1   
    34   17   18 1   
    35   18   19 1   
    36   18   22 1   
    37   18   39 1   
    38   19   20 2   
    39   19   21 1   
    40   22   23 1   
    41   22   40 1   
    42   22   41 1   
    43   23   24 1   
    44   24   42 1   
    45   24   43 1   
    46   24   44 1   
@<TRIPOS>SUBSTRUCTURE
     1 V10         1 TEMP              0 ****  ****    0 ROOT
