@<TRIPOS>MOLECULE
V10
   44    43     1     0     0
SMALL
bcc


@<TRIPOS>ATOM
      1 OXT         8.1290   -0.0830    1.5790 o         1 V10     -0.848300
      2 C           7.4260    0.2990    0.5980 c         1 V10      0.886600
      3 O           7.7650    1.2190   -0.1980 o         1 V10     -0.848300
      4 CA          6.0690   -0.4320    0.3330 c3        1 V10      0.022500
      5 N           5.7420   -1.4640    1.3090 n3        1 V10     -0.890800
      6 CB          4.9740    0.6250    0.1770 c3        1 V10     -0.065400
      7 CAJ         3.6830    0.0530   -0.3700 c3        1 V10     -0.072400
      8 CAL         2.6720    1.1560   -0.6090 c3        1 V10     -0.153400
      9 CAT         1.3950    0.6510   -1.2530 c         1 V10      0.658100
     10 OAE         1.0850    0.9740   -2.4190 o         1 V10     -0.624100
     11 NAO         0.5980   -0.2060   -0.5090 n         1 V10     -0.561900
     12 CAW        -0.7360   -0.5730   -0.9160 c3        1 V10      0.047700
     13 CAK        -1.0180   -2.0740   -0.7840 c3        1 V10     -0.010300
     14 SAI        -0.2770   -3.0580   -2.0470 sh        1 V10     -0.402900
     15 CAU        -1.8100    0.1230   -0.0690 c         1 V10      0.635100
     16 OAF        -1.7060    0.4990    1.1010 o         1 V10     -0.567000
     17 OAP        -2.9480    0.3270   -0.7770 os        1 V10     -0.418900
     18 CAX        -4.1810    0.5080   -0.0410 c3        1 V10      0.013100
     19 CAS        -4.8220   -0.8910    0.1930 c         1 V10      0.913600
     20 OAD        -6.0590   -0.9210    0.4490 o         1 V10     -0.829800
     21 OAH        -4.0720   -1.9010    0.1350 o         1 V10     -0.829800
     22 CAN        -5.0430    1.4050   -0.9070 c3        1 V10      0.023700
     23 SAQ        -5.7310    2.8060   -0.0560 ss        1 V10     -0.379200
     24 CAA        -6.8990    2.0840    1.0430 c3        1 V10     -0.047000
     25 HA          6.1860   -0.9620   -0.6580 h1        1 V10      0.042700
     26 HN1         6.6010   -1.9340    1.5430 hn        1 V10      0.329800
     27 HN2         5.4270   -1.0180    2.1530 hn        1 V10      0.329800
     28 HBC1        4.7770    1.1220    1.1630 hc        1 V10      0.046700
     29 HBC2        5.3740    1.4100   -0.5200 hc        1 V10      0.046700
     30 HAJ1        3.8890   -0.4820   -1.3340 hc        1 V10      0.045700
     31 HAJ2        3.2660   -0.7010    0.3470 hc        1 V10      0.045700
     32 HAL1        2.4250    1.6660    0.3590 hc        1 V10      0.064700
     33 HAL2        3.1110    1.9260   -1.2990 hc        1 V10      0.064700
     34 HAO         0.7970   -0.3030    0.4610 hn        1 V10      0.316500
     35 HAW        -0.8840   -0.2630   -1.9970 h1        1 V10      0.123700
     36 HAK1       -0.7170   -2.4440    0.2250 h1        1 V10      0.118200
     37 HAK2       -2.1340   -2.2350   -0.8830 h1        1 V10      0.118200
     38 HAI         0.9910   -2.7150   -1.8970 hs        1 V10      0.205800
     39 HAX        -3.9640    0.9820    0.9530 h1        1 V10      0.079700
     40 HAN1       -4.4390    1.8470   -1.7380 h1        1 V10      0.080700
     41 HAN2       -5.8750    0.7970   -1.3390 h1        1 V10      0.080700
     42 HAA1       -6.7330    2.5010    2.0610 h1        1 V10      0.070367
     43 HAA2       -7.9300    2.3310    0.7120 h1        1 V10      0.070367
     44 HAA3       -6.7790    0.9690    1.0750 h1        1 V10      0.070367
@<TRIPOS>BOND
     1    1    2 1   
     2    2    3 1   
     3    2    4 1   
     4    4    5 1   
     5    4    6 1   
     6    4   25 1   
     7    5   26 1   
     8    5   27 1   
     9    6    7 1   
    10    6   28 1   
    11    6   29 1   
    12    7    8 1   
    13    7   30 1   
    14    7   31 1   
    15    8    9 1   
    16    8   32 1   
    17    8   33 1   
    18    9   10 2   
    19    9   11 1   
    20   11   12 1   
    21   11   34 1   
    22   12   13 1   
    23   12   15 1   
    24   12   35 1   
    25   13   14 1   
    26   13   36 1   
    27   13   37 1   
    28   14   38 1   
    29   15   16 2   
    30   15   17 1   
    31   17   18 1   
    32   18   19 1   
    33   18   22 1   
    34   18   39 1   
    35   19   20 1   
    36   19   21 1   
    37   22   23 1   
    38   22   40 1   
    39   22   41 1   
    40   23   24 1   
    41   24   42 1   
    42   24   43 1   
    43   24   44 1   
@<TRIPOS>SUBSTRUCTURE
     1 V10         1 TEMP              0 ****  ****    0 ROOT
