@<TRIPOS>MOLECULE
V10
   46    46     1     0     0
SMALL
bcc


@<TRIPOS>ATOM
      1 OXT         1.4990    1.0750    1.8700 o         1 V10     -0.754300
      2 C           2.0720    0.1290    1.2710 c         1 V10      0.937600
      3 O           1.7950   -0.4360    0.2020 o         1 V10     -0.754300
      4 CA          3.3910   -0.4300    2.0120 c3        1 V10     -0.075500
      5 N           3.5310    0.2450    3.3390 n4        1 V10     -0.838600
      6 CB          3.2960   -1.9390    2.1160 c3        1 V10     -0.098400
      7 CAJ         4.5900   -2.5980    2.5530 c3        1 V10     -0.087400
      8 CAL         4.3570   -3.7960    3.4460 c3        1 V10     -0.172400
      9 CAT         3.8440   -3.3910    4.7960 c         1 V10      0.597100
     10 OAE         3.5660   -2.2590    5.1890 o         1 V10     -0.527100
     11 NAO         3.6610   -4.5000    5.7840 n4        1 V10     -0.678800
     12 CAW         4.8400   -4.6030    6.7200 c3        1 V10      0.073500
     13 CAK         4.5000   -5.3980    7.9640 c3        1 V10     -0.006300
     14 SAI         2.9810   -4.7990    8.6690 sh        1 V10     -0.417900
     15 CAU         5.9970   -5.3560    5.9070 c3        1 V10      0.685100
     16 OAF         5.5790   -6.1550    4.9990 o         1 V10     -0.765500
     17 OAP         6.8290   -4.2970    5.3570 os        1 V10     -0.528600
     18 CAX         8.2080   -4.5510    5.6320 c3        1 V10      0.074100
     19 CAS         8.1550   -5.6300    6.7030 c         1 V10      0.710600
     20 OAD         9.0110   -6.1590    7.4020 o         1 V10     -0.583500
     21 OAH         6.8530   -6.0090    6.8830 os        1 V10     -0.469900
     22 CAN         8.8740   -3.2700    6.0970 c3        1 V10     -0.026300
     23 SAQ        10.5360   -3.1140    5.5370 ss        1 V10     -0.281200
     24 CAA        11.4630   -4.0320    6.7110 c3        1 V10     -0.052000
     25 HA          4.2690   -0.1330    1.3760 hx        1 V10      0.092700
     26 HN1         3.3370   -0.4070    4.1000 hn        1 V10      0.448133
     27 HN2         2.8130    1.0090    3.3490 hn        1 V10      0.448133
     28 HBC1        2.4590   -2.2200    2.8100 hc        1 V10      0.084200
     29 HBC2        2.9980   -2.3020    1.0900 hc        1 V10      0.084200
     30 HAJ1        5.1570   -2.9490    1.6490 hc        1 V10      0.062200
     31 HAJ2        5.2540   -1.8690    3.0880 hc        1 V10      0.062200
     32 HAL1        3.6270   -4.5060    2.9700 hc        1 V10      0.140200
     33 HAL2        5.3270   -4.3740    3.6020 hc        1 V10      0.140200
     34 HAO         2.8050   -4.3730    6.3480 hn        1 V10      0.476800
     35 HAW         5.1680   -3.5600    6.9810 hx        1 V10      0.107700
     36 HAK1        4.4420   -6.4890    7.7240 h1        1 V10      0.117700
     37 HAK2        5.3420   -5.2660    8.6910 h1        1 V10      0.117700
     38 HAI         2.4650   -5.9440    9.0950 hs        1 V10      0.240800
     39 HAX         8.6870   -4.9480    4.6960 h1        1 V10      0.106700
     40 HAN1        8.8190   -3.1840    7.2090 h1        1 V10      0.081700
     41 HAN2        8.3300   -2.3990    5.6510 h1        1 V10      0.081700
     42 HAA1       12.4760   -4.1680    6.2670 h1        1 V10      0.074367
     43 HAA2       11.5570   -3.4840    7.6740 h1        1 V10      0.074367
     44 HAA3       11.0110   -5.0310    6.9120 h1        1 V10      0.074367
     45 HN3         4.4570    0.6410    3.4580 hn        1 V10      0.448133
     46 HAO2        3.6430   -5.4070    5.2660 hn        1 V10      0.476800
@<TRIPOS>BOND
     1    1    2 1   
     2    2    3 1   
     3    2    4 1   
     4    4    5 1   
     5    4    6 1   
     6    4   25 1   
     7    5   26 1   
     8    5   27 1   
     9    5   45 1   
    10    6    7 1   
    11    6   28 1   
    12    6   29 1   
    13    7    8 1   
    14    7   30 1   
    15    7   31 1   
    16    8    9 1   
    17    8   32 1   
    18    8   33 1   
    19    9   10 2   
    20    9   11 1   
    21   11   12 1   
    22   11   34 1   
    23   11   46 1   
    24   12   13 1   
    25   12   15 1   
    26   12   35 1   
    27   13   14 1   
    28   13   36 1   
    29   13   37 1   
    30   14   38 1   
    31   15   16 1   
    32   15   17 1   
    33   15   21 1   
    34   17   18 1   
    35   18   19 1   
    36   18   22 1   
    37   18   39 1   
    38   19   20 2   
    39   19   21 1   
    40   22   23 1   
    41   22   40 1   
    42   22   41 1   
    43   23   24 1   
    44   24   42 1   
    45   24   43 1   
    46   24   44 1   
@<TRIPOS>SUBSTRUCTURE
     1 V10         1 TEMP              0 ****  ****    0 ROOT
