@<TRIPOS>MOLECULE
V10
   46    46     1     0     0
SMALL
bcc


@<TRIPOS>ATOM
      1 OXT         1.5550    1.0900    1.8180 o         1 V10     -0.754300
      2 C           2.1090    0.1240    1.2320 c         1 V10      0.937600
      3 O           1.8170   -0.4540    0.1740 o         1 V10     -0.754300
      4 CA          3.4230   -0.4440    1.9750 c3        1 V10     -0.075500
      5 N           3.5810    0.2510    3.2890 nz        1 V10     -0.838600
      6 CB          3.3030   -1.9500    2.1050 c3        1 V10     -0.098400
      7 CAJ         4.5880   -2.6220    2.5460 c3        1 V10     -0.087400
      8 CAL         4.3410   -3.8020    3.4600 c3        1 V10     -0.172400
      9 CAT         3.8420   -3.3650    4.8060 c         1 V10      0.597100
     10 OAE         3.5850   -2.2220    5.1810 o         1 V10     -0.527100
     11 NAO         3.6470   -4.4550    5.8130 ny        1 V10     -0.678800
     12 CAW         4.8280   -4.5620    6.7440 c3        1 V10      0.073500
     13 CAK         4.4820   -5.3300    8.0030 c3        1 V10     -0.006300
     14 SAI         2.9770   -4.6940    8.7060 sh        1 V10     -0.417900
     15 CAU         5.9680   -5.3470    5.9380 c3        1 V10      0.685100
     16 OAF         5.5320   -6.1540    5.0460 o         1 V10     -0.765500
     17 OAP         6.8140   -4.3120    5.3660 os        1 V10     -0.528600
     18 CAX         8.1910   -4.5840    5.6390 c3        1 V10      0.074100
     19 CAS         8.1250   -5.6450    6.7280 c         1 V10      0.710600
     20 OAD         8.9760   -6.1760    7.4310 o         1 V10     -0.583500
     21 OAH         6.8190   -5.9990    6.9200 os        1 V10     -0.469900
     22 CAN         8.8800   -3.3080    6.0790 c3        1 V10     -0.026300
     23 SAQ        10.5420   -3.1880    5.5080 ss        1 V10     -0.281200
     24 CAA        11.4590   -4.1030    6.6920 c3        1 V10     -0.052000
     25 HA          4.3020   -0.1720    1.3300 hx        1 V10      0.092700
     26 HN1         3.3810   -0.3850    4.0630 hn        1 V10      0.448133
     27 HN2         4.5150    0.6330    3.3960 hn        1 V10      0.448133
     28 HBC1        2.9930   -2.3240    1.0870 hc        1 V10      0.084200
     29 HBC2        2.4650   -2.2040    2.8090 hc        1 V10      0.084200
     30 HAJ1        5.1450   -2.9970    1.6440 hc        1 V10      0.062200
     31 HAJ2        5.2680   -1.8950    3.0650 hc        1 V10      0.062200
     32 HAL1        3.5970   -4.5070    2.9990 hc        1 V10      0.140200
     33 HAL2        5.3030   -4.3920    3.6200 hc        1 V10      0.140200
     34 HAO         3.6110   -5.3690    5.3100 hn        1 V10      0.476800
     35 HAW         5.1750   -3.5200    6.9860 hx        1 V10      0.107700
     36 HAK1        4.4040   -6.4240    7.7820 h1        1 V10      0.117700
     37 HAK2        5.3300   -5.2010    8.7240 h1        1 V10      0.117700
     38 HAI         2.4440   -5.8220    9.1540 hs        1 V10      0.240800
     39 HAX         8.6580   -5.0050    4.7060 h1        1 V10      0.106700
     40 HAN1        8.3480   -2.4350    5.6220 h1        1 V10      0.081700
     41 HAN2        8.8330   -3.2030    7.1890 h1        1 V10      0.081700
     42 HAA1       10.9920   -5.0910    6.9120 h1        1 V10      0.074367
     43 HAA2       12.4680   -4.2630    6.2450 h1        1 V10      0.074367
     44 HAA3       11.5680   -3.5410    7.6460 h1        1 V10      0.074367
     45 HN3         2.8760    1.0260    3.2910 hn        1 V10      0.448133
     46 HAO2        2.7950   -4.3040    6.3790 hn        1 V10      0.476800
@<TRIPOS>BOND
     1    1    2 1   
     2    2    3 1   
     3    2    4 1   
     4    4    5 1   
     5    4    6 1   
     6    4   25 1   
     7    5   26 1   
     8    5   27 1   
     9    5   45 1   
    10    6    7 1   
    11    6   28 1   
    12    6   29 1   
    13    7    8 1   
    14    7   30 1   
    15    7   31 1   
    16    8    9 1   
    17    8   32 1   
    18    8   33 1   
    19    9   10 2   
    20    9   11 1   
    21   11   12 1   
    22   11   34 1   
    23   11   46 1   
    24   12   13 1   
    25   12   15 1   
    26   12   35 1   
    27   13   14 1   
    28   13   36 1   
    29   13   37 1   
    30   14   38 1   
    31   15   16 1   
    32   15   17 1   
    33   15   21 1   
    34   17   18 1   
    35   18   19 1   
    36   18   22 1   
    37   18   39 1   
    38   19   20 2   
    39   19   21 1   
    40   22   23 1   
    41   22   40 1   
    42   22   41 1   
    43   23   24 1   
    44   24   42 1   
    45   24   43 1   
    46   24   44 1   
@<TRIPOS>SUBSTRUCTURE
     1 V10         1 TEMP              0 ****  ****    0 ROOT
