@<TRIPOS>MOLECULE
V11
   51    54     1     0     0
SMALL
bcc


@<TRIPOS>ATOM
      1 O2         -0.0440    0.2580   -0.1490 o         1 V11     -0.548000
      2 C1          1.1640    0.2040    0.1050 c         1 V11      0.646700
      3 C2          1.8020    0.2840    1.4290 ca        1 V11     -0.135600
      4 C7          3.1850    0.1310    1.5810 ca        1 V11     -0.073000
      5 C6          3.7540    0.2110    2.8520 ca        1 V11     -0.147500
      6 C5          2.9480    0.4430    3.9670 ca        1 V11     -0.098000
      7 C4          1.5690    0.5950    3.8150 ca        1 V11     -0.147500
      8 C3          0.9920    0.5160    2.5490 ca        1 V11     -0.073000
      9 O1          2.0470    0.0600   -0.9280 os        1 V11     -0.447900
     10 C8          1.5090   -0.0250   -2.2720 c3        1 V11      0.161100
     11 C12         1.0670   -1.4600   -2.5590 c3        1 V11     -0.073400
     12 C11         2.1750   -2.3280   -3.1720 c3        1 V11      0.157500
     13 C13         3.3560   -2.4450   -2.1670 c3        1 V11     -0.107400
     14 C14         4.2660   -1.2680   -2.5250 c3        1 V11     -0.107400
     15 C10         3.5430   -0.5800   -3.7170 c3        1 V11      0.157500
     16 C9          2.6150    0.5190   -3.1800 c3        1 V11     -0.073400
     17 N           2.7020   -1.6170   -4.3630 n3        1 V11     -0.691600
     18 C15         3.4300   -2.4800   -5.2760 c3        1 V11      0.161800
     19 C16         3.6410   -1.8290   -6.6660 c3        1 V11      0.189400
     20 O3          2.6060   -2.3520   -7.4890 oh        1 V11     -0.591800
     21 C17         5.0030   -2.1640   -7.2050 ca        1 V11     -0.130300
     22 C22         5.1920   -3.2590   -8.0530 ca        1 V11     -0.120000
     23 C21         6.4630   -3.5540   -8.5460 ca        1 V11     -0.130500
     24 C20         7.5520   -2.7590   -8.1920 ca        1 V11     -0.127000
     25 C19         7.3690   -1.6660   -7.3440 ca        1 V11     -0.130500
     26 C18         6.0990   -1.3680   -6.8520 ca        1 V11     -0.120000
     27 H7          3.8140   -0.0530    0.6950 ha        1 V11      0.155500
     28 H3         -0.0960    0.6320    2.4150 ha        1 V11      0.155500
     29 H6          4.8410    0.0910    2.9730 ha        1 V11      0.138500
     30 H5          3.4010    0.5060    4.9680 ha        1 V11      0.136000
     31 H4          0.9340    0.7770    4.6940 ha        1 V11      0.138500
     32 H8          0.6090    0.6520   -2.3320 h1        1 V11      0.071700
     33 H121        0.7170   -1.9340   -1.6050 hc        1 V11      0.060700
     34 H122        0.1970   -1.4240   -3.2660 hc        1 V11      0.060700
     35 H91C        3.2290    1.2650   -2.6140 hc        1 V11      0.060700
     36 H92C        2.1260    1.0450   -4.0410 hc        1 V11      0.060700
     37 H11         1.7630   -3.3330   -3.4460 h1        1 V11      0.064200
     38 H131        3.8830   -3.4200   -2.2950 hc        1 V11      0.050700
     39 H132        2.9900   -2.3710   -1.1160 hc        1 V11      0.050700
     40 H141        5.2820   -1.6150   -2.8290 hc        1 V11      0.050700
     41 H142        4.3720   -0.5620   -1.6660 hc        1 V11      0.050700
     42 H10         4.2740   -0.1430   -4.4470 h1        1 V11      0.064200
     43 H151        2.8260   -3.4190   -5.4340 h1        1 V11      0.053700
     44 H152        4.4390   -2.7770   -4.8680 h1        1 V11      0.053700
     45 H16         3.5370   -0.7070   -6.6130 h1        1 V11      0.051700
     46 HA          2.7000   -1.9350   -8.3540 ho        1 V11      0.401000
     47 H22         4.3280   -3.8860   -8.3260 ha        1 V11      0.138000
     48 H18         5.9560   -0.5050   -6.1840 ha        1 V11      0.138000
     49 H21         6.6040   -4.4170   -9.2130 ha        1 V11      0.132500
     50 H20         8.5540   -2.9920   -8.5800 ha        1 V11      0.132000
     51 H19         8.2260   -1.0370   -7.0640 ha        1 V11      0.132500
@<TRIPOS>BOND
     1    1    2 2   
     2    2    3 1   
     3    2    9 1   
     4    3    4 ar  
     5    3    8 ar  
     6    4    5 ar  
     7    4   27 1   
     8    5    6 ar  
     9    5   29 1   
    10    6    7 ar  
    11    6   30 1   
    12    7    8 ar  
    13    7   31 1   
    14    8   28 1   
    15    9   10 1   
    16   10   11 1   
    17   10   16 1   
    18   10   32 1   
    19   11   12 1   
    20   11   33 1   
    21   11   34 1   
    22   12   13 1   
    23   12   17 1   
    24   12   37 1   
    25   13   14 1   
    26   13   38 1   
    27   13   39 1   
    28   14   15 1   
    29   14   40 1   
    30   14   41 1   
    31   15   16 1   
    32   15   17 1   
    33   15   42 1   
    34   16   35 1   
    35   16   36 1   
    36   17   18 1   
    37   18   19 1   
    38   18   43 1   
    39   18   44 1   
    40   19   20 1   
    41   19   21 1   
    42   19   45 1   
    43   20   46 1   
    44   21   22 ar  
    45   21   26 ar  
    46   22   23 ar  
    47   22   47 1   
    48   23   24 ar  
    49   23   49 1   
    50   24   25 ar  
    51   24   50 1   
    52   25   26 ar  
    53   25   51 1   
    54   26   48 1   
@<TRIPOS>SUBSTRUCTURE
     1 V11         1 TEMP              0 ****  ****    0 ROOT
