@<TRIPOS>MOLECULE
V11
   51    54     1     0     0
SMALL
bcc


@<TRIPOS>ATOM
      1 O2         -0.0480    0.2510   -0.1500 o         1 V11     -0.548000
      2 C1          1.1610    0.2030    0.1020 c         1 V11      0.646700
      3 C2          1.8000    0.2900    1.4250 ca        1 V11     -0.135600
      4 C7          3.1840    0.1440    1.5770 ca        1 V11     -0.073000
      5 C6          3.7530    0.2310    2.8470 ca        1 V11     -0.147500
      6 C5          2.9470    0.4630    3.9620 ca        1 V11     -0.098000
      7 C4          1.5680    0.6080    3.8110 ca        1 V11     -0.147500
      8 C3          0.9900    0.5220    2.5460 ca        1 V11     -0.073000
      9 O1          2.0440    0.0600   -0.9310 os        1 V11     -0.447900
     10 C8          1.5040   -0.0320   -2.2730 c3        1 V11      0.161100
     11 C12         1.0690   -1.4710   -2.5550 c3        1 V11     -0.073400
     12 C11         2.1800   -2.3350   -3.1670 c3        1 V11      0.157500
     13 C13         3.3620   -2.4430   -2.1630 c3        1 V11     -0.107400
     14 C14         4.2670   -1.2640   -2.5260 c3        1 V11     -0.107400
     15 C10         3.5400   -0.5830   -3.7190 c3        1 V11      0.157500
     16 C9          2.6070    0.5130   -3.1850 c3        1 V11     -0.073400
     17 N           2.7030   -1.6260   -4.3610 n3        1 V11     -0.691600
     18 C15         3.4340   -2.4890   -5.2720 c3        1 V11      0.161800
     19 C16         3.6390   -1.8420   -6.6640 c3        1 V11      0.189400
     20 O3          2.6070   -2.3740   -7.4850 oh        1 V11     -0.591800
     21 C17         5.0030   -2.1690   -7.2020 ca        1 V11     -0.130300
     22 C22         5.1990   -3.2680   -8.0460 ca        1 V11     -0.120000
     23 C21         6.4720   -3.5560   -8.5370 ca        1 V11     -0.130500
     24 C20         7.5560   -2.7500   -8.1890 ca        1 V11     -0.127000
     25 C19         7.3650   -1.6540   -7.3470 ca        1 V11     -0.130500
     26 C18         6.0940   -1.3630   -6.8560 ca        1 V11     -0.120000
     27 H7          3.8120   -0.0400    0.6910 ha        1 V11      0.155500
     28 H3         -0.0990    0.6330    2.4120 ha        1 V11      0.155500
     29 H6          4.8410    0.1160    2.9670 ha        1 V11      0.138500
     30 H5          3.4010    0.5320    4.9620 ha        1 V11      0.136000
     31 H4          0.9330    0.7910    4.6900 ha        1 V11      0.138500
     32 H8          0.6010    0.6400   -2.3350 h1        1 V11      0.071700
     33 H121        0.7220   -1.9430   -1.6000 hc        1 V11      0.060700
     34 H122        0.1980   -1.4410   -3.2620 hc        1 V11      0.060700
     35 H91C        2.1150    1.0340   -4.0470 hc        1 V11      0.060700
     36 H92C        3.2180    1.2640   -2.6220 hc        1 V11      0.060700
     37 H11         1.7720   -3.3430   -3.4380 h1        1 V11      0.064200
     38 H131        3.8930   -3.4170   -2.2880 hc        1 V11      0.050700
     39 H132        2.9980   -2.3680   -1.1120 hc        1 V11      0.050700
     40 H141        5.2840   -1.6070   -2.8300 hc        1 V11      0.050700
     41 H142        4.3700   -0.5550   -1.6700 hc        1 V11      0.050700
     42 H10         4.2670   -0.1450   -4.4510 h1        1 V11      0.064200
     43 H151        2.8330   -3.4310   -5.4260 h1        1 V11      0.053700
     44 H152        4.4440   -2.7800   -4.8650 h1        1 V11      0.053700
     45 H16         3.5270   -0.7200   -6.6150 h1        1 V11      0.051700
     46 HA          2.6990   -1.9600   -8.3510 ho        1 V11      0.401000
     47 H22         4.3400   -3.9020   -8.3140 ha        1 V11      0.138000
     48 H18         5.9450   -0.4980   -6.1920 ha        1 V11      0.138000
     49 H21         6.6190   -4.4210   -9.2000 ha        1 V11      0.132500
     50 H20         8.5590   -2.9780   -8.5770 ha        1 V11      0.132000
     51 H19         8.2180   -1.0180   -7.0710 ha        1 V11      0.132500
@<TRIPOS>BOND
     1    1    2 2   
     2    2    3 1   
     3    2    9 1   
     4    3    4 ar  
     5    3    8 ar  
     6    4    5 ar  
     7    4   27 1   
     8    5    6 ar  
     9    5   29 1   
    10    6    7 ar  
    11    6   30 1   
    12    7    8 ar  
    13    7   31 1   
    14    8   28 1   
    15    9   10 1   
    16   10   11 1   
    17   10   16 1   
    18   10   32 1   
    19   11   12 1   
    20   11   33 1   
    21   11   34 1   
    22   12   13 1   
    23   12   17 1   
    24   12   37 1   
    25   13   14 1   
    26   13   38 1   
    27   13   39 1   
    28   14   15 1   
    29   14   40 1   
    30   14   41 1   
    31   15   16 1   
    32   15   17 1   
    33   15   42 1   
    34   16   35 1   
    35   16   36 1   
    36   17   18 1   
    37   18   19 1   
    38   18   43 1   
    39   18   44 1   
    40   19   20 1   
    41   19   21 1   
    42   19   45 1   
    43   20   46 1   
    44   21   22 ar  
    45   21   26 ar  
    46   22   23 ar  
    47   22   47 1   
    48   23   24 ar  
    49   23   49 1   
    50   24   25 ar  
    51   24   50 1   
    52   25   26 ar  
    53   25   51 1   
    54   26   48 1   
@<TRIPOS>SUBSTRUCTURE
     1 V11         1 TEMP              0 ****  ****    0 ROOT
