@<TRIPOS>MOLECULE
V11
   51    54     1     0     0
SMALL
bcc


@<TRIPOS>ATOM
      1 O2         -0.0410    0.2880   -0.1610 o         1 V11     -0.548000
      2 C1          1.1660    0.2230    0.0970 c         1 V11      0.646700
      3 C2          1.8000    0.2960    1.4230 ca        1 V11     -0.135600
      4 C7          3.1820    0.1300    1.5800 ca        1 V11     -0.073000
      5 C6          3.7470    0.2040    2.8520 ca        1 V11     -0.147500
      6 C5          2.9390    0.4430    3.9640 ca        1 V11     -0.098000
      7 C4          1.5620    0.6070    3.8080 ca        1 V11     -0.147500
      8 C3          0.9890    0.5340    2.5400 ca        1 V11     -0.073000
      9 O1          2.0510    0.0710   -0.9340 os        1 V11     -0.447900
     10 C8          1.5160   -0.0090   -2.2790 c3        1 V11      0.161100
     11 C12         1.0620   -1.4400   -2.5680 c3        1 V11     -0.073400
     12 C11         2.1640   -2.3180   -3.1780 c3        1 V11      0.157500
     13 C13         3.3400   -2.4460   -2.1690 c3        1 V11     -0.107400
     14 C14         4.2620   -1.2780   -2.5230 c3        1 V11     -0.107400
     15 C10         3.5500   -0.5830   -3.7180 c3        1 V11      0.157500
     16 C9          2.6300    0.5240   -3.1840 c3        1 V11     -0.073400
     17 N           2.7010   -1.6120   -4.3670 n3        1 V11     -0.691600
     18 C15         3.4240   -2.4810   -5.2780 c3        1 V11      0.161800
     19 C16         3.6460   -1.8320   -6.6670 c3        1 V11      0.189400
     20 O3          2.6120   -2.3490   -7.4950 oh        1 V11     -0.591800
     21 C17         5.0090   -2.1740   -7.1980 ca        1 V11     -0.130300
     22 C22         5.1970   -3.2730   -8.0420 ca        1 V11     -0.120000
     23 C21         6.4680   -3.5750   -8.5280 ca        1 V11     -0.130500
     24 C20         7.5600   -2.7830   -8.1720 ca        1 V11     -0.127000
     25 C19         7.3770   -1.6860   -7.3290 ca        1 V11     -0.130500
     26 C18         6.1070   -1.3810   -6.8440 ca        1 V11     -0.120000
     27 H7          3.8120   -0.0590    0.6950 ha        1 V11      0.155500
     28 H3         -0.0970    0.6600    2.4030 ha        1 V11      0.155500
     29 H6          4.8320    0.0740    2.9770 ha        1 V11      0.138500
     30 H5          3.3890    0.5010    4.9670 ha        1 V11      0.136000
     31 H4          0.9270    0.7950    4.6860 ha        1 V11      0.138500
     32 H8          0.6230    0.6770   -2.3410 h1        1 V11      0.071700
     33 H121        0.7040   -1.9100   -1.6150 hc        1 V11      0.060700
     34 H122        0.1950   -1.3950   -3.2780 hc        1 V11      0.060700
     35 H91C        2.1490    1.0560   -4.0460 hc        1 V11      0.060700
     36 H92C        3.2500    1.2650   -2.6150 hc        1 V11      0.060700
     37 H11         1.7430   -3.3190   -3.4540 h1        1 V11      0.064200
     38 H131        3.8580   -3.4260   -2.2950 hc        1 V11      0.050700
     39 H132        2.9710   -2.3690   -1.1190 hc        1 V11      0.050700
     40 H141        5.2760   -1.6350   -2.8250 hc        1 V11      0.050700
     41 H142        4.3720   -0.5740   -1.6640 hc        1 V11      0.050700
     42 H10         4.2870   -0.1520   -4.4450 h1        1 V11      0.064200
     43 H151        4.4290   -2.7890   -4.8670 h1        1 V11      0.053700
     44 H152        2.8110   -3.4140   -5.4380 h1        1 V11      0.053700
     45 H16         3.5470   -0.7090   -6.6140 h1        1 V11      0.051700
     46 HA          2.7140   -1.9340   -8.3600 ho        1 V11      0.401000
     47 H22         4.3320   -3.8970   -8.3160 ha        1 V11      0.138000
     48 H18         5.9640   -0.5150   -6.1800 ha        1 V11      0.138000
     49 H21         6.6090   -4.4410   -9.1910 ha        1 V11      0.132500
     50 H20         8.5620   -3.0220   -8.5550 ha        1 V11      0.132000
     51 H19         8.2360   -1.0600   -7.0480 ha        1 V11      0.132500
@<TRIPOS>BOND
     1    1    2 2   
     2    2    3 1   
     3    2    9 1   
     4    3    4 ar  
     5    3    8 ar  
     6    4    5 ar  
     7    4   27 1   
     8    5    6 ar  
     9    5   29 1   
    10    6    7 ar  
    11    6   30 1   
    12    7    8 ar  
    13    7   31 1   
    14    8   28 1   
    15    9   10 1   
    16   10   11 1   
    17   10   16 1   
    18   10   32 1   
    19   11   12 1   
    20   11   33 1   
    21   11   34 1   
    22   12   13 1   
    23   12   17 1   
    24   12   37 1   
    25   13   14 1   
    26   13   38 1   
    27   13   39 1   
    28   14   15 1   
    29   14   40 1   
    30   14   41 1   
    31   15   16 1   
    32   15   17 1   
    33   15   42 1   
    34   16   35 1   
    35   16   36 1   
    36   17   18 1   
    37   18   19 1   
    38   18   43 1   
    39   18   44 1   
    40   19   20 1   
    41   19   21 1   
    42   19   45 1   
    43   20   46 1   
    44   21   22 ar  
    45   21   26 ar  
    46   22   23 ar  
    47   22   47 1   
    48   23   24 ar  
    49   23   49 1   
    50   24   25 ar  
    51   24   50 1   
    52   25   26 ar  
    53   25   51 1   
    54   26   48 1   
@<TRIPOS>SUBSTRUCTURE
     1 V11         1 TEMP              0 ****  ****    0 ROOT
