@<TRIPOS>MOLECULE
V11
   51    54     1     0     0
SMALL
bcc


@<TRIPOS>ATOM
      1 O2          3.8850   -2.0350   -0.9680 o         1 V11     -0.549000
      2 C1          3.8100   -0.9860   -0.3190 c         1 V11      0.646700
      3 C2          4.8880   -0.0190   -0.0560 ca        1 V11     -0.135600
      4 C7          4.6480    1.1660    0.6490 ca        1 V11     -0.073000
      5 C6          5.6940    2.0580    0.8790 ca        1 V11     -0.147500
      6 C5          6.9760    1.7700    0.4080 ca        1 V11     -0.097000
      7 C4          7.2150    0.5890   -0.2950 ca        1 V11     -0.147500
      8 C3          6.1750   -0.3080   -0.5300 ca        1 V11     -0.073000
      9 O1          2.6100   -0.6450    0.2400 os        1 V11     -0.447900
     10 C8          1.4930   -1.5470    0.0450 c3        1 V11      0.161100
     11 C12         0.8550   -1.2910   -1.3210 c3        1 V11     -0.073400
     12 C11        -0.2650   -0.2420   -1.2810 c3        1 V11      0.156000
     13 C13         0.3200    1.1230   -0.8240 c3        1 V11     -0.107400
     14 C14         0.1610    1.1050    0.6980 c3        1 V11     -0.107400
     15 C10        -0.5100   -0.2660    0.9920 c3        1 V11      0.156000
     16 C9          0.5790   -1.3180    1.2510 c3        1 V11     -0.073400
     17 N          -1.2400   -0.6560   -0.2380 n3        1 V11     -0.692600
     18 C15        -2.5360   -0.0250   -0.4060 c3        1 V11      0.124800
     19 C16        -3.5760   -0.3880    0.6770 c3        1 V11      0.189400
     20 O3         -3.5980   -1.7680    0.9840 oh        1 V11     -0.583800
     21 C17        -4.9230    0.1150    0.2370 ca        1 V11     -0.117300
     22 C22        -5.9670   -0.7670   -0.0590 ca        1 V11     -0.120000
     23 C21        -7.2110   -0.2770   -0.4550 ca        1 V11     -0.129500
     24 C20        -7.4220    1.0980   -0.5560 ca        1 V11     -0.128000
     25 C19        -6.3860    1.9830   -0.2540 ca        1 V11     -0.129500
     26 C18        -5.1430    1.4940    0.1430 ca        1 V11     -0.120000
     27 H7          3.6330    1.3850    1.0170 ha        1 V11      0.155500
     28 H3          6.3500   -1.2440   -1.0850 ha        1 V11      0.155500
     29 H6          5.5070    2.9890    1.4330 ha        1 V11      0.139000
     30 H5          7.8000    2.4770    0.5920 ha        1 V11      0.136000
     31 H4          8.2260    0.3640   -0.6660 ha        1 V11      0.139000
     32 H8          1.8890   -2.6030    0.0690 h1        1 V11      0.071700
     33 H121        1.6470   -0.9520   -2.0380 hc        1 V11      0.061950
     34 H122        0.4380   -2.2600   -1.7010 hc        1 V11      0.061950
     35 H91C        0.0940   -2.2960    1.5080 hc        1 V11      0.061950
     36 H92C        1.1940   -0.9900    2.1280 hc        1 V11      0.061950
     37 H11        -0.7540   -0.1670   -2.2860 h1        1 V11      0.068200
     38 H131        1.3910    1.2130   -1.1190 hc        1 V11      0.050700
     39 H132       -0.2490    1.9660   -1.2830 hc        1 V11      0.050700
     40 H141        1.1510    1.1780    1.2090 hc        1 V11      0.050700
     41 H142       -0.4860    1.9420    1.0510 hc        1 V11      0.050700
     42 H10        -1.2010   -0.2150    1.8730 h1        1 V11      0.068200
     43 H151       -2.4670    1.1020   -0.4370 h1        1 V11      0.043200
     44 H152       -2.9340   -0.3710   -1.4030 h1        1 V11      0.043200
     45 H16        -3.3090    0.1020    1.6590 h1        1 V11      0.076700
     46 HA         -3.4990   -2.2550    0.1560 ho        1 V11      0.408000
     47 H22        -5.8080   -1.8530    0.0370 ha        1 V11      0.135000
     48 H18        -4.3320    2.1960    0.3890 ha        1 V11      0.135000
     49 H21        -8.0270   -0.9770   -0.6850 ha        1 V11      0.132000
     50 H20        -8.4030    1.4840   -0.8690 ha        1 V11      0.132000
     51 H19        -6.5510    3.0680   -0.3260 ha        1 V11      0.132000
@<TRIPOS>BOND
     1    1    2 2   
     2    2    3 1   
     3    2    9 1   
     4    3    4 ar  
     5    3    8 ar  
     6    4    5 ar  
     7    4   27 1   
     8    5    6 ar  
     9    5   29 1   
    10    6    7 ar  
    11    6   30 1   
    12    7    8 ar  
    13    7   31 1   
    14    8   28 1   
    15    9   10 1   
    16   10   11 1   
    17   10   16 1   
    18   10   32 1   
    19   11   12 1   
    20   11   33 1   
    21   11   34 1   
    22   12   13 1   
    23   12   17 1   
    24   12   37 1   
    25   13   14 1   
    26   13   38 1   
    27   13   39 1   
    28   14   15 1   
    29   14   40 1   
    30   14   41 1   
    31   15   16 1   
    32   15   17 1   
    33   15   42 1   
    34   16   35 1   
    35   16   36 1   
    36   17   18 1   
    37   18   19 1   
    38   18   43 1   
    39   18   44 1   
    40   19   20 1   
    41   19   21 1   
    42   19   45 1   
    43   20   46 1   
    44   21   22 ar  
    45   21   26 ar  
    46   22   23 ar  
    47   22   47 1   
    48   23   24 ar  
    49   23   49 1   
    50   24   25 ar  
    51   24   50 1   
    52   25   26 ar  
    53   25   51 1   
    54   26   48 1   
@<TRIPOS>SUBSTRUCTURE
     1 V11         1 TEMP              0 ****  ****    0 ROOT
