@<TRIPOS>MOLECULE
V11
   51    49     1     0     0
SMALL
bcc


@<TRIPOS>ATOM
      1 O2         -1.4790    4.6290   -0.0330 o         1 V11     -0.359000
      2 C1         -0.4050    4.2700    0.4180 c1        1 V11      0.347000
      3 C2          0.8360    5.1650    0.2530 c2        1 V11     -0.115000
      4 C7          2.0420    4.6050   -0.1090 c2        1 V11     -0.073000
      5 C6          3.1410    5.4190   -0.3490 c1        1 V11     -0.149000
      6 C5          3.0260    6.8030   -0.2240 c1        1 V11     -0.125250
      7 C4          1.8200    7.3650    0.1390 c1        1 V11     -0.125250
      8 C3          0.7210    6.5550    0.3790 c1        1 V11     -0.073000
      9 O1         -0.2680    2.9590    0.9880 o         1 V11     -0.286000
     10 C8         -0.8690    1.9390    0.2330 c3        1 V11      0.050000
     11 C12        -1.5550    0.9370    1.2120 c3        1 V11     -0.152000
     12 C11        -1.0510   -0.4780    1.1180 c3        1 V11     -0.040000
     13 C13         0.2570   -0.5240    1.9070 c3        1 V11     -0.186000
     14 C14         1.3450   -0.3030    0.7330 c3        1 V11     -0.186000
     15 C10         0.4450   -0.1690   -0.4960 c3        1 V11     -0.040000
     16 C9          0.2240    1.2990   -0.7030 c3        1 V11     -0.152000
     17 N          -0.6040   -0.8560   -0.0750 n3        1 V11     -0.217000
     18 C15        -0.2830   -2.2600   -0.0460 c3        1 V11     -0.075000
     19 C16        -1.0390   -2.9660   -1.1310 c3        1 V11      0.071000
     20 O3         -2.3700   -2.5050   -1.1490 oh        1 V11     -0.319000
     21 C17        -1.0240   -4.4830   -0.8670 c2        1 V11     -0.123000
     22 C22        -0.3260   -5.3440   -1.7350 c2        1 V11     -0.123000
     23 C21        -0.3400   -6.7320   -1.5080 c1        1 V11     -0.131000
     24 C20        -1.0440   -7.2560   -0.4260 c1        1 V11     -0.125250
     25 C19        -1.7440   -6.3970    0.4430 c1        1 V11     -0.125250
     26 C18        -1.7320   -5.0110    0.2210 c1        1 V11     -0.117000
     27 H7          2.1240    3.6270   -0.1970 ha        1 V11      0.153000
     28 H3         -0.0970    6.9370    0.6260 ha        1 V11      0.158000
     29 H6          4.0170    5.0110   -0.6110 ha        1 V11      0.138000
     30 H5          3.8090    7.3800   -0.3950 ha        1 V11      0.135000
     31 H4          1.7430    8.3080    0.2240 ha        1 V11      0.135000
     32 H8         -1.5700    2.3440   -0.3390 h1        1 V11      0.111000
     33 H121       -1.4200    1.2560    2.1270 hc        1 V11      0.100000
     34 H122       -2.5100    0.9330    1.0240 hc        1 V11      0.100000
     35 H91C        1.0820    1.7680   -0.5510 hc        1 V11      0.100000
     36 H92C       -0.0480    1.4420   -1.6410 hc        1 V11      0.100000
     37 H11        -1.7030   -1.1190    1.4770 h1        1 V11      0.103500
     38 H131        0.3000    0.2320    2.5910 hc        1 V11      0.090000
     39 H132        0.3800   -1.4210    2.3480 hc        1 V11      0.090000
     40 H141        1.9230   -1.0690    0.6510 hc        1 V11      0.090000
     41 H142        1.8610    0.5150    0.8820 hc        1 V11      0.090000
     42 H10         0.8520   -0.5810   -1.2750 h1        1 V11      0.103500
     43 H151        0.6630   -2.3780   -0.1840 h1        1 V11      0.093000
     44 H152       -0.5330   -2.6280    0.8160 h1        1 V11      0.093000
     45 H16        -0.6140   -2.7800   -2.0000 h1        1 V11      0.091000
     46 HA         -2.7730   -2.7560   -1.9390 ho        1 V11      0.200000
     47 H22         0.1630   -4.9830   -2.4830 ha        1 V11      0.130000
     48 H18        -2.2460   -4.3820    0.8600 ha        1 V11      0.146000
     49 H21         0.1550   -7.3420   -2.1230 ha        1 V11      0.132000
     50 H20        -1.0530   -8.2160   -0.2720 ha        1 V11      0.135000
     51 H19        -2.2300   -6.7610    1.1890 ha        1 V11      0.135000
@<TRIPOS>BOND
     1    1    2 1   
     2    2    3 1   
     3    3    4 1   
     4    3    8 1   
     5    4    5 1   
     6    4   27 1   
     7    5   29 1   
     8    6    7 1   
     9    6   30 1   
    10    7   31 1   
    11    8   28 1   
    12    9   10 1   
    13   10   11 1   
    14   10   16 1   
    15   10   32 1   
    16   11   12 1   
    17   11   33 1   
    18   11   34 1   
    19   12   13 1   
    20   12   17 1   
    21   12   37 1   
    22   13   14 1   
    23   13   38 1   
    24   13   39 1   
    25   14   15 1   
    26   14   40 1   
    27   14   41 1   
    28   15   16 1   
    29   15   17 1   
    30   15   42 1   
    31   16   35 1   
    32   16   36 1   
    33   17   18 1   
    34   18   19 1   
    35   18   43 1   
    36   18   44 1   
    37   19   20 1   
    38   19   21 1   
    39   19   45 1   
    40   20   46 1   
    41   21   22 1   
    42   21   26 1   
    43   22   23 1   
    44   22   47 1   
    45   23   49 1   
    46   24   25 1   
    47   24   50 1   
    48   25   51 1   
    49   26   48 1   
@<TRIPOS>SUBSTRUCTURE
     1 V11         1 TEMP              0 ****  ****    0 ROOT
