@<TRIPOS>MOLECULE
V12
   51    54     1     0     0
SMALL
bcc


@<TRIPOS>ATOM
      1 OAC         0.3530    2.0100   -0.7660 o         1 V12     -0.605500
      2 CAV         1.3410    1.2770   -0.9450 c         1 V12      0.858900
      3 NAO         2.5460    1.5100   -0.2240 nc        1 V12     -0.621100
      4 CAT         3.5570    0.6790   -0.4140 cd        1 V12      0.618500
      5 NAA         4.8090    0.9330    0.3450 nz        1 V12     -0.802600
      6 CAF         3.5350   -0.4490   -1.3000 cd        1 V12     -0.410600
      7 CAG         2.3610   -0.6460   -2.0110 cc        1 V12      0.123600
      8 NBD         1.2770    0.1780   -1.8670 n         1 V12     -0.353000
      9 CBC         0.0980   -0.0840   -2.7140 c3        1 V12      0.259500
     10 OAS        -0.7250    1.0750   -2.8310 os        1 V12     -0.401600
     11 CBA        -0.7870   -1.2710   -2.2030 c3        1 V12      0.088100
     12 OAE        -0.6130   -2.3730   -3.0460 oh        1 V12     -0.568800
     13 CAZ        -2.2280   -0.7130   -2.1810 c3        1 V12      0.099100
     14 OAD        -2.9790   -1.2810   -3.2320 oh        1 V12     -0.581800
     15 CB0        -2.0910    0.7910   -2.4930 c3        1 V12      0.111100
     16 CAN        -2.5130    1.6400   -1.2890 c3        1 V12      0.100800
     17 NAQ        -2.2650    3.0890   -1.5140 ny        1 V12     -0.677800
     18 CAU        -2.7320    3.9510   -0.3700 c         1 V12      0.564100
     19 OAB        -2.9990    3.3920    0.6820 o         1 V12     -0.411100
     20 CAL        -2.7970    5.4350   -0.6270 c3        1 V12     -0.157700
     21 CA0        -3.6160    5.7770   -1.8250 cc        1 V12      0.358800
     22 NAR        -3.7090    5.0060   -2.9380 nd        1 V12     -0.659100
     23 CAY        -4.5440    5.7000   -3.8210 ca        1 V12      0.078400
     24 CAK        -4.9970    5.3940   -5.1180 ca        1 V12     -0.078000
     25 CAI        -5.8300    6.3030   -5.7450 ca        1 V12     -0.119000
     26 CAH        -6.2270    7.5080   -5.1250 ca        1 V12     -0.081000
     27 CAJ        -5.8050    7.8500   -3.8520 ca        1 V12     -0.119000
     28 CAX        -4.9600    6.9440   -3.1930 ca        1 V12     -0.058200
     29 NAP        -4.3600    6.9620   -1.9290 na        1 V12     -0.230300
     30 HAA1        5.0190    0.1050    0.9180 hn        1 V12      0.488133
     31 HAA2        4.7210    1.7580    0.9590 hn        1 V12      0.488133
     32 HAF         4.3860   -1.1320   -1.4280 ha        1 V12      0.201000
     33 HAG         2.2630   -1.4980   -2.7230 h4        1 V12      0.221000
     34 HBC         0.4860   -0.2940   -3.7600 h2        1 V12      0.121700
     35 HBA        -0.4790   -1.6300   -1.1830 h1        1 V12      0.109700
     36 HB0        -2.6880    1.0590   -3.4150 h1        1 V12      0.130700
     37 HAE        -1.1560   -2.2540   -3.8450 ho        1 V12      0.445000
     38 HAZ        -2.7120   -0.8920   -1.1850 h1        1 V12      0.089700
     39 HAD        -3.3960   -2.0900   -2.8980 ho        1 V12      0.449000
     40 HAN1       -1.9350    1.3330   -0.3690 hx        1 V12      0.119700
     41 HAN2       -3.6150    1.4890   -1.0990 hx        1 V12      0.119700
     42 HAQ        -2.7540    3.4050   -2.3870 hn        1 V12      0.496300
     43 HAL1       -3.2290    5.9100    0.3030 hc        1 V12      0.126700
     44 HAL2       -1.7490    5.8300   -0.7610 hc        1 V12      0.126700
     45 HAP        -4.4360    7.6760   -1.2520 hn        1 V12      0.327700
     46 HAK        -4.6940    4.4600   -5.6110 ha        1 V12      0.150000
     47 HAI        -6.1990    6.0880   -6.7620 ha        1 V12      0.159000
     48 HAH        -6.8930    8.1930   -5.6770 ha        1 V12      0.162000
     49 HAJ        -6.1190    8.7900   -3.3760 ha        1 V12      0.160000
     50 HAA3        5.5740    1.0890   -0.3250 hn        1 V12      0.488133
     51 HAQ2       -1.2520    3.2280   -1.6460 hn        1 V12      0.496300
@<TRIPOS>BOND
     1    1    2 2   
     2    2    3 1   
     3    2    8 1   
     4    3    4 2   
     5    4    5 1   
     6    4    6 1   
     7    5   30 1   
     8    5   31 1   
     9    5   50 1   
    10    6    7 2   
    11    6   32 1   
    12    7    8 1   
    13    7   33 1   
    14    8    9 1   
    15    9   10 1   
    16    9   11 1   
    17    9   34 1   
    18   10   15 1   
    19   11   12 1   
    20   11   13 1   
    21   11   35 1   
    22   12   37 1   
    23   13   14 1   
    24   13   15 1   
    25   13   38 1   
    26   14   39 1   
    27   15   16 1   
    28   15   36 1   
    29   16   17 1   
    30   16   40 1   
    31   16   41 1   
    32   17   18 1   
    33   17   42 1   
    34   17   51 1   
    35   18   19 2   
    36   18   20 1   
    37   20   21 1   
    38   20   43 1   
    39   20   44 1   
    40   21   22 2   
    41   21   29 1   
    42   22   23 1   
    43   23   24 ar  
    44   23   28 ar  
    45   24   25 ar  
    46   24   46 1   
    47   25   26 ar  
    48   25   47 1   
    49   26   27 ar  
    50   26   48 1   
    51   27   28 ar  
    52   27   49 1   
    53   28   29 1   
    54   29   45 1   
@<TRIPOS>SUBSTRUCTURE
     1 V12         1 TEMP              0 ****  ****    0 ROOT
