@<TRIPOS>MOLECULE
V12
   51    54     1     0     0
SMALL
bcc


@<TRIPOS>ATOM
      1 OAC         0.2470    1.9110   -0.6650 o         1 V12     -0.605500
      2 CAV         1.3100    1.2950   -0.8530 c         1 V12      0.858900
      3 NAO         2.4160    1.4880    0.0230 nc        1 V12     -0.621100
      4 CAT         3.5110    0.7800   -0.1900 cd        1 V12      0.618500
      5 NAA         4.6580    0.9890    0.7320 n4        1 V12     -0.802600
      6 CAF         3.6760   -0.1760   -1.2470 cd        1 V12     -0.410600
      7 CAG         2.5970   -0.3340   -2.1040 cc        1 V12      0.123600
      8 NBD         1.4340    0.3710   -1.9450 n         1 V12     -0.353000
      9 CBC         0.3690    0.1740   -2.9460 c3        1 V12      0.259500
     10 OAS        -0.5410    1.2720   -2.9600 os        1 V12     -0.401600
     11 CBA        -0.4480   -1.1460   -2.7370 c3        1 V12      0.088100
     12 OAE        -0.0960   -2.0700   -3.7260 oh        1 V12     -0.568800
     13 CAZ        -1.9300   -0.7070   -2.7800 c3        1 V12      0.099100
     14 OAD        -2.5230   -1.1390   -3.9860 oh        1 V12     -0.581800
     15 CB0        -1.9020    0.8340   -2.8240 c3        1 V12      0.111100
     16 CAN        -2.5110    1.4280   -1.5490 c3        1 V12      0.100800
     17 NAQ        -2.3760    2.9080   -1.5040 n4        1 V12     -0.677800
     18 CAU        -3.0250    3.5220   -0.2930 c         1 V12      0.564100
     19 OAB        -3.3410    2.7720    0.6180 o         1 V12     -0.411100
     20 CAL        -3.2000    5.0200   -0.3060 c3        1 V12     -0.157700
     21 CA0        -3.9280    5.5040   -1.5140 cc        1 V12      0.358800
     22 NAR        -3.8440    4.9330   -2.7430 nd        1 V12     -0.659100
     23 CAY        -4.6490    5.7070   -3.5850 ca        1 V12      0.078400
     24 CAK        -4.9470    5.5990   -4.9560 ca        1 V12     -0.078000
     25 CAI        -5.7940    6.5390   -5.5130 ca        1 V12     -0.119000
     26 CAH        -6.3560    7.5860   -4.7500 ca        1 V12     -0.081000
     27 CAJ        -6.0910    7.7320   -3.3990 ca        1 V12     -0.119000
     28 CAX        -5.2340    6.7890   -2.8100 ca        1 V12     -0.058200
     29 NAP        -4.7620    6.6320   -1.5030 na        1 V12     -0.230300
     30 HAA1        4.4370    1.6860    1.4600 hn        1 V12      0.488133
     31 HAA2        5.4650    1.3160    0.1840 hn        1 V12      0.488133
     32 HAF         4.5940   -0.7610   -1.3930 ha        1 V12      0.201000
     33 HAG         2.6450   -1.0540   -2.9540 h4        1 V12      0.221000
     34 HBC         0.8720    0.1770   -3.9650 h2        1 V12      0.121700
     35 HBA        -0.2070   -1.6520   -1.7620 h1        1 V12      0.109700
     36 HB0        -2.4300    1.2120   -3.7480 h1        1 V12      0.130700
     37 HAE        -0.5690   -1.8550   -4.5480 ho        1 V12      0.445000
     38 HAZ        -2.4880   -1.0920   -1.8860 h1        1 V12      0.089700
     39 HAD        -2.8940   -2.0210   -3.8370 ho        1 V12      0.449000
     40 HAN1       -3.6070    1.1660   -1.5080 hx        1 V12      0.119700
     41 HAN2       -1.9970    1.0100   -0.6350 hx        1 V12      0.119700
     42 HAQ        -1.3710    3.1420   -1.5010 hn        1 V12      0.496300
     43 HAL1       -3.7600    5.2940    0.6360 hc        1 V12      0.126700
     44 HAL2       -2.1840    5.5070   -0.2580 hc        1 V12      0.126700
     45 HAP        -4.9670    7.2100   -0.7290 hn        1 V12      0.327700
     46 HAK        -4.5150    4.7890   -5.5600 ha        1 V12      0.150000
     47 HAI        -6.0440    6.4770   -6.5850 ha        1 V12      0.159000
     48 HAH        -7.0260    8.3060   -5.2500 ha        1 V12      0.162000
     49 HAJ        -6.5320    8.5500   -2.8120 ha        1 V12      0.160000
     50 HAA3        4.8880    0.0920    1.1790 hn        1 V12      0.488133
     51 HAQ2       -2.8050    3.3340   -2.3620 hn        1 V12      0.496300
@<TRIPOS>BOND
     1    1    2 2   
     2    2    3 1   
     3    2    8 1   
     4    3    4 2   
     5    4    5 1   
     6    4    6 1   
     7    5   30 1   
     8    5   31 1   
     9    5   50 1   
    10    6    7 2   
    11    6   32 1   
    12    7    8 1   
    13    7   33 1   
    14    8    9 1   
    15    9   10 1   
    16    9   11 1   
    17    9   34 1   
    18   10   15 1   
    19   11   12 1   
    20   11   13 1   
    21   11   35 1   
    22   12   37 1   
    23   13   14 1   
    24   13   15 1   
    25   13   38 1   
    26   14   39 1   
    27   15   16 1   
    28   15   36 1   
    29   16   17 1   
    30   16   40 1   
    31   16   41 1   
    32   17   18 1   
    33   17   42 1   
    34   17   51 1   
    35   18   19 2   
    36   18   20 1   
    37   20   21 1   
    38   20   43 1   
    39   20   44 1   
    40   21   22 2   
    41   21   29 1   
    42   22   23 1   
    43   23   24 ar  
    44   23   28 ar  
    45   24   25 ar  
    46   24   46 1   
    47   25   26 ar  
    48   25   47 1   
    49   26   27 ar  
    50   26   48 1   
    51   27   28 ar  
    52   27   49 1   
    53   28   29 1   
    54   29   45 1   
@<TRIPOS>SUBSTRUCTURE
     1 V12         1 TEMP              0 ****  ****    0 ROOT
