@<TRIPOS>MOLECULE
V12
   51    54     1     0     0
SMALL
bcc


@<TRIPOS>ATOM
      1 OAC         0.2540    1.9240   -0.6730 o         1 V12     -0.605500
      2 CAV         1.3090    1.2950   -0.8600 c         1 V12      0.858900
      3 NAO         2.4250    1.4940    0.0010 nc        1 V12     -0.621100
      4 CAT         3.5120    0.7720   -0.2090 cd        1 V12      0.618500
      5 NAA         4.6690    0.9880    0.6980 n4        1 V12     -0.802600
      6 CAF         3.6580   -0.2050   -1.2500 cd        1 V12     -0.410600
      7 CAG         2.5700   -0.3680   -2.0940 cc        1 V12      0.123600
      8 NBD         1.4150    0.3500   -1.9360 n         1 V12     -0.353000
      9 CBC         0.3380    0.1440   -2.9240 c3        1 V12      0.259500
     10 OAS        -0.5620    1.2490   -2.9490 os        1 V12     -0.401600
     11 CBA        -0.4890   -1.1640   -2.6820 c3        1 V12      0.088100
     12 OAE        -0.1550   -2.1100   -3.6560 oh        1 V12     -0.568800
     13 CAZ        -1.9670   -0.7130   -2.7190 c3        1 V12      0.099100
     14 OAD        -2.5760   -1.1610   -3.9110 oh        1 V12     -0.581800
     15 CB0        -1.9250    0.8270   -2.7920 c3        1 V12      0.111100
     16 CAN        -2.5170    1.4510   -1.5230 c3        1 V12      0.100800
     17 NAQ        -2.3670    2.9300   -1.5070 n4        1 V12     -0.677800
     18 CAU        -3.0010    3.5730   -0.3020 c         1 V12      0.564100
     19 OAB        -3.3170    2.8430    0.6250 o         1 V12     -0.411100
     20 CAL        -3.1600    5.0720   -0.3420 c3        1 V12     -0.157700
     21 CA0        -3.8930    5.5420   -1.5530 cc        1 V12      0.358800
     22 NAR        -3.8240    4.9470   -2.7710 nd        1 V12     -0.659100
     23 CAY        -4.6280    5.7140   -3.6220 ca        1 V12      0.078400
     24 CAK        -4.9380    5.5840   -4.9880 ca        1 V12     -0.078000
     25 CAI        -5.7790    6.5230   -5.5550 ca        1 V12     -0.119000
     26 CAH        -6.3240    7.5900   -4.8080 ca        1 V12     -0.081000
     27 CAJ        -6.0460    7.7580   -3.4620 ca        1 V12     -0.119000
     28 CAX        -5.1950    6.8170   -2.8620 ca        1 V12     -0.058200
     29 NAP        -4.7140    6.6780   -1.5560 na        1 V12     -0.230300
     30 HAA1        4.4620    1.7000    1.4150 hn        1 V12      0.488133
     31 HAA2        4.8960    0.0970    1.1600 hn        1 V12      0.488133
     32 HAF         4.5690   -0.8010   -1.3940 ha        1 V12      0.201000
     33 HAG         2.6030   -1.1050   -2.9300 h4        1 V12      0.221000
     34 HBC         0.8310    0.1220   -3.9460 h2        1 V12      0.121700
     35 HBA        -0.2430   -1.6540   -1.7000 h1        1 V12      0.109700
     36 HB0        -2.4590    1.1930   -3.7180 h1        1 V12      0.130700
     37 HAE        -0.6340   -1.9060   -4.4780 ho        1 V12      0.445000
     38 HAZ        -2.5200   -1.0750   -1.8120 h1        1 V12      0.089700
     39 HAD        -2.9540   -2.0380   -3.7420 ho        1 V12      0.449000
     40 HAN1       -3.6150    1.2000   -1.4670 hx        1 V12      0.119700
     41 HAN2       -1.9980    1.0450   -0.6060 hx        1 V12      0.119700
     42 HAQ        -1.3610    3.1540   -1.5160 hn        1 V12      0.496300
     43 HAL1       -2.1390    5.5490   -0.3100 hc        1 V12      0.126700
     44 HAL2       -3.7100    5.3690    0.5990 hc        1 V12      0.126700
     45 HAP        -4.9070    7.2730   -0.7910 hn        1 V12      0.327700
     46 HAK        -4.5190    4.7580   -5.5800 ha        1 V12      0.150000
     47 HAI        -6.0390    6.4440   -6.6240 ha        1 V12      0.159000
     48 HAH        -6.9890    8.3080   -5.3160 ha        1 V12      0.162000
     49 HAJ        -6.4730    8.5910   -2.8860 ha        1 V12      0.160000
     50 HAA3        5.4740    1.2970    0.1360 hn        1 V12      0.488133
     51 HAQ2       -2.8010    3.3440   -2.3690 hn        1 V12      0.496300
@<TRIPOS>BOND
     1    1    2 2   
     2    2    3 1   
     3    2    8 1   
     4    3    4 2   
     5    4    5 1   
     6    4    6 1   
     7    5   30 1   
     8    5   31 1   
     9    5   50 1   
    10    6    7 2   
    11    6   32 1   
    12    7    8 1   
    13    7   33 1   
    14    8    9 1   
    15    9   10 1   
    16    9   11 1   
    17    9   34 1   
    18   10   15 1   
    19   11   12 1   
    20   11   13 1   
    21   11   35 1   
    22   12   37 1   
    23   13   14 1   
    24   13   15 1   
    25   13   38 1   
    26   14   39 1   
    27   15   16 1   
    28   15   36 1   
    29   16   17 1   
    30   16   40 1   
    31   16   41 1   
    32   17   18 1   
    33   17   42 1   
    34   17   51 1   
    35   18   19 2   
    36   18   20 1   
    37   20   21 1   
    38   20   43 1   
    39   20   44 1   
    40   21   22 2   
    41   21   29 1   
    42   22   23 1   
    43   23   24 ar  
    44   23   28 ar  
    45   24   25 ar  
    46   24   46 1   
    47   25   26 ar  
    48   25   47 1   
    49   26   27 ar  
    50   26   48 1   
    51   27   28 ar  
    52   27   49 1   
    53   28   29 1   
    54   29   45 1   
@<TRIPOS>SUBSTRUCTURE
     1 V12         1 TEMP              0 ****  ****    0 ROOT
