@<TRIPOS>MOLECULE
V12
   49    52     1     0     0
SMALL
bcc


@<TRIPOS>ATOM
      1 OAC         4.0270    0.1720    1.2700 o         1 V12     -0.645500
      2 CAV         4.2340    0.6090    0.1180 c         1 V12      0.842900
      3 NAO         5.0010    1.7570   -0.1010 nc        1 V12     -0.728100
      4 CAT         5.1790    2.1960   -1.3620 cd        1 V12      0.764500
      5 NAA         5.9580    3.3020   -1.5960 nh        1 V12     -0.925800
      6 CAF         4.5720    1.5140   -2.5060 cd        1 V12     -0.423600
      7 CAG         3.8270    0.3920   -2.2620 cc        1 V12      0.072600
      8 NBD         3.6620   -0.1200   -0.9950 n         1 V12     -0.393000
      9 CBC         2.8070   -1.2870   -0.8260 c3        1 V12      0.269500
     10 OAS         1.4490   -0.8960   -0.5740 os        1 V12     -0.433600
     11 CBA         3.2250   -2.2690    0.3100 c3        1 V12      0.095100
     12 OAE         3.2920   -3.5830   -0.1910 oh        1 V12     -0.589800
     13 CAZ         2.1300   -2.1150    1.3890 c3        1 V12      0.091100
     14 OAD         1.5380   -3.3700    1.6740 oh        1 V12     -0.596800
     15 CB0         1.0400   -1.2270    0.7620 c3        1 V12      0.112100
     16 CAN         0.8320    0.0550    1.5860 c3        1 V12      0.060000
     17 NAQ        -0.1040    0.9770    1.0060 n         1 V12     -0.537900
     18 CAU        -1.3850    1.1310    1.4900 c         1 V12      0.654100
     19 OAB        -1.7600    0.5840    2.5500 o         1 V12     -0.629100
     20 CAL        -2.3180    2.0700    0.7350 c3        1 V12     -0.167700
     21 CA0        -3.5320    1.3380    0.2680 cc        1 V12      0.404800
     22 NAR        -4.0730    1.4210   -0.9690 nd        1 V12     -0.567100
     23 CAY        -5.2090    0.5920   -0.9340 ca        1 V12      0.061400
     24 CAK        -6.1610    0.2860   -1.9180 ca        1 V12     -0.070000
     25 CAI        -7.1880   -0.5850   -1.5890 ca        1 V12     -0.155000
     26 CAH        -7.2950   -1.1580   -0.3080 ca        1 V12     -0.113000
     27 CAJ        -6.3800   -0.8820    0.6950 ca        1 V12     -0.132000
     28 CAX        -5.3320   -0.0050    0.3870 ca        1 V12     -0.070200
     29 NAP        -4.2710    0.5020    1.1370 na        1 V12     -0.263300
     30 HAA1        6.3460    3.8170   -0.8440 hn        1 V12      0.445300
     31 HAA2        6.0050    3.6680   -2.5120 hn        1 V12      0.445300
     32 HAF         4.7070    1.8910   -3.5250 ha        1 V12      0.157000
     33 HAG         3.3330   -0.1530   -3.0910 h4        1 V12      0.160000
     34 HBC         2.7690   -1.8400   -1.8150 h2        1 V12      0.089700
     35 HBA         4.2510   -2.0570    0.7160 h1        1 V12      0.126700
     36 HB0         0.0750   -1.7960    0.6440 h1        1 V12      0.096700
     37 HAE         2.3860   -3.8860   -0.3560 ho        1 V12      0.418000
     38 HAZ         2.5580   -1.6510    2.3170 h1        1 V12      0.091700
     39 HAD         2.2260   -3.9170    2.0750 ho        1 V12      0.419000
     40 HAN1        0.4740   -0.2470    2.6120 h1        1 V12      0.090200
     41 HAN2        1.8250    0.5850    1.6850 h1        1 V12      0.090200
     42 HAQ         0.0910    1.2670    0.0750 hn        1 V12      0.319500
     43 HAL1       -2.6300    2.8780    1.4530 hc        1 V12      0.094200
     44 HAL2       -1.8170    2.5620   -0.1400 hc        1 V12      0.094200
     45 HAP        -3.9780    0.2190    2.0390 hn        1 V12      0.329700
     46 HAK        -6.0860    0.7310   -2.9200 ha        1 V12      0.145000
     47 HAI        -7.9450   -0.8380   -2.3470 ha        1 V12      0.131000
     48 HAH        -8.1310   -1.8440   -0.1020 ha        1 V12      0.131000
     49 HAJ        -6.4710   -1.3310    1.6930 ha        1 V12      0.138000
@<TRIPOS>BOND
     1    1    2 2   
     2    2    3 1   
     3    2    8 1   
     4    3    4 2   
     5    4    5 1   
     6    4    6 1   
     7    5   30 1   
     8    5   31 1   
     9    6    7 2   
    10    6   32 1   
    11    7    8 1   
    12    7   33 1   
    13    8    9 1   
    14    9   10 1   
    15    9   11 1   
    16    9   34 1   
    17   10   15 1   
    18   11   12 1   
    19   11   13 1   
    20   11   35 1   
    21   12   37 1   
    22   13   14 1   
    23   13   15 1   
    24   13   38 1   
    25   14   39 1   
    26   15   16 1   
    27   15   36 1   
    28   16   17 1   
    29   16   40 1   
    30   16   41 1   
    31   17   18 1   
    32   17   42 1   
    33   18   19 2   
    34   18   20 1   
    35   20   21 1   
    36   20   43 1   
    37   20   44 1   
    38   21   22 2   
    39   21   29 1   
    40   22   23 1   
    41   23   24 ar  
    42   23   28 ar  
    43   24   25 ar  
    44   24   46 1   
    45   25   26 ar  
    46   25   47 1   
    47   26   27 ar  
    48   26   48 1   
    49   27   28 ar  
    50   27   49 1   
    51   28   29 1   
    52   29   45 1   
@<TRIPOS>SUBSTRUCTURE
     1 V12         1 TEMP              0 ****  ****    0 ROOT
