@<TRIPOS>MOLECULE
V13
   27    27     1     0     0
SMALL
bcc


@<TRIPOS>ATOM
      1 O20        -3.0570   -1.2290   -1.3500 o         1 V13     -0.625300
      2 S15        -2.6610   -0.0280   -0.7680 sy        1 V13      1.383300
      3 O19        -2.9250    1.1500   -1.4610 o         1 V13     -0.625300
      4 C16        -3.2360    0.0780    0.8250 c3        1 V13     -0.345600
      5 C17        -4.7540    0.1140    0.8950 c3        1 V13      0.164400
      6 O18        -5.0990    0.1670    2.2680 oh        1 V13     -0.592800
      7 C1         -0.9700   -0.1010   -0.4080 ca        1 V13     -0.329500
      8 C6         -0.2630    1.0450    0.0130 ca        1 V13      0.183400
      9 F11        -0.9090    2.2140    0.2170 f         1 V13     -0.088400
     10 C5          1.1370    1.0080    0.2470 ca        1 V13      0.176400
     11 F12         1.7420    2.1490    0.6500 f         1 V13     -0.094900
     12 C4          1.8830   -0.1730    0.0760 ca        1 V13     -0.306500
     13 S7          3.6290   -0.1870    0.3020 sy        1 V13      1.517200
     14 O9          4.1530    0.7030   -0.6410 o         1 V13     -0.626300
     15 N10         3.7730    0.3870    1.7750 n3        1 V13     -1.029700
     16 O8          4.0420   -1.5240    0.2620 o         1 V13     -0.626300
     17 C3          1.1820   -1.3190   -0.3250 ca        1 V13      0.176400
     18 F13         1.8120   -2.4980   -0.5030 f         1 V13     -0.094900
     19 C2         -0.2280   -1.2840   -0.5620 ca        1 V13      0.183400
     20 F14        -0.8240   -2.4330   -0.9400 f         1 V13     -0.088400
     21 H1         -2.8960   -0.7820    1.4650 h1        1 V13      0.135200
     22 H2         -2.8540    0.9960    1.3520 h1        1 V13      0.135200
     23 H3         -5.1450    1.0250    0.3640 h1        1 V13      0.044200
     24 H4         -5.1860   -0.8120    0.4250 h1        1 V13      0.044200
     25 H5         -6.0620    0.1960    2.3090 ho        1 V13      0.411000
     26 H6          3.8990   -0.1810    2.5770 hn        1 V13      0.460800
     27 H7          3.7520    1.3540    1.9930 hn        1 V13      0.460800
@<TRIPOS>BOND
     1    1    2 2   
     2    2    3 2   
     3    2    4 1   
     4    2    7 1   
     5    4    5 1   
     6    4   21 1   
     7    4   22 1   
     8    5    6 1   
     9    5   23 1   
    10    5   24 1   
    11    6   25 1   
    12    7    8 ar  
    13    7   19 ar  
    14    8    9 1   
    15    8   10 ar  
    16   10   11 1   
    17   10   12 ar  
    18   12   13 1   
    19   12   17 ar  
    20   13   14 2   
    21   13   15 1   
    22   13   16 2   
    23   15   26 1   
    24   15   27 1   
    25   17   18 1   
    26   17   19 ar  
    27   19   20 1   
@<TRIPOS>SUBSTRUCTURE
     1 V13         1 TEMP              0 ****  ****    0 ROOT
