@<TRIPOS>MOLECULE
V13
   28    28     1     0     0
SMALL
bcc


@<TRIPOS>ATOM
      1 O20        -0.0280   -0.1330    0.1040 o         1 V13     -0.597800
      2 S15         1.3520   -0.0420    0.1090 sy        1 V13      1.375300
      3 O19         2.0390    0.0720    1.3040 o         1 V13     -0.597800
      4 C16         2.0670   -1.1460   -0.9330 c3        1 V13     -0.375600
      5 C17         1.8490   -2.5950   -0.5070 c3        1 V13      0.168400
      6 O18         2.4540   -3.3920   -1.5080 oh        1 V13     -0.591800
      7 C1          1.7570    1.4350   -0.8280 ca        1 V13     -0.234500
      8 C6          3.0660    1.9620   -0.8190 ca        1 V13      0.204400
      9 F11         4.0710    1.3040   -0.2080 f         1 V13     -0.057400
     10 C5          3.3650    3.1880   -1.4590 ca        1 V13      0.192400
     11 F12         4.6410    3.6380   -1.4440 f         1 V13     -0.082900
     12 C4          2.3720    3.9560   -2.1260 ca        1 V13     -0.491500
     13 S7          2.6870    5.4710   -2.6940 sy        1 V13      1.469200
     14 O9          3.4180    6.2570   -1.8400 o         1 V13     -0.531800
     15 N10         4.0150    5.0040   -3.9580 n4        1 V13     -0.794500
     16 O8          1.7090    5.9740   -3.5150 o         1 V13     -0.531800
     17 C3          1.0790    3.3840   -2.1820 ca        1 V13      0.192400
     18 F13         0.0870    4.0140   -2.8350 f         1 V13     -0.082900
     19 C2          0.7780    2.1400   -1.5370 ca        1 V13      0.204400
     20 F14        -0.4830    1.6860   -1.6410 f         1 V13     -0.057400
     21 H1          3.1820   -1.0030   -1.0190 h1        1 V13      0.144700
     22 H2          1.6890   -1.0720   -1.9910 h1        1 V13      0.144700
     23 H3          0.7490   -2.8190   -0.4440 h1        1 V13      0.051200
     24 H4          2.3360   -2.7850    0.4890 h1        1 V13      0.051200
     25 H5          2.3330   -4.3140   -1.2430 ho        1 V13      0.427000
     26 H6          3.7230    5.2580   -4.9030 hn        1 V13      0.467133
     27 H7          4.8840    5.5040   -3.7570 hn        1 V13      0.467133
     28 H103        4.2350    4.0100   -3.9590 hn        1 V13      0.467133
@<TRIPOS>BOND
     1    1    2 2   
     2    2    3 2   
     3    2    4 1   
     4    2    7 1   
     5    4    5 1   
     6    4   21 1   
     7    4   22 1   
     8    5    6 1   
     9    5   23 1   
    10    5   24 1   
    11    6   25 1   
    12    7    8 ar  
    13    7   19 ar  
    14    8    9 1   
    15    8   10 ar  
    16   10   11 1   
    17   10   12 ar  
    18   12   13 1   
    19   12   17 ar  
    20   13   14 2   
    21   13   15 1   
    22   13   16 2   
    23   15   26 1   
    24   15   27 1   
    25   15   28 1   
    26   17   18 1   
    27   17   19 ar  
    28   19   20 1   
@<TRIPOS>SUBSTRUCTURE
     1 V13         1 TEMP              0 ****  ****    0 ROOT
