@<TRIPOS>MOLECULE
V13
   28    28     1     0     0
SMALL
bcc


@<TRIPOS>ATOM
      1 O20         0.3320    0.0890    0.6690 o         1 V13     -0.597800
      2 S15         1.6290   -0.0530    0.2110 sy        1 V13      1.375300
      3 O19         2.6780   -0.1660    1.1060 o         1 V13     -0.597800
      4 C16         1.7410   -1.1610   -1.0450 c3        1 V13     -0.376600
      5 C17         1.7090   -2.6100   -0.5670 c3        1 V13      0.168400
      6 O18         2.0070   -3.4030   -1.7000 oh        1 V13     -0.591800
      7 C1          1.9620    1.4190   -0.7640 ca        1 V13     -0.232500
      8 C6          3.1740    2.1260   -0.6240 ca        1 V13      0.204400
      9 F11         4.1670    1.6630    0.1560 f         1 V13     -0.057400
     10 C5          3.3850    3.3480   -1.3120 ca        1 V13      0.191900
     11 F12         4.5740    3.9760   -1.1680 f         1 V13     -0.082900
     12 C4          2.3960    3.9300   -2.1500 ca        1 V13     -0.490500
     13 S7          2.5770    5.4420   -2.7830 sy        1 V13      1.469200
     14 O9          3.0710    6.3700   -1.9020 o         1 V13     -0.531800
     15 N10         4.1180    5.1040   -3.8290 nz        1 V13     -0.795500
     16 O8          1.6630    5.7530   -3.7570 o         1 V13     -0.531800
     17 C3          1.2100    3.1790   -2.3260 ca        1 V13      0.191900
     18 F13         0.2370    3.6270   -3.1390 f         1 V13     -0.082900
     19 C2          1.0010    1.9420   -1.6380 ca        1 V13      0.204400
     20 F14        -0.1610    1.2990   -1.8650 f         1 V13     -0.057400
     21 H1          2.6840   -1.0570   -1.6530 h1        1 V13      0.145700
     22 H2          0.9080   -1.0500   -1.7960 h1        1 V13      0.145700
     23 H3          0.6920   -2.8660   -0.1640 h1        1 V13      0.051700
     24 H4          2.4870   -2.7720    0.2300 h1        1 V13      0.051700
     25 H5          1.9180   -4.3260   -1.4280 ho        1 V13      0.427000
     26 H6          3.9270    5.2650   -4.8190 hn        1 V13      0.466800
     27 H7          4.8750    5.7330   -3.5530 hn        1 V13      0.466800
     28 H103        4.4680    4.1530   -3.7310 hn        1 V13      0.466800
@<TRIPOS>BOND
     1    1    2 2   
     2    2    3 2   
     3    2    4 1   
     4    2    7 1   
     5    4    5 1   
     6    4   21 1   
     7    4   22 1   
     8    5    6 1   
     9    5   23 1   
    10    5   24 1   
    11    6   25 1   
    12    7    8 ar  
    13    7   19 ar  
    14    8    9 1   
    15    8   10 ar  
    16   10   11 1   
    17   10   12 ar  
    18   12   13 1   
    19   12   17 ar  
    20   13   14 2   
    21   13   15 1   
    22   13   16 2   
    23   15   26 1   
    24   15   27 1   
    25   15   28 1   
    26   17   18 1   
    27   17   19 ar  
    28   19   20 1   
@<TRIPOS>SUBSTRUCTURE
     1 V13         1 TEMP              0 ****  ****    0 ROOT
