@<TRIPOS>MOLECULE
V13
   28    28     1     0     0
SMALL
bcc


@<TRIPOS>ATOM
      1 O20        -0.0070    0.0680    0.1510 o         1 V13     -0.597800
      2 S15         1.3710   -0.0430    0.1190 sy        1 V13      1.375300
      3 O19         2.0920   -0.1340    1.2960 o         1 V13     -0.597800
      4 C16         1.8920   -1.1460   -1.0340 c3        1 V13     -0.375600
      5 C17         1.6490   -2.5970   -0.6240 c3        1 V13      0.168400
      6 O18         2.1970   -3.3920   -1.6580 oh        1 V13     -0.591800
      7 C1          1.9600    1.4340   -0.7140 ca        1 V13     -0.234500
      8 C6          3.0730    2.1410   -0.2450 ca        1 V13      0.204400
      9 F11         3.8170    1.6870    0.7790 f         1 V13     -0.057400
     10 C5          3.4670    3.3860   -0.8370 ca        1 V13      0.192400
     11 F12         4.5390    4.0170   -0.3280 f         1 V13     -0.082900
     12 C4          2.7470    3.9560   -1.9130 ca        1 V13     -0.491500
     13 S7          3.0670    5.4720   -2.4770 sy        1 V13      1.469200
     14 O9          4.2760    5.9770   -2.0670 o         1 V13     -0.531800
     15 N10         3.4590    5.0050   -4.2690 n4        1 V13     -0.794500
     16 O8          1.9570    6.2560   -2.6590 o         1 V13     -0.531800
     17 C3          1.6620    3.1870   -2.4160 ca        1 V13      0.192400
     18 F13         0.9870    3.6360   -3.4980 f         1 V13     -0.082900
     19 C2          1.2720    1.9600   -1.8280 ca        1 V13      0.204400
     20 F14         0.2290    1.3010   -2.3700 f         1 V13     -0.057400
     21 H1          1.3820   -1.0070   -2.0300 h1        1 V13      0.144700
     22 H2          2.9910   -1.0670   -1.2650 h1        1 V13      0.144700
     23 H3          0.5470   -2.7930   -0.5230 h1        1 V13      0.051200
     24 H4          2.1680   -2.8150    0.3500 h1        1 V13      0.051200
     25 H5          2.0380   -4.3140   -1.4160 ho        1 V13      0.427000
     26 H6          3.3460    4.0120   -4.4570 hn        1 V13      0.467133
     27 H7          2.8350    5.5060   -4.9070 hn        1 V13      0.467133
     28 H103        4.4180    5.2610   -4.5090 hn        1 V13      0.467133
@<TRIPOS>BOND
     1    1    2 2   
     2    2    3 2   
     3    2    4 1   
     4    2    7 1   
     5    4    5 1   
     6    4   21 1   
     7    4   22 1   
     8    5    6 1   
     9    5   23 1   
    10    5   24 1   
    11    6   25 1   
    12    7    8 ar  
    13    7   19 ar  
    14    8    9 1   
    15    8   10 ar  
    16   10   11 1   
    17   10   12 ar  
    18   12   13 1   
    19   12   17 ar  
    20   13   14 2   
    21   13   15 1   
    22   13   16 2   
    23   15   26 1   
    24   15   27 1   
    25   15   28 1   
    26   17   18 1   
    27   17   19 ar  
    28   19   20 1   
@<TRIPOS>SUBSTRUCTURE
     1 V13         1 TEMP              0 ****  ****    0 ROOT
