@<TRIPOS>MOLECULE
V14
   52    53     1     0     0
SMALL
bcc


@<TRIPOS>ATOM
      1 F20         0.1600    0.1220    0.2210 f         1 V14     -0.085900
      2 C5          1.5040    0.0610    0.1240 ca        1 V14      0.222900
      3 C4          2.2700    0.1290    1.3170 ca        1 V14     -0.514500
      4 S7          1.5860    0.3490    2.7910 sy        1 V14      1.472200
      5 O9          0.2320    0.1190    2.8320 o         1 V14     -0.539800
      6 N10         2.2410   -1.2300    3.6140 n4        1 V14     -0.792500
      7 O8          2.1880    1.3040    3.5720 o         1 V14     -0.539800
      8 C3          3.6800    0.0770    1.1530 ca        1 V14      0.163900
      9 F12         4.4690    0.0760    2.2520 f         1 V14     -0.108900
     10 C2          4.2870    0.0150   -0.1250 ca        1 V14      0.193900
     11 F13         5.6310   -0.0010   -0.1800 f         1 V14     -0.052900
     12 C6          2.1000   -0.0420   -1.1740 ca        1 V14      0.163600
     13 C1          3.4980   -0.0430   -1.2920 ca        1 V14     -0.177500
     14 S11         4.2630   -0.1590   -2.9090 sy        1 V14      1.373300
     15 O16         5.6290   -0.0830   -2.6600 o         1 V14     -0.612300
     16 O17         3.7850   -1.3010   -3.5300 o         1 V14     -0.612300
     17 C15         3.6820    1.2580   -3.6120 c3        1 V14     -0.355600
     18 C18         4.7490    2.0960   -4.3090 c3        1 V14      0.165400
     19 O21         4.2550    3.4240   -4.3330 oh        1 V14     -0.599800
     20 N19         1.3310   -0.0990   -2.3650 nh        1 V14     -0.744600
     21 C14         0.4590   -1.2860   -2.5330 c3        1 V14      0.187500
     22 C28        -0.3830   -1.0950   -3.8050 c3        1 V14     -0.074400
     23 C27        -1.5170   -2.0820   -3.9860 c3        1 V14     -0.077900
     24 C26        -2.3290   -2.3910   -2.7460 c3        1 V14     -0.075400
     25 C25        -2.0200   -3.7400   -2.1310 c3        1 V14     -0.080400
     26 C24        -0.6620   -3.8650   -1.4730 c3        1 V14     -0.075400
     27 C23         0.4960   -3.8660   -2.4500 c3        1 V14     -0.077900
     28 C22         1.2840   -2.5780   -2.5570 c3        1 V14     -0.074400
     29 H1          2.8270   -1.7850    2.9940 hn        1 V14      0.465467
     30 H2          1.4720   -1.8210    3.9290 hn        1 V14      0.465467
     31 H3          3.1690    1.9530   -2.8890 h1        1 V14      0.147200
     32 H4          2.8820    1.0300   -4.3750 h1        1 V14      0.147200
     33 H5          5.7170    2.0620   -3.7360 h1        1 V14      0.053200
     34 H6          4.9210    1.7220   -5.3540 h1        1 V14      0.053200
     35 H7          4.8610    3.9380   -4.8810 ho        1 V14      0.423000
     36 H8          0.7850    0.7430   -2.4610 hn        1 V14      0.403800
     37 H9         -0.2470   -1.3300   -1.6480 h1        1 V14      0.037700
     38 H10        -0.8310   -0.0620   -3.7920 hc        1 V14      0.053200
     39 H11         0.2920   -1.1570   -4.7000 hc        1 V14      0.053200
     40 H12        -2.2040   -1.6410   -4.7630 hc        1 V14      0.052950
     41 H13        -1.1220   -3.0330   -4.4310 hc        1 V14      0.052950
     42 H14        -2.2110   -1.5810   -1.9800 hc        1 V14      0.036200
     43 H15        -3.4180   -2.3950   -3.0320 hc        1 V14      0.036200
     44 H16        -2.1180   -4.5330   -2.9210 hc        1 V14      0.048200
     45 H17        -2.8030   -3.9530   -1.3530 hc        1 V14      0.048200
     46 H18        -0.5330   -3.0620   -0.7030 hc        1 V14      0.036200
     47 H19        -0.6500   -4.8420   -0.9150 hc        1 V14      0.036200
     48 H20         0.1320   -4.1690   -3.4670 hc        1 V14      0.052950
     49 H21         1.2270   -4.6640   -2.1380 hc        1 V14      0.052950
     50 H22         2.0150   -2.5480   -1.7020 hc        1 V14      0.053200
     51 H23         1.8960   -2.6050   -3.5020 hc        1 V14      0.053200
     52 H103        2.8070   -0.9920    4.4310 hn        1 V14      0.465467
@<TRIPOS>BOND
     1    1    2 1   
     2    2    3 ar  
     3    2   12 ar  
     4    3    4 1   
     5    3    8 ar  
     6    4    5 2   
     7    4    6 1   
     8    4    7 2   
     9    6   29 1   
    10    6   30 1   
    11    6   52 1   
    12    8    9 1   
    13    8   10 ar  
    14   10   11 1   
    15   10   13 ar  
    16   12   13 ar  
    17   12   20 1   
    18   13   14 1   
    19   14   15 2   
    20   14   16 2   
    21   14   17 1   
    22   17   18 1   
    23   17   31 1   
    24   17   32 1   
    25   18   19 1   
    26   18   33 1   
    27   18   34 1   
    28   19   35 1   
    29   20   21 1   
    30   20   36 1   
    31   21   22 1   
    32   21   28 1   
    33   21   37 1   
    34   22   23 1   
    35   22   38 1   
    36   22   39 1   
    37   23   24 1   
    38   23   40 1   
    39   23   41 1   
    40   24   25 1   
    41   24   42 1   
    42   24   43 1   
    43   25   26 1   
    44   25   44 1   
    45   25   45 1   
    46   26   27 1   
    47   26   46 1   
    48   26   47 1   
    49   27   28 1   
    50   27   48 1   
    51   27   49 1   
    52   28   50 1   
    53   28   51 1   
@<TRIPOS>SUBSTRUCTURE
     1 V14         1 TEMP              0 ****  ****    0 ROOT
