@<TRIPOS>MOLECULE
V14
   52    53     1     0     0
SMALL
bcc


@<TRIPOS>ATOM
      1 F20         0.3960    0.0020    0.3830 f         1 V14     -0.122900
      2 C5          1.7360    0.0340    0.1790 ca        1 V14      0.165900
      3 C4          2.5680    0.1270    1.3340 ca        1 V14     -0.517500
      4 S7          1.9370    0.3210    2.8340 sy        1 V14      1.473200
      5 O9          0.8780    1.1920    2.9060 o         1 V14     -0.539300
      6 N10         1.0230   -1.3400    2.9320 nz        1 V14     -0.792500
      7 O8          2.8410    0.1800    3.8580 o         1 V14     -0.539300
      8 C3          3.9620    0.1190    1.0950 ca        1 V14      0.227900
      9 F12         4.8260    0.1730    2.1230 f         1 V14     -0.066900
     10 C2          4.4900    0.0700   -0.2330 ca        1 V14      0.185900
     11 F13         5.8300    0.0900   -0.3600 f         1 V14     -0.049900
     12 C6          2.2430   -0.0310   -1.1430 ca        1 V14      0.168600
     13 C1          3.6420    0.0020   -1.3440 ca        1 V14     -0.179500
     14 S11         4.3040   -0.0890   -3.0070 sy        1 V14      1.373300
     15 O16         5.6810    0.0090   -2.8460 o         1 V14     -0.612300
     16 O17         3.8050   -1.2340   -3.6060 o         1 V14     -0.612300
     17 C15         3.6550    1.3230   -3.6600 c3        1 V14     -0.355600
     18 C18         4.6640    2.1900   -4.4060 c3        1 V14      0.165400
     19 O21         4.1390    3.5060   -4.3950 oh        1 V14     -0.599800
     20 N19         1.4130   -0.0920   -2.2920 nu        1 V14     -0.743600
     21 C14         0.5530   -1.2920   -2.4220 c3        1 V14      0.190500
     22 C28        -0.3400   -1.1200   -3.6610 c3        1 V14     -0.075400
     23 C27        -1.4660   -2.1240   -3.7920 c3        1 V14     -0.078900
     24 C26        -2.2250   -2.4350   -2.5180 c3        1 V14     -0.072400
     25 C25        -1.8730   -3.7750   -1.9060 c3        1 V14     -0.082400
     26 C24        -0.4880   -3.8790   -1.3020 c3        1 V14     -0.072400
     27 C23         0.6300   -3.8700   -2.3240 c3        1 V14     -0.078900
     28 C22         1.3950   -2.5720   -2.4710 c3        1 V14     -0.075400
     29 H1          0.0310   -1.1860    3.1210 hn        1 V14      0.464800
     30 H2          1.3980   -1.9160    3.6870 hn        1 V14      0.464800
     31 H3          2.8180    1.0860   -4.3790 h1        1 V14      0.146700
     32 H4          3.1700    2.0000   -2.9010 h1        1 V14      0.146700
     33 H5          4.7890    1.8260   -5.4610 h1        1 V14      0.053200
     34 H6          5.6620    2.1760   -3.8850 h1        1 V14      0.053200
     35 H7          4.7070    4.0400   -4.9640 ho        1 V14      0.423000
     36 H8          0.8510    0.7420   -2.3550 hn        1 V14      0.404800
     37 H9         -0.1190   -1.3410   -1.5120 h1        1 V14      0.026700
     38 H10         0.3010   -1.1810   -4.5820 hc        1 V14      0.055200
     39 H11        -0.8000   -0.0940   -3.6380 hc        1 V14      0.055200
     40 H12        -2.1890   -1.6990   -4.5430 hc        1 V14      0.055450
     41 H13        -1.0760   -3.0730   -4.2460 hc        1 V14      0.055450
     42 H14        -3.3240   -2.4580   -2.7620 hc        1 V14      0.031200
     43 H15        -2.0900   -1.6170   -1.7650 hc        1 V14      0.031200
     44 H16        -2.6230   -3.9930   -1.0960 hc        1 V14      0.049200
     45 H17        -1.9910   -4.5760   -2.6840 hc        1 V14      0.049200
     46 H18        -0.4410   -4.8520   -0.7390 hc        1 V14      0.031200
     47 H19        -0.3380   -3.0680   -0.5420 hc        1 V14      0.031200
     48 H20         0.2290   -4.1860   -3.3240 hc        1 V14      0.055450
     49 H21         1.3830   -4.6570   -2.0370 hc        1 V14      0.055450
     50 H22         2.1600   -2.5270   -1.6470 hc        1 V14      0.055200
     51 H23         1.9680   -2.5970   -3.4400 hc        1 V14      0.055200
     52 H103        1.0860   -1.8770    2.0700 hn        1 V14      0.464800
@<TRIPOS>BOND
     1    1    2 1   
     2    2    3 ar  
     3    2   12 ar  
     4    3    4 1   
     5    3    8 ar  
     6    4    5 2   
     7    4    6 1   
     8    4    7 2   
     9    6   29 1   
    10    6   30 1   
    11    6   52 1   
    12    8    9 1   
    13    8   10 ar  
    14   10   11 1   
    15   10   13 ar  
    16   12   13 ar  
    17   12   20 1   
    18   13   14 1   
    19   14   15 2   
    20   14   16 2   
    21   14   17 1   
    22   17   18 1   
    23   17   31 1   
    24   17   32 1   
    25   18   19 1   
    26   18   33 1   
    27   18   34 1   
    28   19   35 1   
    29   20   21 1   
    30   20   36 1   
    31   21   22 1   
    32   21   28 1   
    33   21   37 1   
    34   22   23 1   
    35   22   38 1   
    36   22   39 1   
    37   23   24 1   
    38   23   40 1   
    39   23   41 1   
    40   24   25 1   
    41   24   42 1   
    42   24   43 1   
    43   25   26 1   
    44   25   44 1   
    45   25   45 1   
    46   26   27 1   
    47   26   46 1   
    48   26   47 1   
    49   27   28 1   
    50   27   48 1   
    51   27   49 1   
    52   28   50 1   
    53   28   51 1   
@<TRIPOS>SUBSTRUCTURE
     1 V14         1 TEMP              0 ****  ****    0 ROOT
