@<TRIPOS>MOLECULE
V15
   30    31     1     0     0
SMALL
bcc


@<TRIPOS>ATOM
      1 N1         -0.0680    0.1160   -0.0290 ns        1 V15     -0.496400
      2 C2          1.2890   -0.1760    0.0420 cc        1 V15      0.531800
      3 C3         -0.7610    0.4080    1.1940 c         1 V15      0.699700
      4 C4          0.0560    0.3630    2.4090 cc        1 V15     -0.221200
      5 C5          1.3910    0.0610    2.3560 cd        1 V15      0.186400
      6 N6          2.0310   -0.2160    1.1400 nd        1 V15     -0.577300
      7 C8          2.8940   -1.9360    6.3490 ca        1 V15     -0.123500
      8 C9          3.6150   -1.9660    7.5430 ca        1 V15     -0.121000
      9 C10         4.9180   -1.4690    7.5870 ca        1 V15     -0.113000
     10 C11         5.5010   -0.9420    6.4340 ca        1 V15     -0.121000
     11 C12         4.7830   -0.9120    5.2400 ca        1 V15     -0.123500
     12 N14         2.0080   -0.4790   -1.2450 nz        1 V15     -0.806600
     13 C15         2.2340    0.0210    3.5970 c3        1 V15     -0.039200
     14 C7          3.4750   -1.4070    5.1910 ca        1 V15     -0.108300
     15 C16         2.7160   -1.3870    3.9100 c3        1 V15     -0.024100
     16 O15        -1.9620    0.6630    1.1020 o         1 V15     -0.522500
     17 H1         -0.5800    0.1320   -0.8860 hn        1 V15      0.352500
     18 H141        1.9450    0.3310   -1.8730 hn        1 V15      0.483467
     19 H142        3.0020   -0.6750   -1.0450 hn        1 V15      0.483467
     20 H4         -0.4720    0.5870    3.3500 ha        1 V15      0.210000
     21 H151        1.6230    0.4120    4.4560 hc        1 V15      0.086700
     22 H152        3.1200    0.7030    3.4760 hc        1 V15      0.086700
     23 H10         5.4850   -1.4940    8.5290 ha        1 V15      0.145000
     24 H11         6.5290   -0.5530    6.4660 ha        1 V15      0.142500
     25 H12         5.2470   -0.5010    4.3310 ha        1 V15      0.128500
     26 H161        1.8350   -2.0800    3.9730 hc        1 V15      0.053200
     27 H162        3.3770   -1.7550    3.0800 hc        1 V15      0.053200
     28 H8          1.8690   -2.3340    6.3200 ha        1 V15      0.128500
     29 H143        1.5860   -1.3020   -1.6900 hn        1 V15      0.483467
     30 H9          3.1540   -2.3840    8.4500 ha        1 V15      0.142500
@<TRIPOS>BOND
     1    1    2 1   
     2    1    3 1   
     3    1   17 1   
     4    2    6 2   
     5    2   12 1   
     6    3    4 1   
     7    3   16 2   
     8    4    5 2   
     9    4   20 1   
    10    5    6 1   
    11    5   13 1   
    12    7    8 ar  
    13    7   14 ar  
    14    7   28 1   
    15    8    9 ar  
    16    8   30 1   
    17    9   10 ar  
    18    9   23 1   
    19   10   11 ar  
    20   10   24 1   
    21   11   14 ar  
    22   11   25 1   
    23   12   18 1   
    24   12   19 1   
    25   12   29 1   
    26   13   15 1   
    27   13   21 1   
    28   13   22 1   
    29   14   15 1   
    30   15   26 1   
    31   15   27 1   
@<TRIPOS>SUBSTRUCTURE
     1 V15         1 TEMP              0 ****  ****    0 ROOT
