@<TRIPOS>MOLECULE
V15
   29    30     1     0     0
SMALL
bcc


@<TRIPOS>ATOM
      1 N1         -3.9160    0.0680    0.1140 n         1 V15     -0.498400
      2 C2         -3.1140   -1.0830    0.1800 cc        1 V15      0.677800
      3 C3         -3.3350    1.3240   -0.1860 c         1 V15      0.705700
      4 C4         -1.9030    1.3190   -0.4430 cc        1 V15     -0.334200
      5 C5         -1.1970    0.1410   -0.3800 cd        1 V15      0.214400
      6 N6         -1.7870   -1.0760   -0.0870 nd        1 V15     -0.698300
      7 C8          3.1600    1.0920    0.3390 ca        1 V15     -0.126500
      8 C9          4.5290    1.2140    0.1120 ca        1 V15     -0.128500
      9 C10         5.2980    0.0820   -0.1580 ca        1 V15     -0.131000
     10 C11         4.6920   -1.1730   -0.2000 ca        1 V15     -0.128500
     11 C12         3.3220   -1.2980    0.0270 ca        1 V15     -0.126500
     12 N14        -3.7210   -2.2850    0.6040 nh        1 V15     -0.896800
     13 C15         0.2790    0.1400   -0.6620 c3        1 V15     -0.030200
     14 C7          2.5460   -0.1660    0.2980 ca        1 V15     -0.082300
     15 C16         1.0840   -0.2940    0.5510 c3        1 V15     -0.032100
     16 O15        -4.0880    2.3140   -0.2110 o         1 V15     -0.631500
     17 H1         -4.8840    0.0360    0.3480 hn        1 V15      0.333500
     18 H141       -4.6630   -2.4210    0.3140 hn        1 V15      0.421300
     19 H142       -3.1450   -3.0950    0.5240 hn        1 V15      0.421300
     20 H4         -1.4440    2.2870   -0.6760 ha        1 V15      0.169000
     21 H151        0.4930   -0.5490   -1.5230 hc        1 V15      0.064200
     22 H152        0.5920    1.1740   -0.9700 hc        1 V15      0.064200
     23 H9          5.0040    2.2060    0.1460 ha        1 V15      0.131000
     24 H10         6.3780    0.1790   -0.3370 ha        1 V15      0.131000
     25 H11         5.2950   -2.0680   -0.4110 ha        1 V15      0.131000
     26 H12         2.8480   -2.2910   -0.0050 ha        1 V15      0.132000
     27 H161        0.8010    0.3410    1.4330 hc        1 V15      0.059700
     28 H162        0.8300   -1.3570    0.8100 hc        1 V15      0.059700
     29 H8          2.5550    1.9860    0.5540 ha        1 V15      0.132000
@<TRIPOS>BOND
     1    1    2 1   
     2    1    3 1   
     3    1   17 1   
     4    2    6 2   
     5    2   12 1   
     6    3    4 1   
     7    3   16 2   
     8    4    5 2   
     9    4   20 1   
    10    5    6 1   
    11    5   13 1   
    12    7    8 ar  
    13    7   14 ar  
    14    7   29 1   
    15    8    9 ar  
    16    8   23 1   
    17    9   10 ar  
    18    9   24 1   
    19   10   11 ar  
    20   10   25 1   
    21   11   14 ar  
    22   11   26 1   
    23   12   18 1   
    24   12   19 1   
    25   13   15 1   
    26   13   21 1   
    27   13   22 1   
    28   14   15 1   
    29   15   27 1   
    30   15   28 1   
@<TRIPOS>SUBSTRUCTURE
     1 V15         1 TEMP              0 ****  ****    0 ROOT
