@<TRIPOS>MOLECULE
V15
   30    31     1     0     0
SMALL
bcc


@<TRIPOS>ATOM
      1 N1         -0.0750    0.1190   -0.0240 n         1 V15     -0.496400
      2 C2          1.2810   -0.1780    0.0440 cc        1 V15      0.531800
      3 C3         -0.7620    0.4160    1.2010 c         1 V15      0.699700
      4 C4          0.0580    0.3710    2.4140 cc        1 V15     -0.221200
      5 C5          1.3910    0.0640    2.3570 cd        1 V15      0.186400
      6 N6          2.0270   -0.2200    1.1400 nd        1 V15     -0.577300
      7 C8          2.8970   -1.9270    6.3520 ca        1 V15     -0.123500
      8 C9          3.6220   -1.9570    7.5430 ca        1 V15     -0.121000
      9 C10         4.9280   -1.4700    7.5800 ca        1 V15     -0.113000
     10 C11         5.5110   -0.9540    6.4220 ca        1 V15     -0.121000
     11 C12         4.7890   -0.9230    5.2310 ca        1 V15     -0.123500
     12 N14         1.9940   -0.4870   -1.2440 n4        1 V15     -0.806600
     13 C15         2.2380    0.0230    3.5960 c3        1 V15     -0.039200
     14 C7          3.4760   -1.4080    5.1890 ca        1 V15     -0.108300
     15 C16         2.7130   -1.3870    3.9120 c3        1 V15     -0.024100
     16 O15        -1.9630    0.6770    1.1130 o         1 V15     -0.522500
     17 H1         -0.5900    0.1350   -0.8780 hn        1 V15      0.352500
     18 H141        2.9880   -0.6870   -1.0470 hn        1 V15      0.483467
     19 H142        1.9330    0.3220   -1.8740 hn        1 V15      0.483467
     20 H4         -0.4660    0.5990    3.3560 ha        1 V15      0.210000
     21 H151        3.1280    0.6980    3.4700 hc        1 V15      0.086700
     22 H152        1.6320    0.4190    4.4550 hc        1 V15      0.086700
     23 H10         5.5000   -1.4950    8.5210 ha        1 V15      0.145000
     24 H11         6.5430   -0.5720    6.4490 ha        1 V15      0.142500
     25 H12         5.2520   -0.5200    4.3180 ha        1 V15      0.128500
     26 H161        3.3680   -1.7620    3.0810 hc        1 V15      0.053200
     27 H162        1.8280   -2.0740    3.9810 hc        1 V15      0.053200
     28 H8          1.8680   -2.3170    6.3290 ha        1 V15      0.128500
     29 H143        1.5680   -1.3090   -1.6860 hn        1 V15      0.483467
     30 H9          3.1610   -2.3680    8.4540 ha        1 V15      0.142500
@<TRIPOS>BOND
     1    1    2 1   
     2    1    3 1   
     3    1   17 1   
     4    2    6 2   
     5    2   12 1   
     6    3    4 1   
     7    3   16 2   
     8    4    5 2   
     9    4   20 1   
    10    5    6 1   
    11    5   13 1   
    12    7    8 ar  
    13    7   14 ar  
    14    7   28 1   
    15    8    9 ar  
    16    8   30 1   
    17    9   10 ar  
    18    9   23 1   
    19   10   11 ar  
    20   10   24 1   
    21   11   14 ar  
    22   11   25 1   
    23   12   18 1   
    24   12   19 1   
    25   12   29 1   
    26   13   15 1   
    27   13   21 1   
    28   13   22 1   
    29   14   15 1   
    30   15   26 1   
    31   15   27 1   
@<TRIPOS>SUBSTRUCTURE
     1 V15         1 TEMP              0 ****  ****    0 ROOT
