@<TRIPOS>MOLECULE
V15
   30    31     1     0     0
SMALL
bcc


@<TRIPOS>ATOM
      1 N1         -0.0670    0.1370   -0.0250 n         1 V15     -0.496400
      2 C2          1.2900   -0.1510    0.0450 cc        1 V15      0.531800
      3 C3         -0.7620    0.4160    1.2000 c         1 V15      0.699700
      4 C4          0.0540    0.3640    2.4150 cc        1 V15     -0.221200
      5 C5          1.3890    0.0660    2.3610 cd        1 V15      0.186400
      6 N6          2.0320   -0.1990    1.1440 nd        1 V15     -0.577300
      7 C8          2.8970   -1.9640    6.3360 ca        1 V15     -0.123500
      8 C9          3.6160   -2.0030    7.5310 ca        1 V15     -0.121000
      9 C10         4.9150   -1.4980    7.5830 ca        1 V15     -0.113000
     10 C11         5.4970   -0.9560    6.4360 ca        1 V15     -0.121000
     11 C12         4.7810   -0.9170    5.2420 ca        1 V15     -0.123500
     12 N14         2.0120   -0.4400   -1.2430 n4        1 V15     -0.806600
     13 C15         2.2310    0.0180    3.6030 c3        1 V15     -0.039200
     14 C7          3.4760   -1.4200    5.1850 ca        1 V15     -0.108300
     15 C16         2.7190   -1.3900    3.9030 c3        1 V15     -0.024100
     16 O15        -1.9640    0.6690    1.1090 o         1 V15     -0.522500
     17 H1         -0.5780    0.1590   -0.8820 hn        1 V15      0.352500
     18 H141        1.9470    0.3740   -1.8650 hn        1 V15      0.483467
     19 H142        3.0060   -0.6350   -1.0440 hn        1 V15      0.483467
     20 H4         -0.4770    0.5770    3.3580 ha        1 V15      0.210000
     21 H151        1.6170    0.3980    4.4650 hc        1 V15      0.086700
     22 H152        3.1140    0.7050    3.4900 hc        1 V15      0.086700
     23 H10         5.4810   -1.5290    8.5260 ha        1 V15      0.145000
     24 H11         6.5230   -0.5600    6.4750 ha        1 V15      0.142500
     25 H12         5.2440   -0.4930    4.3380 ha        1 V15      0.128500
     26 H161        1.8410   -2.0880    3.9580 hc        1 V15      0.053200
     27 H162        3.3830   -1.7470    3.0710 hc        1 V15      0.053200
     28 H8          1.8740   -2.3690    6.3010 ha        1 V15      0.128500
     29 H143        1.5930   -1.2610   -1.6960 hn        1 V15      0.483467
     30 H9          3.1560   -2.4340    8.4330 ha        1 V15      0.142500
@<TRIPOS>BOND
     1    1    2 1   
     2    1    3 1   
     3    1   17 1   
     4    2    6 2   
     5    2   12 1   
     6    3    4 1   
     7    3   16 2   
     8    4    5 2   
     9    4   20 1   
    10    5    6 1   
    11    5   13 1   
    12    7    8 ar  
    13    7   14 ar  
    14    7   28 1   
    15    8    9 ar  
    16    8   30 1   
    17    9   10 ar  
    18    9   23 1   
    19   10   11 ar  
    20   10   24 1   
    21   11   14 ar  
    22   11   25 1   
    23   12   18 1   
    24   12   19 1   
    25   12   29 1   
    26   13   15 1   
    27   13   21 1   
    28   13   22 1   
    29   14   15 1   
    30   15   26 1   
    31   15   27 1   
@<TRIPOS>SUBSTRUCTURE
     1 V15         1 TEMP              0 ****  ****    0 ROOT
