@<TRIPOS>MOLECULE
V1F
   52    54     1     0     0
SMALL
bcc


@<TRIPOS>ATOM
      1 F26        -0.0240    0.2530    0.0060 f         1 V1F     -0.088900
      2 C5          1.3160    0.0880   -0.0060 ca        1 V1F      0.208900
      3 C4          2.0120    0.1070    1.2270 ca        1 V1F     -0.505500
      4 S7          1.2710    0.4250    2.6550 sy        1 V1F      1.472200
      5 O9         -0.1000    0.3340    2.6170 o         1 V1F     -0.539800
      6 N10         1.7130   -1.1910    3.5410 n4        1 V1F     -0.792500
      7 O8          1.9200    1.3340    3.4530 o         1 V1F     -0.539800
      8 C3          3.4160   -0.0950    1.1470 ca        1 V1F      0.151900
      9 F12         4.1360   -0.1660    2.2910 f         1 V1F     -0.109900
     10 C2          4.0860   -0.2330   -0.0920 ca        1 V1F      0.198900
     11 F13         5.4220   -0.3930   -0.0650 f         1 V1F     -0.051900
     12 C6          1.9740   -0.0740   -1.2720 ca        1 V1F      0.173600
     13 C1          3.3710   -0.2040   -1.3080 ca        1 V1F     -0.193500
     14 S11         4.2460   -0.3270   -2.8690 sy        1 V1F      1.367300
     15 O22         5.5820   -0.4800   -2.5140 o         1 V1F     -0.617800
     16 O23         3.6550   -1.3440   -3.6070 o         1 V1F     -0.617800
     17 C21         3.9340    1.2060   -3.4830 c3        1 V1F     -0.343600
     18 C24         5.0340    1.6670   -4.4330 c3        1 V1F     -0.006100
     19 C30         4.7950    3.0600   -4.8960 ca        1 V1F     -0.099300
     20 C29         5.5780    4.1110   -4.4070 ca        1 V1F     -0.122500
     21 C28         5.3620    5.4130   -4.8580 ca        1 V1F     -0.124000
     22 C32         3.7960    3.3250   -5.8410 ca        1 V1F     -0.122500
     23 C31         3.5820    4.6270   -6.2880 ca        1 V1F     -0.124000
     24 C27         4.3630    5.6730   -5.7960 ca        1 V1F     -0.116000
     25 N25         1.2510   -0.0270   -2.4840 nh        1 V1F     -0.732600
     26 C14         0.7520   -1.3110   -2.9860 c3        1 V1F      0.215100
     27 C15         0.0930   -1.1470   -4.3210 ca        1 V1F     -0.121300
     28 C20         0.8220   -1.4090   -5.4850 ca        1 V1F     -0.111000
     29 C19         0.2030   -1.2940   -6.7300 ca        1 V1F     -0.128500
     30 C18        -1.1350   -0.9090   -6.8140 ca        1 V1F     -0.106000
     31 C17        -1.8600   -0.6410   -5.6510 ca        1 V1F     -0.128500
     32 C16        -1.2470   -0.7570   -4.4040 ca        1 V1F     -0.111000
     33 H1          2.2460   -0.9920    4.3900 hn        1 V1F      0.465800
     34 H2          2.2800   -1.8140    2.9690 hn        1 V1F      0.465800
     35 H3          2.9640    1.2470   -4.0560 h1        1 V1F      0.140200
     36 H4          3.8270    1.9940   -2.6890 h1        1 V1F      0.140200
     37 H5          6.0290    1.5980   -3.9120 hc        1 V1F      0.072200
     38 H6          5.0650    0.9810   -5.3230 hc        1 V1F      0.072200
     39 H7          6.3750    3.9110   -3.6750 ha        1 V1F      0.132500
     40 H8          5.9850    6.2350   -4.4750 ha        1 V1F      0.140500
     41 H9          3.1850    2.5000   -6.2370 ha        1 V1F      0.132500
     42 H10         2.7990    4.8290   -7.0340 ha        1 V1F      0.140500
     43 H11         4.1970    6.7000   -6.1540 ha        1 V1F      0.142000
     44 H12         0.5070    0.6500   -2.4410 hn        1 V1F      0.407800
     45 H13         1.6250   -2.0210   -3.0810 h1        1 V1F      0.067200
     46 H14         0.0110   -1.7550   -2.2570 h1        1 V1F      0.067200
     47 H15         1.8800   -1.7120   -5.4100 ha        1 V1F      0.141500
     48 H16         0.7730   -1.5090   -7.6460 ha        1 V1F      0.144000
     49 H17        -1.6220   -0.8210   -7.7970 ha        1 V1F      0.145000
     50 H18        -2.9160   -0.3400   -5.7180 ha        1 V1F      0.144000
     51 H19        -1.8230   -0.5540   -3.4890 ha        1 V1F      0.141500
     52 H103        0.8710   -1.6990    3.8140 hn        1 V1F      0.465800
@<TRIPOS>BOND
     1    1    2 1   
     2    2    3 ar  
     3    2   12 ar  
     4    3    4 1   
     5    3    8 ar  
     6    4    5 2   
     7    4    6 1   
     8    4    7 2   
     9    6   33 1   
    10    6   34 1   
    11    6   52 1   
    12    8    9 1   
    13    8   10 ar  
    14   10   11 1   
    15   10   13 ar  
    16   12   13 ar  
    17   12   25 1   
    18   13   14 1   
    19   14   15 2   
    20   14   16 2   
    21   14   17 1   
    22   17   18 1   
    23   17   35 1   
    24   17   36 1   
    25   18   19 1   
    26   18   37 1   
    27   18   38 1   
    28   19   20 ar  
    29   19   22 ar  
    30   20   21 ar  
    31   20   39 1   
    32   21   24 ar  
    33   21   40 1   
    34   22   23 ar  
    35   22   41 1   
    36   23   24 ar  
    37   23   42 1   
    38   24   43 1   
    39   25   26 1   
    40   25   44 1   
    41   26   27 1   
    42   26   45 1   
    43   26   46 1   
    44   27   28 ar  
    45   27   32 ar  
    46   28   29 ar  
    47   28   47 1   
    48   29   30 ar  
    49   29   48 1   
    50   30   31 ar  
    51   30   49 1   
    52   31   32 ar  
    53   31   50 1   
    54   32   51 1   
@<TRIPOS>SUBSTRUCTURE
     1 V1F         1 TEMP              0 ****  ****    0 ROOT
