@<TRIPOS>MOLECULE
V1F
   52    54     1     0     0
SMALL
bcc


@<TRIPOS>ATOM
      1 F26        -0.0400    0.2420   -0.0090 f         1 V1F     -0.088900
      2 C5          1.3010    0.0860   -0.0120 ca        1 V1F      0.208900
      3 C4          1.9890    0.1130    1.2260 ca        1 V1F     -0.505500
      4 S7          1.2350    0.4290    2.6480 sy        1 V1F      1.472200
      5 O9         -0.1340    0.3280    2.6010 o         1 V1F     -0.539800
      6 N10         1.6830   -1.1830    3.5410 nz        1 V1F     -0.792500
      7 O8          1.8720    1.3440    3.4490 o         1 V1F     -0.539800
      8 C3          3.3950   -0.0800    1.1560 ca        1 V1F      0.151900
      9 F12         4.1080   -0.1420    2.3040 f         1 V1F     -0.109900
     10 C2          4.0740   -0.2150   -0.0790 ca        1 V1F      0.198900
     11 F13         5.4110   -0.3660   -0.0410 f         1 V1F     -0.051900
     12 C6          1.9690   -0.0730   -1.2730 ca        1 V1F      0.173600
     13 C1          3.3680   -0.1940   -1.2990 ca        1 V1F     -0.193500
     14 S11         4.2540   -0.3140   -2.8540 sy        1 V1F      1.367300
     15 O22         5.5880   -0.4580   -2.4890 o         1 V1F     -0.617800
     16 O23         3.6750   -1.3360   -3.5930 o         1 V1F     -0.617800
     17 C21         3.9360    1.2160   -3.4730 c3        1 V1F     -0.343600
     18 C24         5.0380    1.6810   -4.4180 c3        1 V1F     -0.006100
     19 C30         4.7930    3.0710   -4.8860 ca        1 V1F     -0.099300
     20 C29         5.5690    4.1280   -4.3960 ca        1 V1F     -0.122500
     21 C28         5.3470    5.4280   -4.8510 ca        1 V1F     -0.124000
     22 C32         3.7970    3.3280   -5.8350 ca        1 V1F     -0.122500
     23 C31         3.5780    4.6280   -6.2870 ca        1 V1F     -0.124000
     24 C27         4.3520    5.6800   -5.7950 ca        1 V1F     -0.116000
     25 N25         1.2540   -0.0340   -2.4900 nu        1 V1F     -0.732600
     26 C14         0.7680   -1.3220   -2.9930 c3        1 V1F      0.215100
     27 C15         0.1160   -1.1660   -4.3320 ca        1 V1F     -0.121300
     28 C20         0.8540   -1.4260   -5.4910 ca        1 V1F     -0.111000
     29 C19         0.2430   -1.3170   -6.7400 ca        1 V1F     -0.128500
     30 C18        -1.0980   -0.9430   -6.8330 ca        1 V1F     -0.106000
     31 C17        -1.8320   -0.6770   -5.6760 ca        1 V1F     -0.128500
     32 C16        -1.2270   -0.7870   -4.4250 ca        1 V1F     -0.111000
     33 H1          2.2580   -1.8020    2.9740 hn        1 V1F      0.465800
     34 H2          0.8420   -1.6950    3.8090 hn        1 V1F      0.465800
     35 H3          2.9680    1.2500   -4.0510 h1        1 V1F      0.140200
     36 H4          3.8200    2.0050   -2.6820 h1        1 V1F      0.140200
     37 H5          5.0780    0.9930   -5.3070 hc        1 V1F      0.072200
     38 H6          6.0310    1.6180   -3.8920 hc        1 V1F      0.072200
     39 H7          6.3630    3.9340   -3.6600 ha        1 V1F      0.132500
     40 H8          5.9640    6.2540   -4.4670 ha        1 V1F      0.140500
     41 H9          3.1920    2.4990   -6.2330 ha        1 V1F      0.132500
     42 H10         2.7970    4.8240   -7.0370 ha        1 V1F      0.140500
     43 H11         4.1810    6.7050   -6.1550 ha        1 V1F      0.142000
     44 H12         0.5050    0.6380   -2.4540 hn        1 V1F      0.407800
     45 H13         0.0250   -1.7700   -2.2680 h1        1 V1F      0.067200
     46 H14         1.6460   -2.0270   -3.0800 h1        1 V1F      0.067200
     47 H15         1.9140   -1.7200   -5.4080 ha        1 V1F      0.141500
     48 H16         0.8200   -1.5300   -7.6520 ha        1 V1F      0.144000
     49 H17        -1.5790   -0.8600   -7.8190 ha        1 V1F      0.145000
     50 H18        -2.8900   -0.3840   -5.7500 ha        1 V1F      0.144000
     51 H19        -1.8090   -0.5860   -3.5140 ha        1 V1F      0.141500
     52 H103        2.2090   -0.9780    4.3930 hn        1 V1F      0.465800
@<TRIPOS>BOND
     1    1    2 1   
     2    2    3 ar  
     3    2   12 ar  
     4    3    4 1   
     5    3    8 ar  
     6    4    5 2   
     7    4    6 1   
     8    4    7 2   
     9    6   33 1   
    10    6   34 1   
    11    6   52 1   
    12    8    9 1   
    13    8   10 ar  
    14   10   11 1   
    15   10   13 ar  
    16   12   13 ar  
    17   12   25 1   
    18   13   14 1   
    19   14   15 2   
    20   14   16 2   
    21   14   17 1   
    22   17   18 1   
    23   17   35 1   
    24   17   36 1   
    25   18   19 1   
    26   18   37 1   
    27   18   38 1   
    28   19   20 ar  
    29   19   22 ar  
    30   20   21 ar  
    31   20   39 1   
    32   21   24 ar  
    33   21   40 1   
    34   22   23 ar  
    35   22   41 1   
    36   23   24 ar  
    37   23   42 1   
    38   24   43 1   
    39   25   26 1   
    40   25   44 1   
    41   26   27 1   
    42   26   45 1   
    43   26   46 1   
    44   27   28 ar  
    45   27   32 ar  
    46   28   29 ar  
    47   28   47 1   
    48   29   30 ar  
    49   29   48 1   
    50   30   31 ar  
    51   30   49 1   
    52   31   32 ar  
    53   31   50 1   
    54   32   51 1   
@<TRIPOS>SUBSTRUCTURE
     1 V1F         1 TEMP              0 ****  ****    0 ROOT
