@<TRIPOS>MOLECULE
V1N
   54    55     1     0     0
SMALL
bcc


@<TRIPOS>ATOM
      1 C27        -3.2220   -2.0580    1.4370 c2        1 V1N     -0.103000
      2 C28        -3.4510   -3.2600    1.9940 c2        1 V1N     -0.172000
      3 C26        -2.8440   -0.8790    2.2500 c3        1 V1N     -0.128000
      4 C29        -3.3480   -3.4330    3.4240 c2        1 V1N     -0.085000
      5 C22        -3.6260   -2.1840    6.5920 c1        1 V1N      0.217000
      6 C4         -8.6020   -9.0430    3.8340 c2        1 V1N      0.022000
      7 C9         -6.0340   -5.6950    5.2390 c2        1 V1N     -0.043000
      8 C25        -2.2930   -1.2170    3.5950 c2        1 V1N     -0.043000
      9 C21        -1.3550   -0.4660    4.2080 c2        1 V1N     -0.144000
     10 C7         -6.3900   -7.7740    4.6860 c2        1 V1N     -0.256000
     11 C24        -2.8360   -2.4440    4.2100 c2        1 V1N     -0.061000
     12 C6         -7.6650   -7.0950    4.5010 c2        1 V1N      0.116000
     13 C2         -6.3350   -9.1720    4.3940 c2        1 V1N      0.237000
     14 C32        -8.1460   -2.5090    8.4630 c3        1 V1N     -0.045000
     15 C30        -7.1710   -3.6270    8.8230 c3        1 V1N     -0.045000
     16 C11        -8.3930   -4.7660    4.7860 c1        1 V1N      0.273000
     17 C13        -6.8850   -2.9140    5.0260 c1        1 V1N      0.144000
     18 C20        -0.7460    0.7420    3.6910 c2        1 V1N     -0.137000
     19 C19        -1.3880    1.7300    3.0650 c2        1 V1N     -0.208000
     20 N5         -8.7910   -7.7130    4.0710 n2        1 V1N     -0.173000
     21 N3         -7.4900   -9.8000    3.9620 n2        1 V1N     -0.251000
     22 N8         -5.4130   -6.8630    5.1500 n2        1 V1N     -0.100000
     23 N23        -2.7880   -2.5830    5.6270 n3        1 V1N     -0.300000
     24 N10        -7.4280   -5.7280    4.8510 na        1 V1N     -0.227000
     25 O16        -4.7790   -1.5460    6.3860 os        1 V1N     -0.780000
     26 O12        -8.1290   -3.4680    5.0220 os        1 V1N     -0.241000
     27 O31        -6.1730   -3.7750    7.8340 oh        1 V1N     -0.357500
     28 O14        -7.0460   -1.6600    5.4080 os        1 V1N     -0.677000
     29 O18        -6.2530    0.3150    6.5710 oh        1 V1N     -0.778000
     30 O17        -5.2940   -0.1570    4.1840 o         1 V1N     -1.047000
     31 P15        -5.7380   -0.6760    5.4570 p5        1 V1N      2.657000
     32 H27        -2.1000   -0.2520    1.6810 hc        1 V1N      0.134500
     33 H28        -3.7710   -0.2440    2.4070 hc        1 V1N      0.134500
     34 H26        -3.3370   -1.8870    0.3570 ha        1 V1N      0.131000
     35 H29        -3.7470   -4.1370    1.3990 ha        1 V1N      0.136000
     36 H22        -0.9600   -0.7630    5.1970 ha        1 V1N      0.122000
     37 H23        -1.9720   -3.0540    5.9650 hn        1 V1N      0.253000
     38 H9         -5.5920   -4.7540    5.6120 h5        1 V1N      0.233000
     39 H201        0.3400    0.8170    3.8850 ha        1 V1N      0.121000
     40 H202       -0.8660    2.6320    2.7180 ha        1 V1N      0.119500
     41 H11N       -4.3730   -9.4070    4.8970 hn        1 V1N      0.246000
     42 H12N       -3.7220   -4.3810    3.8460 ha        1 V1N      0.141000
     43 H32        -9.0880   -2.6220    9.0610 h1        1 V1N      0.091500
     44 H30        -7.7190   -4.6080    8.8320 h1        1 V1N      0.091500
     45 H11        -8.3860   -2.5380    7.3640 h1        1 V1N      0.091500
     46 H13        -6.7130   -3.4340    9.8280 h1        1 V1N      0.091500
     47 H31        -5.5270   -3.0650    7.9640 ho        1 V1N      0.220000
     48 H191       -2.4710    1.7150    2.8770 ha        1 V1N      0.119500
     49 H192       -6.3830   -0.0520    7.4500 ho        1 V1N      0.307000
     50 N1         -5.1640   -9.8680    4.5200 nh        1 V1N     -0.354000
     51 O33        -7.5130   -1.2720    8.7650 oh        1 V1N     -0.357500
     52 H33        -8.2090   -0.6050    8.8050 ho        1 V1N      0.220000
     53 H131       -5.1390  -10.8450    4.3690 hn        1 V1N      0.246000
     54 H4         -9.5060   -9.5880    3.4830 h5        1 V1N      0.196000
@<TRIPOS>BOND
     1    1    2 1   
     2    1    3 1   
     3    1   34 1   
     4    2    4 1   
     5    2   35 1   
     6    3    8 1   
     7    3   32 1   
     8    3   33 1   
     9    4   11 1   
    10    4   42 1   
    11    5   23 1   
    12    5   25 1   
    13    6   20 1   
    14    6   21 1   
    15    6   54 1   
    16    7   22 1   
    17    7   24 1   
    18    7   38 1   
    19    8    9 1   
    20    8   11 1   
    21    9   18 1   
    22    9   36 1   
    23   10   12 1   
    24   10   13 1   
    25   10   22 1   
    26   11   23 1   
    27   12   20 1   
    28   12   24 1   
    29   13   21 1   
    30   13   50 1   
    31   14   15 1   
    32   14   43 1   
    33   14   45 1   
    34   14   51 1   
    35   15   27 1   
    36   15   44 1   
    37   15   46 1   
    38   16   24 1   
    39   16   26 1   
    40   17   26 1   
    41   17   28 1   
    42   18   19 1   
    43   18   39 1   
    44   19   40 1   
    45   19   48 1   
    46   23   37 1   
    47   25   31 1   
    48   27   47 1   
    49   28   31 1   
    50   29   31 1   
    51   29   49 1   
    52   30   31 1   
    53   41   50 1   
    54   50   53 1   
    55   51   52 1   
@<TRIPOS>SUBSTRUCTURE
     1 V1N         1 TEMP              0 ****  ****    0 ROOT
