@<TRIPOS>MOLECULE
V1N
   53    55     1     0     0
SMALL
bcc


@<TRIPOS>ATOM
      1 C27         0.7600    0.7900    1.8620 c2        1 V1N     -0.141000
      2 C28         1.3380   -0.4270    1.5420 c2        1 V1N     -0.136000
      3 C26        -0.3200    0.8800    2.7730 c2        1 V1N     -0.162000
      4 C29         0.9010   -1.6530    2.0910 c1        1 V1N     -0.301000
      5 C22        -1.7550   -2.0960    4.4810 c2        1 V1N      0.056000
      6 C4         -9.4230   -8.6010    8.7920 c1        1 V1N     -0.028000
      7 C9         -6.9240   -7.2030    5.2590 c2        1 V1N     -0.053000
      8 C25        -0.7890   -0.2820    3.3330 c2        1 V1N     -0.124000
      9 C21        -1.8700   -0.5720    4.3430 c3        1 V1N     -0.070000
     10 C7         -7.8910   -8.7260    6.4930 c2        1 V1N     -0.268000
     11 C24        -0.1610   -1.5270    2.9660 c2        1 V1N     -0.143000
     12 C6         -8.1930   -7.4580    7.1150 c2        1 V1N      0.112000
     13 C2         -8.4160   -9.9210    7.1100 c2        1 V1N      0.267000
     14 C32        -8.8540   -0.7620    6.0990 c3        1 V1N     -0.060000
     15 C30        -7.4540   -1.0860    6.6090 c3        1 V1N     -0.060000
     16 C11        -7.6560   -5.1270    6.6400 c1        1 V1N      0.167000
     17 C13        -6.2770   -4.4130    4.7990 c1        1 V1N      0.122000
     18 C20        -3.2650   -0.1430    3.9360 c3        1 V1N     -0.161000
     19 C19        -3.7930   -0.8390    2.6800 c3        1 V1N      0.039000
     20 N5         -8.9520   -7.4030    8.2530 nu        1 V1N     -0.190000
     21 N3         -9.1720   -9.7970    8.2540 n2        1 V1N     -0.311000
     22 N8         -7.1000   -8.5180    5.3410 n2        1 V1N     -0.111000
     23 N23        -0.8190   -2.5770    3.6860 n7        1 V1N     -0.002000
     24 N10        -7.5670   -6.4620    6.3200 na        1 V1N     -0.226000
     25 O16        -5.7260   -3.7500    1.8960 o         1 V1N     -0.804500
     26 O12        -7.0840   -4.1750    5.9360 os        1 V1N     -0.261000
     27 O31        -7.5400   -1.8350    7.8080 oh        1 V1N     -0.348500
     28 O14        -5.9430   -3.2510    4.3750 os        1 V1N     -0.595000
     29 O18        -3.6090   -3.5200    3.4900 o         1 V1N     -0.804500
     30 O17        -4.9890   -1.5230    2.9330 os        1 V1N     -0.739000
     31 P15        -4.9400   -3.1540    2.9700 p5        1 V1N      1.932000
     32 H27        -0.7620    1.8550    3.0140 ha        1 V1N      0.110000
     33 H28        -4.0290   -0.0580    1.9030 h1        1 V1N      0.083000
     34 H26         1.1310    1.7230    1.4120 ha        1 V1N      0.099000
     35 H29         2.1770   -0.4570    0.8310 ha        1 V1N      0.109000
     36 H22        -1.6120   -0.1040    5.3330 hc        1 V1N      0.122000
     37 H23        -0.6110   -3.5400    3.5280 hn        1 V1N      0.281000
     38 H4         -9.1640   -6.5330    8.6860 hn        1 V1N      0.264000
     39 H9         -6.3560   -6.6590    4.4810 h5        1 V1N      0.249000
     40 H201       -3.2370    0.9630    3.7520 hc        1 V1N      0.096500
     41 H202       -3.9720   -0.3270    4.7880 hc        1 V1N      0.096500
     42 H11N       -8.5080  -11.9670    6.9560 hn        1 V1N      0.242000
     43 H12N       -7.6110  -11.1860    5.7230 hn        1 V1N      0.242000
     44 H32        -9.3750   -1.7050    5.7790 h1        1 V1N      0.095750
     45 H30        -6.8740   -1.6430    5.8230 h1        1 V1N      0.095750
     46 H11        -8.8080   -0.0480    5.2360 h1        1 V1N      0.095750
     47 H13        -6.9140   -0.1450    6.8960 h1        1 V1N      0.095750
     48 H31        -7.7050   -2.7550    7.5570 ho        1 V1N      0.214000
     49 H191       -3.0240   -1.5470    2.2640 h1        1 V1N      0.083000
     50 H192       -2.3920   -2.7130    5.1330 h4        1 V1N      0.217000
     51 N1         -8.1510  -11.1380    6.5510 n8        1 V1N     -0.354000
     52 O33        -9.6350   -0.1120    7.0850 oh        1 V1N     -0.348500
     53 H33        -9.4670   -0.5700    7.9200 ho        1 V1N      0.214000
@<TRIPOS>BOND
     1    1    2 1   
     2    1    3 1   
     3    1   34 1   
     4    2    4 1   
     5    2   35 1   
     6    3    8 1   
     7    3   32 1   
     8    4   11 1   
     9    5    9 1   
    10    5   23 1   
    11    5   50 1   
    12    6   20 1   
    13    6   21 1   
    14    7   22 1   
    15    7   24 1   
    16    7   39 1   
    17    8    9 1   
    18    8   11 1   
    19    9   18 1   
    20    9   36 1   
    21   10   12 1   
    22   10   13 1   
    23   10   22 1   
    24   11   23 1   
    25   12   20 1   
    26   12   24 1   
    27   13   21 1   
    28   13   51 1   
    29   14   15 1   
    30   14   44 1   
    31   14   46 1   
    32   14   52 1   
    33   15   27 1   
    34   15   45 1   
    35   15   47 1   
    36   16   24 1   
    37   16   26 1   
    38   17   26 1   
    39   17   28 1   
    40   18   19 1   
    41   18   40 1   
    42   18   41 1   
    43   19   30 1   
    44   19   33 1   
    45   19   49 1   
    46   20   38 1   
    47   23   37 1   
    48   25   31 1   
    49   27   48 1   
    50   28   31 1   
    51   29   31 1   
    52   30   31 1   
    53   42   51 1   
    54   43   51 1   
    55   52   53 1   
@<TRIPOS>SUBSTRUCTURE
     1 V1N         1 TEMP              0 ****  ****    0 ROOT
