@<TRIPOS>MOLECULE
V1N
   53    55     1     0     0
SMALL
bcc


@<TRIPOS>ATOM
      1 C27        -1.5660   -0.3620    1.1360 c2        1 V1N     -0.132000
      2 C28        -0.3040   -0.4830    0.3680 c3        1 V1N     -0.194000
      3 C26        -1.6400   -0.6480    2.4600 c2        1 V1N     -0.147000
      4 C29         0.9110   -0.9290    1.0610 c1        1 V1N     -0.120000
      5 C22         1.2600   -1.8800    4.5780 c1        1 V1N     -0.070000
      6 C4        -10.1480   -8.0730    7.1250 c1        1 V1N     -0.035000
      7 C9         -7.0100   -5.7200    4.8440 c2        1 V1N     -0.038000
      8 C25        -0.4570   -1.0800    3.1230 c2        1 V1N      0.056000
      9 C21        -0.2240   -1.4510    4.5660 c3        1 V1N     -0.141000
     10 C7         -7.9560   -7.5710    5.5080 c2        1 V1N     -0.262000
     11 C24         0.7560   -1.2190    2.4260 c2        1 V1N     -0.175000
     12 C6         -8.7270   -6.4830    6.0820 c2        1 V1N      0.079000
     13 C2         -8.3790   -8.9210    5.8070 c2        1 V1N      0.265000
     14 C32        -8.2690   -3.4270    7.3020 c3        1 V1N     -0.041000
     15 C30        -8.6760   -1.9500    7.4550 c3        1 V1N     -0.039000
     16 C11        -8.5910   -3.9570    5.8740 c3        1 V1N      0.210000
     17 C13        -6.7810   -2.6600    5.1510 c1        1 V1N      0.096000
     18 C20        -1.1640   -2.5170    5.0830 c3        1 V1N     -0.233000
     19 C19        -1.1060   -3.7720    4.3790 c1        1 V1N     -0.071000
     20 N5         -9.8130   -6.7470    6.8860 nh        1 V1N     -0.199000
     21 N3         -9.4770   -9.1120    6.6100 n2        1 V1N     -0.318000
     22 N8         -6.8960   -7.0510    4.7500 n2        1 V1N     -0.126000
     23 N23         1.7470   -1.7010    3.3490 n3        1 V1N     -0.165000
     24 N10        -8.1170   -5.3070    5.6360 na        1 V1N     -0.208000
     25 O16        -5.8960   -0.3610    6.4890 o         1 V1N     -0.832000
     26 O12        -8.0830   -3.0490    4.8970 os        1 V1N     -0.291000
     27 O31        -7.9330   -1.3650    8.4990 oh        1 V1N     -0.361000
     28 O14        -6.5870   -1.5670    4.4800 os        1 V1N     -0.643000
     29 O18        -5.7860    0.7280    4.2740 oh        1 V1N     -0.799000
     30 O17        -4.0370   -1.0500    4.7060 o         1 V1N     -0.832000
     31 P15        -5.3550   -0.5660    5.1340 p5        1 V1N      1.959000
     32 H27        -2.5800   -0.5880    3.0440 ha        1 V1N      0.208000
     33 H28        -0.4630   -1.2120   -0.4820 hc        1 V1N      0.148000
     34 H26        -2.4580   -0.0340    0.5800 ha        1 V1N      0.128000
     35 H29        -0.0600    0.5100   -0.1110 hc        1 V1N      0.148000
     36 H22        -0.3240   -0.5330    5.2090 hc        1 V1N      0.140000
     37 H23         2.6630   -1.9060    3.0400 hn        1 V1N      0.251000
     38 H4        -10.2750   -6.0090    7.3700 hn        1 V1N      0.263000
     39 H9         -6.3440   -4.9720    4.3910 h5        1 V1N      0.225000
     40 H201       -2.2410   -2.1440    4.9210 hc        1 V1N      0.165000
     41 H202       -1.0240   -2.6060    6.1960 hc        1 V1N      0.165000
     42 H11N       -6.8690   -9.7930    4.7430 hn        1 V1N      0.238000
     43 H12N       -7.9270  -10.9020    5.5050 hn        1 V1N      0.238000
     44 H32        -7.1690   -3.5370    7.5170 h1        1 V1N      0.129000
     45 H30        -8.5280   -1.3980    6.4910 h1        1 V1N      0.095500
     46 H11        -9.7120   -3.9450    5.7070 h2        1 V1N      0.124000
     47 H13        -9.7520   -1.8880    7.7720 h1        1 V1N      0.095500
     48 H31        -7.1160   -1.0010    8.1100 ho        1 V1N      0.266000
     49 H191       -1.5730   -4.6210    4.9050 ha        1 V1N      0.030000
     50 H192       -6.5920    1.1340    4.5740 ho        1 V1N      0.244000
     51 N1         -7.6840   -9.9710    5.2740 n3        1 V1N     -0.360000
     52 O33        -9.0270   -4.2320    8.1970 oh        1 V1N     -0.358000
     53 H33        -8.8620   -3.8760    9.0800 ho        1 V1N      0.225000
@<TRIPOS>BOND
     1    1    2 1   
     2    1    3 1   
     3    1   34 1   
     4    2    4 1   
     5    2   33 1   
     6    2   35 1   
     7    3    8 1   
     8    3   32 1   
     9    4   11 1   
    10    5    9 1   
    11    5   23 1   
    12    6   20 1   
    13    6   21 1   
    14    7   22 1   
    15    7   24 1   
    16    7   39 1   
    17    8    9 1   
    18    8   11 1   
    19    9   18 1   
    20    9   36 1   
    21   10   12 1   
    22   10   13 1   
    23   10   22 1   
    24   11   23 1   
    25   12   20 1   
    26   12   24 1   
    27   13   21 1   
    28   13   51 1   
    29   14   15 1   
    30   14   16 1   
    31   14   44 1   
    32   14   52 1   
    33   15   27 1   
    34   15   45 1   
    35   15   47 1   
    36   16   24 1   
    37   16   26 1   
    38   16   46 1   
    39   17   26 1   
    40   17   28 1   
    41   18   19 1   
    42   18   40 1   
    43   18   41 1   
    44   19   49 1   
    45   20   38 1   
    46   23   37 1   
    47   25   31 1   
    48   27   48 1   
    49   28   31 1   
    50   29   31 1   
    51   29   50 1   
    52   30   31 1   
    53   42   51 1   
    54   43   51 1   
    55   52   53 1   
@<TRIPOS>SUBSTRUCTURE
     1 V1N         1 TEMP              0 ****  ****    0 ROOT
