@<TRIPOS>MOLECULE
V1N
   53    57     1     0     0
SMALL
bcc


@<TRIPOS>ATOM
      1 C27        -8.7530    0.0230   -1.5660 ca        1 V1N     -0.171000
      2 C28        -9.0070    1.3640   -1.2350 ca        1 V1N     -0.133000
      3 C26        -7.5590   -0.5930   -1.2160 ca        1 V1N     -0.089000
      4 C29        -8.0770    2.1300   -0.5460 ca        1 V1N     -0.151000
      5 C22        -4.8000    1.0060    0.6010 cc        1 V1N     -0.075100
      6 C4          6.3260    2.5480   -1.3880 ca        1 V1N      0.666900
      7 C9          4.4010   -0.2730    1.4360 cc        1 V1N      0.428700
      8 C25        -6.5950    0.1370   -0.5230 ca        1 V1N     -0.078800
      9 C21        -5.2730   -0.1590   -0.0100 cd        1 V1N     -0.160400
     10 C7          5.8560    1.2680    0.9340 ca        1 V1N     -0.218200
     11 C24        -6.8660    1.5220   -0.1860 ca        1 V1N     -0.060200
     12 C6          5.1040    0.9910   -0.2890 ca        1 V1N      0.459800
     13 C2          6.8840    2.2610    0.8620 ca        1 V1N      0.725200
     14 C32         2.9990   -2.1110   -0.6250 c3        1 V1N      0.112100
     15 C30         1.8160   -2.2920    0.3420 c3        1 V1N      0.065100
     16 C11         3.1350   -0.5560   -0.7750 c3        1 V1N      0.213800
     17 C13         1.1840   -0.8730    0.4940 c3        1 V1N      0.360900
     18 C20        -4.5790   -1.4510   -0.0920 c3        1 V1N     -0.025200
     19 C19        -3.0950   -1.3190   -0.4540 c3        1 V1N      0.191400
     20 N5          5.3400    1.6280   -1.4760 nb        1 V1N     -0.718000
     21 N3          7.0960    2.9140   -0.3260 nb        1 V1N     -0.797000
     22 N8          5.3830    0.4600    1.9800 nd        1 V1N     -0.568100
     23 N23        -5.7590    2.0180    0.5040 na        1 V1N     -0.199400
     24 N10         4.1950   -0.0190    0.0560 na        1 V1N     -0.274000
     25 O16        -0.4950   -1.7460    2.3170 o         1 V1N     -0.833000
     26 O12         1.8690   -0.0000   -0.4280 os        1 V1N     -0.414600
     27 O31         2.3070   -2.7380    1.5890 oh        1 V1N     -0.632800
     28 O14        -0.1240   -0.8070    0.0890 os        1 V1N     -0.557200
     29 O18        -2.2930   -1.9190    0.5250 os        1 V1N     -0.573200
     30 O17        -1.9080    0.3520    1.5360 o         1 V1N     -0.833000
     31 P15        -1.2500   -0.9490    1.3280 p5        1 V1N      1.451800
     32 H27        -9.5190   -0.5440   -2.1140 ha        1 V1N      0.114000
     33 H28        -9.9640    1.8160   -1.5300 ha        1 V1N      0.113000
     34 H26        -7.3670   -1.6430   -1.4790 ha        1 V1N      0.128000
     35 H29        -8.2820    3.1770   -0.2910 ha        1 V1N      0.119000
     36 H22        -3.8310    1.1790    1.1010 h4        1 V1N      0.245000
     37 H23        -5.6490    2.9430    0.8170 hn        1 V1N      0.291700
     38 H4          6.5440    3.1000   -2.3270 h5        1 V1N      0.042100
     39 H9          3.7850   -1.0300    1.9550 h5        1 V1N      0.105800
     40 H201       -4.6650   -1.9860    0.8940 hc        1 V1N      0.045700
     41 H202       -5.0860   -2.0950   -0.8590 hc        1 V1N      0.045700
     42 H11N        7.3280    2.2020    2.8370 hn        1 V1N      0.423800
     43 H12N        8.2240    3.3410    1.9680 hn        1 V1N      0.423800
     44 H32         3.9320   -2.6110   -0.2570 h1        1 V1N      0.106700
     45 H30         1.0740   -3.0260   -0.0700 h1        1 V1N      0.079700
     46 H11         3.3280   -0.2470   -1.8440 h2        1 V1N      0.118700
     47 H13         1.3280   -0.4790    1.5410 h2        1 V1N      0.064700
     48 H31         1.5400   -2.7380    2.1930 ho        1 V1N      0.467000
     49 H191       -2.9080   -1.8630   -1.4240 h1        1 V1N      0.033200
     50 H192       -2.8050   -0.2380   -0.5770 h1        1 V1N      0.033200
     51 N1          7.6870    2.5070    1.9630 nh        1 V1N     -0.939500
     52 O33         2.7460   -2.6760   -1.8910 oh        1 V1N     -0.590800
     53 H33         1.8820   -2.3530   -2.1840 ho        1 V1N      0.417000
@<TRIPOS>BOND
     1    1    2 ar  
     2    1    3 ar  
     3    1   32 1   
     4    2    4 ar  
     5    2   33 1   
     6    3    8 ar  
     7    3   34 1   
     8    4   11 ar  
     9    4   35 1   
    10    5    9 2   
    11    5   23 1   
    12    5   36 1   
    13    6   20 ar  
    14    6   21 ar  
    15    6   38 1   
    16    7   22 2   
    17    7   24 1   
    18    7   39 1   
    19    8    9 1   
    20    8   11 ar  
    21    9   18 1   
    22   10   12 ar  
    23   10   13 ar  
    24   10   22 1   
    25   11   23 1   
    26   12   20 ar  
    27   12   24 1   
    28   13   21 ar  
    29   13   51 1   
    30   14   15 1   
    31   14   16 1   
    32   14   44 1   
    33   14   52 1   
    34   15   17 1   
    35   15   27 1   
    36   15   45 1   
    37   16   24 1   
    38   16   26 1   
    39   16   46 1   
    40   17   26 1   
    41   17   28 1   
    42   17   47 1   
    43   18   19 1   
    44   18   40 1   
    45   18   41 1   
    46   19   29 1   
    47   19   49 1   
    48   19   50 1   
    49   23   37 1   
    50   25   31 1   
    51   27   48 1   
    52   28   31 1   
    53   29   31 1   
    54   30   31 1   
    55   42   51 1   
    56   43   51 1   
    57   52   53 1   
@<TRIPOS>SUBSTRUCTURE
     1 V1N         1 TEMP              0 ****  ****    0 ROOT
