@<TRIPOS>MOLECULE
V1T
   27    28     1     0     0
SMALL
bcc


@<TRIPOS>ATOM
      1 C01        -0.0250   -0.0380   -0.0050 c3        1 V1T      0.080300
      2 N05         1.4010    0.0400    0.0140 n         1 V1T     -0.341000
      3 C06         2.2300    0.0200    1.1230 ca        1 V1T      0.106600
      4 C07         1.9560   -0.0290    2.4950 ca        1 V1T     -0.153000
      5 C09         3.0220   -0.0290    3.3860 ca        1 V1T     -0.064000
      6 C11         4.3550    0.0150    2.9420 ca        1 V1T     -0.235600
      7 C12         4.6620    0.0600    1.5570 ca        1 V1T     -0.040000
      8 C14         3.6160    0.0650    0.6560 ca        1 V1T     -0.012400
      9 N15         3.5950    0.1550   -0.7480 n         1 V1T     -0.341000
     10 C16         4.7020   -0.0950   -1.6160 c3        1 V1T      0.083300
     11 C20         2.2290    0.0830   -1.1730 c         1 V1T      0.793500
     12 O21         1.8100    0.1020   -2.3330 o         1 V1T     -0.555500
     13 C22         5.5010    0.0150    3.8270 c         1 V1T      0.581700
     14 N23         5.2230    0.0590    5.3280 n4        1 V1T     -0.763400
     15 O26         6.6970   -0.0080    3.5700 o         1 V1T     -0.436100
     16 H011       -0.4610    0.8150    0.5820 h1        1 V1T      0.074033
     17 H012       -0.3750    0.0230   -1.0720 h1        1 V1T      0.074033
     18 H013       -0.3660   -1.0100    0.4450 h1        1 V1T      0.074033
     19 H07         0.9170   -0.0660    2.8580 ha        1 V1T      0.172000
     20 H09         2.7740   -0.0710    4.4580 ha        1 V1T      0.121000
     21 H12         5.7130    0.0920    1.2230 ha        1 V1T      0.179000
     22 H161        5.5380    0.6070   -1.3510 h1        1 V1T      0.069700
     23 H162        4.3760    0.0900   -2.6760 h1        1 V1T      0.069700
     24 H163        5.0640   -1.1550   -1.5190 h1        1 V1T      0.069700
     25 H231        4.7020   -0.7740    5.6100 hn        1 V1T      0.464800
     26 H232        6.1130    0.0900    5.8400 hn        1 V1T      0.464800
     27 H233        4.6720    0.8900    5.5560 hn        1 V1T      0.464800
@<TRIPOS>BOND
     1    1    2 1   
     2    1   16 1   
     3    1   17 1   
     4    1   18 1   
     5    2    3 1   
     6    2   11 1   
     7    3    4 ar  
     8    3    8 ar  
     9    4    5 ar  
    10    4   19 1   
    11    5    6 ar  
    12    5   20 1   
    13    6    7 ar  
    14    6   13 1   
    15    7    8 ar  
    16    7   21 1   
    17    8    9 1   
    18    9   10 1   
    19    9   11 1   
    20   10   22 1   
    21   10   23 1   
    22   10   24 1   
    23   11   12 2   
    24   13   14 1   
    25   13   15 2   
    26   14   25 1   
    27   14   26 1   
    28   14   27 1   
@<TRIPOS>SUBSTRUCTURE
     1 V1T         1 TEMP              0 ****  ****    0 ROOT
