@<TRIPOS>MOLECULE
V1T
   26    27     1     0     0
SMALL
bcc


@<TRIPOS>ATOM
      1 C01         0.0240    0.1210   -0.0330 c3        1 V1T      0.085300
      2 N05         1.3930   -0.2760    0.0280 n         1 V1T     -0.345000
      3 C06         2.2270   -0.0980    1.1510 ca        1 V1T      0.020600
      4 C07         1.9310    0.0640    2.5000 ca        1 V1T     -0.140000
      5 C09         2.9950    0.1650    3.4020 ca        1 V1T     -0.099000
      6 C11         4.3220    0.1130    2.9720 ca        1 V1T     -0.144600
      7 C12         4.6470   -0.0330    1.6130 ca        1 V1T     -0.071000
      8 C14         3.6060   -0.1450    0.7020 ca        1 V1T     -0.022400
      9 N15         3.6120   -0.3620   -0.6970 n         1 V1T     -0.329000
     10 C16         4.6830    0.0490   -1.5500 c3        1 V1T      0.078300
     11 C20         2.2410   -0.3170   -1.1340 c         1 V1T      0.775500
     12 O21         1.8480   -0.4070   -2.3070 o         1 V1T     -0.611500
     13 C22         5.4600    0.2390    3.9280 c         1 V1T      0.672700
     14 N23         5.3310   -0.3280    5.1730 n         1 V1T     -0.672000
     15 O26         6.5140    0.8350    3.6220 o         1 V1T     -0.610100
     16 H011       -0.5470   -0.4270    0.7640 h1        1 V1T      0.055033
     17 H012       -0.0980    1.2260    0.1290 h1        1 V1T      0.055033
     18 H013       -0.3840   -0.1510   -1.0440 h1        1 V1T      0.055033
     19 H07         0.8910    0.1110    2.8520 ha        1 V1T      0.146000
     20 H09         2.7610    0.3090    4.4680 ha        1 V1T      0.138000
     21 H12         5.7020   -0.0450    1.2960 ha        1 V1T      0.166000
     22 H161        4.4310   -0.2430   -2.6050 h1        1 V1T      0.057033
     23 H162        5.6190   -0.4770   -1.2240 h1        1 V1T      0.057033
     24 H163        4.8560    1.1590   -1.5070 h1        1 V1T      0.057033
     25 H231        6.0920   -0.2860    5.8040 hn        1 V1T      0.313000
     26 H232        4.5460   -0.8780    5.4040 hn        1 V1T      0.313000
@<TRIPOS>BOND
     1    1    2 1   
     2    1   16 1   
     3    1   17 1   
     4    1   18 1   
     5    2    3 1   
     6    2   11 1   
     7    3    4 ar  
     8    3    8 ar  
     9    4    5 ar  
    10    4   19 1   
    11    5    6 ar  
    12    5   20 1   
    13    6    7 ar  
    14    6   13 1   
    15    7    8 ar  
    16    7   21 1   
    17    8    9 1   
    18    9   10 1   
    19    9   11 1   
    20   10   22 1   
    21   10   23 1   
    22   10   24 1   
    23   11   12 2   
    24   13   14 1   
    25   13   15 2   
    26   14   25 1   
    27   14   26 1   
@<TRIPOS>SUBSTRUCTURE
     1 V1T         1 TEMP              0 ****  ****    0 ROOT
