@<TRIPOS>MOLECULE
V1T
   27    28     1     0     0
SMALL
bcc


@<TRIPOS>ATOM
      1 C01        -0.0250   -0.0400   -0.0050 c3        1 V1T      0.080300
      2 N05         1.4010    0.0410    0.0140 n         1 V1T     -0.341000
      3 C06         2.2290    0.0190    1.1230 ca        1 V1T      0.106600
      4 C07         1.9560   -0.0350    2.4940 ca        1 V1T     -0.153000
      5 C09         3.0220   -0.0360    3.3850 ca        1 V1T     -0.064000
      6 C11         4.3550    0.0120    2.9420 ca        1 V1T     -0.235600
      7 C12         4.6620    0.0620    1.5570 ca        1 V1T     -0.040000
      8 C14         3.6160    0.0680    0.6560 ca        1 V1T     -0.012400
      9 N15         3.5940    0.1630   -0.7480 n         1 V1T     -0.341000
     10 C16         4.7020   -0.0830   -1.6170 c3        1 V1T      0.083300
     11 C20         2.2280    0.0890   -1.1730 c         1 V1T      0.793500
     12 O21         1.8090    0.1110   -2.3330 o         1 V1T     -0.555500
     13 C22         5.5010    0.0110    3.8260 c         1 V1T      0.581700
     14 N23         5.2230    0.0510    5.3270 nz        1 V1T     -0.763400
     15 O26         6.6970   -0.0090    3.5690 o         1 V1T     -0.436100
     16 H011       -0.3760    0.0240   -1.0720 h1        1 V1T      0.074033
     17 H012       -0.4630    0.8110    0.5850 h1        1 V1T      0.074033
     18 H013       -0.3650   -1.0140    0.4420 h1        1 V1T      0.074033
     19 H07         0.9180   -0.0740    2.8580 ha        1 V1T      0.172000
     20 H09         2.7750   -0.0810    4.4570 ha        1 V1T      0.121000
     21 H12         5.7120    0.0970    1.2220 ha        1 V1T      0.178000
     22 H161        5.0660   -1.1420   -1.5230 h1        1 V1T      0.069700
     23 H162        5.5360    0.6210   -1.3510 h1        1 V1T      0.069700
     24 H163        4.3750    0.1050   -2.6760 h1        1 V1T      0.069700
     25 H231        4.6720    0.8810    5.5570 hn        1 V1T      0.464800
     26 H232        6.1140    0.0820    5.8390 hn        1 V1T      0.464800
     27 H233        4.7040   -0.7840    5.6070 hn        1 V1T      0.464800
@<TRIPOS>BOND
     1    1    2 1   
     2    1   16 1   
     3    1   17 1   
     4    1   18 1   
     5    2    3 1   
     6    2   11 1   
     7    3    4 ar  
     8    3    8 ar  
     9    4    5 ar  
    10    4   19 1   
    11    5    6 ar  
    12    5   20 1   
    13    6    7 ar  
    14    6   13 1   
    15    7    8 ar  
    16    7   21 1   
    17    8    9 1   
    18    9   10 1   
    19    9   11 1   
    20   10   22 1   
    21   10   23 1   
    22   10   24 1   
    23   11   12 2   
    24   13   14 1   
    25   13   15 2   
    26   14   25 1   
    27   14   26 1   
    28   14   27 1   
@<TRIPOS>SUBSTRUCTURE
     1 V1T         1 TEMP              0 ****  ****    0 ROOT
