@<TRIPOS>MOLECULE
V20
   46    46     1     0     0
SMALL
bcc


@<TRIPOS>ATOM
      1 OXT         6.1830    0.7490    2.3150 o         1 V20     -0.763800
      2 C           5.1470    0.1290    1.9700 c         1 V20      0.936600
      3 O           4.1560    0.5190    1.3270 o         1 V20     -0.763800
      4 CA          5.1170   -1.4230    2.3970 c3        1 V20     -0.070500
      5 N           6.1740   -1.6790    3.4120 n4        1 V20     -0.813600
      6 CB          3.7270   -1.8090    2.8620 c3        1 V20     -0.095400
      7 CAJ         3.4780   -3.2980    2.7490 c3        1 V20     -0.112400
      8 CAL         2.1110   -3.6660    3.2980 c3        1 V20     -0.146400
      9 CAT         2.1530   -3.7950    4.7970 c         1 V20      0.556100
     10 OAE         1.7950   -2.9610    5.6170 o         1 V20     -0.436100
     11 NAO         2.6860   -5.0980    5.3160 n4        1 V20     -0.686800
     12 CAW         3.7620   -4.9520    6.3530 c3        1 V20      0.086500
     13 CAK         3.6720   -6.0270    7.4270 c3        1 V20     -0.010300
     14 SAI         1.9920   -6.2580    7.9580 sh        1 V20     -0.392900
     15 CAU         5.1630   -5.0880    5.6120 c3        1 V20      0.687100
     16 OAF         5.1490   -5.6590    4.4690 o         1 V20     -0.755500
     17 OAP         6.1010   -5.6520    6.5430 os        1 V20     -0.479600
     18 CAX         7.3260   -4.9090    6.5630 c3        1 V20      0.084100
     19 CAS         6.9500   -3.6090    5.8780 c         1 V20      0.713600
     20 OAD         7.5540   -2.5620    5.6420 o         1 V20     -0.643500
     21 OAH         5.6680   -3.6920    5.4330 os        1 V20     -0.551900
     22 CAN         7.7830   -4.7410    7.9980 c3        1 V20     -0.032300
     23 SAQ         9.5340   -4.6950    8.1610 ss        1 V20     -0.264200
     24 CAA         9.9340   -3.0050    7.9260 c3        1 V20     -0.057000
     25 HA          5.3900   -1.9980    1.4690 hx        1 V20      0.085700
     26 HN1         6.5880   -2.6050    3.3160 hn        1 V20      0.451800
     27 HN2         6.8980   -0.9440    3.2900 hn        1 V20      0.451800
     28 HBC1        3.5400   -1.4650    3.9140 hc        1 V20      0.084200
     29 HBC2        3.0060   -1.2450    2.2010 hc        1 V20      0.084200
     30 HAJ1        3.5110   -3.5980    1.6670 hc        1 V20      0.081700
     31 HAJ2        4.2840   -3.8810    3.2800 hc        1 V20      0.081700
     32 HAL1        1.3650   -2.8600    3.0500 hc        1 V20      0.095700
     33 HAL2        1.7540   -4.6230    2.8350 hc        1 V20      0.095700
     34 HAO         1.9070   -5.6430    5.7320 hn        1 V20      0.477300
     35 HAW         3.6750   -3.9270    6.8130 hx        1 V20      0.121700
     36 HAK1        4.1100   -6.9850    7.0520 h1        1 V20      0.112700
     37 HAK2        4.3010   -5.6910    8.2910 h1        1 V20      0.112700
     38 HAI         1.9900   -7.5770    8.1020 hs        1 V20      0.233800
     39 HAX         8.0870   -5.4690    5.9510 h1        1 V20      0.112700
     40 HAN1        7.3110   -3.8400    8.4570 h1        1 V20      0.088700
     41 HAN2        7.4530   -5.6420    8.5810 h1        1 V20      0.088700
     42 HAA1        9.5840   -2.3760    8.7740 h1        1 V20      0.073700
     43 HAA2       11.0460   -2.9580    7.8730 h1        1 V20      0.073700
     44 HAA3        9.5040   -2.5980    6.9810 h1        1 V20      0.073700
     45 HN3         5.8030   -1.6060    4.3630 hn        1 V20      0.451800
     46 HAO2        3.1180   -5.6280    4.5230 hn        1 V20      0.477300
@<TRIPOS>BOND
     1    1    2 1   
     2    2    3 1   
     3    2    4 1   
     4    4    5 1   
     5    4    6 1   
     6    4   25 1   
     7    5   26 1   
     8    5   27 1   
     9    5   45 1   
    10    6    7 1   
    11    6   28 1   
    12    6   29 1   
    13    7    8 1   
    14    7   30 1   
    15    7   31 1   
    16    8    9 1   
    17    8   32 1   
    18    8   33 1   
    19    9   10 2   
    20    9   11 1   
    21   11   12 1   
    22   11   34 1   
    23   11   46 1   
    24   12   13 1   
    25   12   15 1   
    26   12   35 1   
    27   13   14 1   
    28   13   36 1   
    29   13   37 1   
    30   14   38 1   
    31   15   16 1   
    32   15   17 1   
    33   15   21 1   
    34   17   18 1   
    35   18   19 1   
    36   18   22 1   
    37   18   39 1   
    38   19   20 2   
    39   19   21 1   
    40   22   23 1   
    41   22   40 1   
    42   22   41 1   
    43   23   24 1   
    44   24   42 1   
    45   24   43 1   
    46   24   44 1   
@<TRIPOS>SUBSTRUCTURE
     1 V20         1 TEMP              0 ****  ****    0 ROOT
