@<TRIPOS>MOLECULE
V20
   46    46     1     0     0
SMALL
bcc


@<TRIPOS>ATOM
      1 OXT         6.4550    0.5240    2.1010 o         1 V20     -0.763800
      2 C           5.3810   -0.0450    1.7840 c         1 V20      0.936600
      3 O           4.4160    0.3730    1.1200 o         1 V20     -0.763800
      4 CA          5.2520   -1.5680    2.2900 c3        1 V20     -0.070500
      5 N           6.2930   -1.8400    3.3170 n4        1 V20     -0.813600
      6 CB          3.8410   -1.8400    2.7720 c3        1 V20     -0.095400
      7 CAJ         3.4980   -3.3140    2.7360 c3        1 V20     -0.112400
      8 CAL         2.1100   -3.5640    3.3000 c3        1 V20     -0.146400
      9 CAT         2.1460   -3.6170    4.8030 c         1 V20      0.556100
     10 OAE         1.8450   -2.7200    5.5780 o         1 V20     -0.436100
     11 NAO         2.5930   -4.9240    5.3910 n4        1 V20     -0.686800
     12 CAW         3.6800   -4.7940    6.4200 c3        1 V20      0.086500
     13 CAK         3.5220   -5.8010    7.5500 c3        1 V20     -0.010300
     14 SAI         1.8310   -5.8930    8.0910 sh        1 V20     -0.392900
     15 CAU         5.0670   -5.0610    5.6890 c3        1 V20      0.687100
     16 OAF         5.0110   -5.6890    4.5770 o         1 V20     -0.755500
     17 OAP         5.9680   -5.6370    6.6490 os        1 V20     -0.479600
     18 CAX         7.2400   -4.9770    6.6280 c3        1 V20      0.084100
     19 CAS         6.9490   -3.6930    5.8760 c         1 V20      0.714600
     20 OAD         7.6210   -2.7020    5.5870 o         1 V20     -0.643500
     21 OAH         5.6630   -3.7130    5.4370 os        1 V20     -0.551900
     22 CAN         7.7130   -4.7670    8.0530 c3        1 V20     -0.032300
     23 SAQ         9.4640   -4.8300    8.2110 ss        1 V20     -0.264200
     24 CAA         9.9760   -3.1850    7.8870 c3        1 V20     -0.057000
     25 HA          5.4870   -2.2060    1.3920 hx        1 V20      0.085700
     26 HN1         5.9290   -1.6980    4.2640 hn        1 V20      0.451800
     27 HN2         6.6480   -2.7930    3.2680 hn        1 V20      0.451800
     28 HBC1        3.1570   -1.2660    2.0810 hc        1 V20      0.084200
     29 HBC2        3.6780   -1.4310    3.8040 hc        1 V20      0.084200
     30 HAJ1        4.2650   -3.9190    3.2970 hc        1 V20      0.081700
     31 HAJ2        3.5100   -3.6710    1.6700 hc        1 V20      0.081700
     32 HAL1        1.4170   -2.7270    3.0080 hc        1 V20      0.095700
     33 HAL2        1.6920   -4.5200    2.8860 hc        1 V20      0.095700
     34 HAO         2.9870   -5.5220    4.6280 hn        1 V20      0.477300
     35 HAW         3.6620   -3.7420    6.8240 hx        1 V20      0.121700
     36 HAK1        4.1740   -5.4630    8.3950 h1        1 V20      0.112700
     37 HAK2        3.8950   -6.8050    7.2270 h1        1 V20      0.112700
     38 HAI         1.7430   -7.1990    8.3050 hs        1 V20      0.233800
     39 HAX         7.9590   -5.6190    6.0460 h1        1 V20      0.112700
     40 HAN1        7.3260   -5.6110    8.6810 h1        1 V20      0.088700
     41 HAN2        7.3040   -3.8130    8.4640 h1        1 V20      0.088700
     42 HAA1       11.0890   -3.2160    7.8320 h1        1 V20      0.073700
     43 HAA2        9.6720   -2.4910    8.7020 h1        1 V20      0.073700
     44 HAA3        9.5710   -2.8000    6.9230 h1        1 V20      0.073700
     45 HN3         7.0610   -1.1580    3.1620 hn        1 V20      0.451800
     46 HAO2        1.7820   -5.3930    5.8350 hn        1 V20      0.477300
@<TRIPOS>BOND
     1    1    2 1   
     2    2    3 1   
     3    2    4 1   
     4    4    5 1   
     5    4    6 1   
     6    4   25 1   
     7    5   26 1   
     8    5   27 1   
     9    5   45 1   
    10    6    7 1   
    11    6   28 1   
    12    6   29 1   
    13    7    8 1   
    14    7   30 1   
    15    7   31 1   
    16    8    9 1   
    17    8   32 1   
    18    8   33 1   
    19    9   10 2   
    20    9   11 1   
    21   11   12 1   
    22   11   34 1   
    23   11   46 1   
    24   12   13 1   
    25   12   15 1   
    26   12   35 1   
    27   13   14 1   
    28   13   36 1   
    29   13   37 1   
    30   14   38 1   
    31   15   16 1   
    32   15   17 1   
    33   15   21 1   
    34   17   18 1   
    35   18   19 1   
    36   18   22 1   
    37   18   39 1   
    38   19   20 2   
    39   19   21 1   
    40   22   23 1   
    41   22   40 1   
    42   22   41 1   
    43   23   24 1   
    44   24   42 1   
    45   24   43 1   
    46   24   44 1   
@<TRIPOS>SUBSTRUCTURE
     1 V20         1 TEMP              0 ****  ****    0 ROOT
