@<TRIPOS>MOLECULE
V20
   46    46     1     0     0
SMALL
bcc


@<TRIPOS>ATOM
      1 OXT         6.2110    0.8930    2.5590 o         1 V20     -0.763800
      2 C           5.2370    0.2420    2.1070 c         1 V20      0.936600
      3 O           4.2850    0.6110    1.3970 o         1 V20     -0.763800
      4 CA          5.2440   -1.3240    2.4780 c3        1 V20     -0.070500
      5 N           6.2250   -1.5730    3.5680 nz        1 V20     -0.813600
      6 CB          3.8400   -1.7880    2.8120 c3        1 V20     -0.095400
      7 CAJ         3.6710   -3.2810    2.6300 c3        1 V20     -0.112400
      8 CAL         2.2810   -3.7280    3.0490 c3        1 V20     -0.146400
      9 CAT         2.2060   -3.9090    4.5410 c         1 V20      0.556100
     10 OAE         1.7440   -3.1220    5.3560 o         1 V20     -0.436100
     11 NAO         2.7530   -5.2070    5.0610 ny        1 V20     -0.686800
     12 CAW         3.7330   -5.0520    6.1880 c3        1 V20      0.086500
     13 CAK         3.6040   -6.1670    7.2160 c3        1 V20     -0.010300
     14 SAI         1.8980   -6.4880    7.5980 sh        1 V20     -0.392900
     15 CAU         5.1950   -5.1020    5.5620 c3        1 V20      0.687100
     16 OAF         5.2990   -5.6310    4.4040 o         1 V20     -0.755500
     17 OAP         6.0780   -5.6590    6.5490 os        1 V20     -0.479600
     18 CAX         7.2630   -4.8660    6.6940 c3        1 V20      0.084100
     19 CAS         6.8860   -3.5600    6.0230 c         1 V20      0.713600
     20 OAD         7.4590   -2.4800    5.8720 o         1 V20     -0.643500
     21 OAH         5.6500   -3.6800    5.4710 os        1 V20     -0.551900
     22 CAN         7.5950   -4.7320    8.1660 c3        1 V20     -0.032300
     23 SAQ         9.3230   -4.6190    8.4740 ss        1 V20     -0.264200
     24 CAA         9.6650   -2.9060    8.3270 c3        1 V20     -0.057000
     25 HA          5.6190   -1.8520    1.5570 hx        1 V20      0.085700
     26 HN1         5.7740   -1.5530    4.4870 hn        1 V20      0.451800
     27 HN2         6.6890   -2.4750    3.4750 hn        1 V20      0.451800
     28 HBC1        3.5510   -1.4920    3.8560 hc        1 V20      0.084200
     29 HBC2        3.1510   -1.2320    2.1110 hc        1 V20      0.084200
     30 HAJ1        3.8070   -3.5400    1.5450 hc        1 V20      0.081700
     31 HAJ2        4.4560   -3.8480    3.2070 hc        1 V20      0.081700
     32 HAL1        2.0080   -4.6830    2.5270 hc        1 V20      0.095700
     33 HAL2        1.5220   -2.9470    2.7660 hc        1 V20      0.095700
     34 HAO         1.9690   -5.7980    5.3930 hn        1 V20      0.477300
     35 HAW         3.5620   -4.0480    6.6710 hx        1 V20      0.121700
     36 HAK1        4.1140   -7.0920    6.8480 h1        1 V20      0.112700
     37 HAK2        4.1450   -5.8360    8.1390 h1        1 V20      0.112700
     38 HAI         1.9440   -7.8090    7.6990 hs        1 V20      0.233800
     39 HAX         8.0950   -5.3720    6.1280 h1        1 V20      0.112700
     40 HAN1        7.0470   -3.8690    8.6140 h1        1 V20      0.088700
     41 HAN2        7.2590   -5.6660    8.6900 h1        1 V20      0.088700
     42 HAA1        9.2200   -2.3240    9.1650 h1        1 V20      0.073700
     43 HAA2       10.7750   -2.8110    8.3680 h1        1 V20      0.073700
     44 HAA3        9.2960   -2.4830    7.3640 h1        1 V20      0.073700
     45 HN3         6.9210   -0.8010    3.5340 hn        1 V20      0.451800
     46 HAO2        3.2720   -5.6890    4.2900 hn        1 V20      0.477300
@<TRIPOS>BOND
     1    1    2 1   
     2    2    3 1   
     3    2    4 1   
     4    4    5 1   
     5    4    6 1   
     6    4   25 1   
     7    5   26 1   
     8    5   27 1   
     9    5   45 1   
    10    6    7 1   
    11    6   28 1   
    12    6   29 1   
    13    7    8 1   
    14    7   30 1   
    15    7   31 1   
    16    8    9 1   
    17    8   32 1   
    18    8   33 1   
    19    9   10 2   
    20    9   11 1   
    21   11   12 1   
    22   11   34 1   
    23   11   46 1   
    24   12   13 1   
    25   12   15 1   
    26   12   35 1   
    27   13   14 1   
    28   13   36 1   
    29   13   37 1   
    30   14   38 1   
    31   15   16 1   
    32   15   17 1   
    33   15   21 1   
    34   17   18 1   
    35   18   19 1   
    36   18   22 1   
    37   18   39 1   
    38   19   20 2   
    39   19   21 1   
    40   22   23 1   
    41   22   40 1   
    42   22   41 1   
    43   23   24 1   
    44   24   42 1   
    45   24   43 1   
    46   24   44 1   
@<TRIPOS>SUBSTRUCTURE
     1 V20         1 TEMP              0 ****  ****    0 ROOT
