@<TRIPOS>MOLECULE
V20
   44    43     1     0     0
SMALL
bcc


@<TRIPOS>ATOM
      1 OXT         7.9480   -0.9370    1.7120 o         1 V20     -0.847800
      2 C           7.3280   -0.2510    0.8480 c         1 V20      0.886600
      3 O           7.7880    0.7960    0.3140 o         1 V20     -0.847800
      4 CA          5.9170   -0.7460    0.3870 c3        1 V20      0.021500
      5 N           5.4440   -1.9380    1.0790 n3        1 V20     -0.890800
      6 CB          4.9430    0.4300    0.4690 c3        1 V20     -0.065400
      7 CAJ         3.6330    0.1510   -0.2400 c3        1 V20     -0.074400
      8 CAL         2.7430    1.3770   -0.2130 c3        1 V20     -0.151400
      9 CAT         1.4680    1.1910   -1.0110 c         1 V20      0.661100
     10 OAE         1.2480    1.8420   -2.0550 o         1 V20     -0.634100
     11 NAO         0.5570    0.2500   -0.5620 n         1 V20     -0.567900
     12 CAW        -0.7790    0.1430   -1.0940 c3        1 V20      0.051700
     13 CAK        -0.9930   -1.0960   -1.9700 c3        1 V20      0.006700
     14 SAI        -0.2350   -1.0260   -3.5700 sh        1 V20     -0.429900
     15 CAU        -1.8220    0.0880    0.0320 c         1 V20      0.606100
     16 OAF        -1.5950   -0.0610    1.2370 o         1 V20     -0.568000
     17 OAP        -3.0840    0.2150   -0.4360 os        1 V20     -0.392900
     18 CAX        -4.1740    0.1970    0.5160 c3        1 V20      0.020100
     19 CAS        -5.3670    0.8870   -0.2330 c         1 V20      0.926600
     20 OAD        -6.1860    0.1460   -0.8430 o         1 V20     -0.817800
     21 OAH        -5.4470    2.1370   -0.1330 o         1 V20     -0.817800
     22 CAN        -4.4690   -1.2400    0.8950 c3        1 V20     -0.011300
     23 SAQ        -5.3730   -1.4270    2.4080 ss        1 V20     -0.348200
     24 CAA        -7.0450   -1.1320    1.9550 c3        1 V20     -0.048000
     25 HA          6.0270   -1.0350   -0.7000 h1        1 V20      0.042700
     26 HN1         6.2370   -2.5470    1.1990 hn        1 V20      0.329800
     27 HN2         5.1490   -1.6760    2.0030 hn        1 V20      0.329800
     28 HBC1        4.7420    0.6900    1.5410 hc        1 V20      0.047700
     29 HBC2        5.4550    1.3130   -0.0010 hc        1 V20      0.047700
     30 HAJ1        3.8380   -0.1420   -1.3030 hc        1 V20      0.046200
     31 HAJ2        3.1120   -0.7130    0.2490 hc        1 V20      0.046200
     32 HAL1        2.4830    1.6390    0.8460 hc        1 V20      0.067700
     33 HAL2        3.2900    2.2510   -0.6590 hc        1 V20      0.067700
     34 HAO         0.7220   -0.1970    0.3120 hn        1 V20      0.328500
     35 HAW        -1.0040    1.0650   -1.7180 h1        1 V20      0.122700
     36 HAK1       -0.6340   -2.0140   -1.4460 h1        1 V20      0.087700
     37 HAK2       -2.0920   -1.2030   -2.1640 h1        1 V20      0.087700
     38 HAI         0.7160   -0.1200   -3.3520 hs        1 V20      0.248800
     39 HAX        -3.8850    0.8040    1.4140 h1        1 V20      0.073700
     40 HAN1       -5.0290   -1.7210    0.0540 h1        1 V20      0.078200
     41 HAN2       -3.5120   -1.7900    1.0740 h1        1 V20      0.078200
     42 HAA1       -7.5100   -0.4960    2.7400 h1        1 V20      0.067700
     43 HAA2       -7.1120   -0.6060    0.9680 h1        1 V20      0.067700
     44 HAA3       -7.5980   -2.0950    1.8910 h1        1 V20      0.067700
@<TRIPOS>BOND
     1    1    2 1   
     2    2    3 1   
     3    2    4 1   
     4    4    5 1   
     5    4    6 1   
     6    4   25 1   
     7    5   26 1   
     8    5   27 1   
     9    6    7 1   
    10    6   28 1   
    11    6   29 1   
    12    7    8 1   
    13    7   30 1   
    14    7   31 1   
    15    8    9 1   
    16    8   32 1   
    17    8   33 1   
    18    9   10 2   
    19    9   11 1   
    20   11   12 1   
    21   11   34 1   
    22   12   13 1   
    23   12   15 1   
    24   12   35 1   
    25   13   14 1   
    26   13   36 1   
    27   13   37 1   
    28   14   38 1   
    29   15   16 2   
    30   15   17 1   
    31   17   18 1   
    32   18   19 1   
    33   18   22 1   
    34   18   39 1   
    35   19   20 1   
    36   19   21 1   
    37   22   23 1   
    38   22   40 1   
    39   22   41 1   
    40   23   24 1   
    41   24   42 1   
    42   24   43 1   
    43   24   44 1   
@<TRIPOS>SUBSTRUCTURE
     1 V20         1 TEMP              0 ****  ****    0 ROOT
