@<TRIPOS>MOLECULE
V21
   27    29     1     0     0
SMALL
bcc


@<TRIPOS>ATOM
      1 O12        -0.0630    0.0510    0.0150 o         1 V21     -0.540200
      2 S9          1.3000    0.2440    0.0720 s6        1 V21      1.919100
      3 O11         2.0220   -0.1100    1.1940 o         1 V21     -0.583800
      4 N10         1.8410   -1.2450   -1.1070 n4        1 V21     -0.777500
      5 C8          1.8930    1.4100   -0.7840 cc        1 V21     -1.097000
      6 C13         1.1000    1.9960   -1.8350 cc        1 V21     -0.033000
      7 C1          1.5040    3.0470   -2.5990 cd        1 V21     -0.222800
      8 C7          3.1660    1.9670   -0.5140 cc        1 V21      0.122000
      9 C6          3.5990    3.0270   -1.2710 cd        1 V21     -0.212600
     10 C2          2.7860    3.6310   -2.3640 cd        1 V21      0.514100
     11 N5          4.7830    3.7970   -1.2480 na        1 V21      0.125600
     12 S15         6.8220    5.0810   -1.1530 ss        1 V21      0.414200
     13 N14         5.8870    3.8400   -0.5810 n2        1 V21     -0.388900
     14 C16         5.7760    5.6330   -2.3540 cd        1 V21     -0.175500
     15 C4          4.6270    4.7990   -2.3040 cc        1 V21      0.393800
     16 N3          3.4130    4.6760   -2.9650 nc        1 V21     -0.615000
     17 S17         5.8660    6.8470   -3.4450 ss        1 V21      0.171000
     18 C18         7.4090    7.5840   -3.1460 c3        1 V21     -0.158000
     19 HN10        2.3110   -0.9110   -1.9390 hn        1 V21      0.443800
     20 HN1A        1.0230   -1.7750   -1.3930 hn        1 V21      0.443800
     21 H13         0.0920    1.5680   -2.0010 ha        1 V21      0.159000
     22 H1          0.8630    3.4710   -3.3890 ha        1 V21      0.183000
     23 H7          3.7870    1.5550    0.3060 ha        1 V21      0.176000
     24 H18         7.4820    8.4220   -3.8870 h1        1 V21      0.098700
     25 H18A        7.5050    8.0200   -2.1240 h1        1 V21      0.098700
     26 H18B        8.2710    6.8980   -3.3180 h1        1 V21      0.098700
     27 H103        2.4680   -1.8730   -0.6140 hn        1 V21      0.443800
@<TRIPOS>BOND
     1    1    2 1   
     2    2    3 2   
     3    2    4 1   
     4    2    5 2   
     5    4   19 1   
     6    4   20 1   
     7    4   27 1   
     8    5    6 1   
     9    5    8 1   
    10    6    7 2   
    11    6   21 1   
    12    7   10 1   
    13    7   22 1   
    14    8    9 2   
    15    8   23 1   
    16    9   10 1   
    17    9   11 1   
    18   10   16 2   
    19   11   13 2   
    20   11   15 1   
    21   12   13 1   
    22   12   14 1   
    23   14   15 2   
    24   14   17 1   
    25   15   16 1   
    26   17   18 1   
    27   18   24 1   
    28   18   25 1   
    29   18   26 1   
@<TRIPOS>SUBSTRUCTURE
     1 V21         1 TEMP              0 ****  ****    0 ROOT
