@<TRIPOS>MOLECULE
V21
   26    28     1     0     0
SMALL
bcc


@<TRIPOS>ATOM
      1 O12        -5.0180   -0.7280   -0.7150 o         1 V21     -0.617200
      2 S9         -4.2200    0.2630   -0.1040 s6        1 V21      1.933100
      3 O11        -4.2210    1.5530   -0.6800 o         1 V21     -0.660800
      4 N10        -4.6320    0.3820    1.4410 n3        1 V21     -1.026700
      5 C8         -2.6280   -0.2860   -0.0410 cc        1 V21     -0.861000
      6 C13        -2.3770   -1.6820    0.0250 cc        1 V21     -0.028000
      7 C1         -1.1130   -2.2190    0.0700 cd        1 V21     -0.239800
      8 C7         -1.5670    0.6080   -0.0810 cc        1 V21      0.062000
      9 C6         -0.2690    0.0940   -0.0360 cd        1 V21     -0.194600
     10 C2          0.0020   -1.3460    0.0450 cd        1 V21      0.481100
     11 N5          0.9940    0.7010   -0.0570 na        1 V21      0.096600
     12 S15         3.1430    1.7910   -0.0920 ss        1 V21      0.368200
     13 N14         1.4960    1.8960   -0.1130 n2        1 V21     -0.406900
     14 C16         3.2890    0.1310    0.0020 cd        1 V21     -0.212500
     15 C4          1.9720   -0.4090    0.0170 cc        1 V21      0.420800
     16 N3          1.3600   -1.6260    0.0770 nc        1 V21     -0.665000
     17 S17         4.5880   -0.8790    0.0690 ss        1 V21      0.068000
     18 C18         5.9550    0.1990    0.0360 c3        1 V21     -0.130000
     19 HN10       -5.0480   -0.3530    1.9540 hn        1 V21      0.446300
     20 HN1A       -4.5130    1.2040    1.9770 hn        1 V21      0.446300
     21 H13        -3.2510   -2.3600    0.0190 ha        1 V21      0.152000
     22 H1         -0.9490   -3.3050    0.1160 ha        1 V21      0.158000
     23 H7         -1.7440    1.6950   -0.1650 ha        1 V21      0.169000
     24 H18         6.0100    0.8070   -0.8970 h1        1 V21      0.080367
     25 H18A        5.9860    0.8930    0.9070 h1        1 V21      0.080367
     26 H18B        6.8550   -0.4620    0.0790 h1        1 V21      0.080367
@<TRIPOS>BOND
     1    1    2 1   
     2    2    3 2   
     3    2    4 1   
     4    2    5 2   
     5    4   19 1   
     6    4   20 1   
     7    5    6 1   
     8    5    8 1   
     9    6    7 2   
    10    6   21 1   
    11    7   10 1   
    12    7   22 1   
    13    8    9 2   
    14    8   23 1   
    15    9   10 1   
    16    9   11 1   
    17   10   16 2   
    18   11   13 2   
    19   11   15 1   
    20   12   13 1   
    21   12   14 1   
    22   14   15 2   
    23   14   17 1   
    24   15   16 1   
    25   17   18 1   
    26   18   24 1   
    27   18   25 1   
    28   18   26 1   
@<TRIPOS>SUBSTRUCTURE
     1 V21         1 TEMP              0 ****  ****    0 ROOT
