@<TRIPOS>MOLECULE
V21
   27    29     1     0     0
SMALL
bcc


@<TRIPOS>ATOM
      1 O12        -0.0600    0.0500    0.0200 o         1 V21     -0.540200
      2 S9          1.3030    0.2460    0.0790 s6        1 V21      1.919100
      3 O11         2.0240   -0.1030    1.2030 o         1 V21     -0.583800
      4 N10         1.8480   -1.2470   -1.0940 nz        1 V21     -0.777500
      5 C8          1.8950    1.4100   -0.7810 cc        1 V21     -1.098000
      6 C13         1.1020    1.9910   -1.8350 cc        1 V21     -0.033000
      7 C1          1.5060    3.0400   -2.6020 cd        1 V21     -0.222800
      8 C7          3.1670    1.9700   -0.5110 cc        1 V21      0.122000
      9 C6          3.5980    3.0290   -1.2710 cd        1 V21     -0.212600
     10 C2          2.7860    3.6270   -2.3680 cd        1 V21      0.514100
     11 N5          4.7810    3.8010   -1.2500 na        1 V21      0.125600
     12 S15         6.8170    5.0880   -1.1560 ss        1 V21      0.414200
     13 N14         5.8840    3.8480   -0.5800 n2        1 V21     -0.388900
     14 C16         5.7730    5.6350   -2.3610 cd        1 V21     -0.175500
     15 C4          4.6250    4.7990   -2.3090 cc        1 V21      0.393800
     16 N3          3.4120    4.6710   -2.9720 nc        1 V21     -0.615000
     17 S17         5.8620    6.8450   -3.4550 ss        1 V21      0.171000
     18 C18         7.4030    7.5860   -3.1570 c3        1 V21     -0.158000
     19 HN10        2.4750   -1.8710   -0.5980 hn        1 V21      0.443800
     20 HN1A        2.3180   -0.9140   -1.9270 hn        1 V21      0.443800
     21 H13         0.0960    1.5610   -2.0010 ha        1 V21      0.159000
     22 H1          0.8650    3.4600   -3.3950 ha        1 V21      0.183000
     23 H7          3.7870    1.5620    0.3110 ha        1 V21      0.176000
     24 H18         8.2670    6.9010   -3.3250 h1        1 V21      0.098700
     25 H18A        7.4950    8.0250   -2.1360 h1        1 V21      0.098700
     26 H18B        7.4750    8.4210   -3.9000 h1        1 V21      0.098700
     27 H103        1.0310   -1.7790   -1.3790 hn        1 V21      0.443800
@<TRIPOS>BOND
     1    1    2 1   
     2    2    3 2   
     3    2    4 1   
     4    2    5 2   
     5    4   19 1   
     6    4   20 1   
     7    4   27 1   
     8    5    6 1   
     9    5    8 1   
    10    6    7 2   
    11    6   21 1   
    12    7   10 1   
    13    7   22 1   
    14    8    9 2   
    15    8   23 1   
    16    9   10 1   
    17    9   11 1   
    18   10   16 2   
    19   11   13 2   
    20   11   15 1   
    21   12   13 1   
    22   12   14 1   
    23   14   15 2   
    24   14   17 1   
    25   15   16 1   
    26   17   18 1   
    27   18   24 1   
    28   18   25 1   
    29   18   26 1   
@<TRIPOS>SUBSTRUCTURE
     1 V21         1 TEMP              0 ****  ****    0 ROOT
