@<TRIPOS>MOLECULE
V21
   27    29     1     0     0
SMALL
bcc


@<TRIPOS>ATOM
      1 O12        -0.0650    0.0520    0.0130 o         1 V21     -0.540200
      2 S9          1.2970    0.2520    0.0790 s6        1 V21      1.919100
      3 O11         2.0110   -0.0890    1.2110 o         1 V21     -0.583800
      4 N10         1.8530   -1.2470   -1.0810 n4        1 V21     -0.777500
      5 C8          1.8930    1.4110   -0.7830 cc        1 V21     -1.097000
      6 C13         1.1060    1.9840   -1.8460 cc        1 V21     -0.033000
      7 C1          1.5120    3.0290   -2.6170 cd        1 V21     -0.222800
      8 C7          3.1610    1.9760   -0.5080 cc        1 V21      0.122000
      9 C6          3.5950    3.0310   -1.2710 cd        1 V21     -0.212600
     10 C2          2.7900    3.6210   -2.3770 cd        1 V21      0.514100
     11 N5          4.7770    3.8060   -1.2470 na        1 V21      0.125600
     12 S15         6.8090    5.0990   -1.1470 ss        1 V21      0.414200
     13 N14         5.8750    3.8600   -0.5700 n2        1 V21     -0.388900
     14 C16         5.7720    5.6350   -2.3610 cd        1 V21     -0.175500
     15 C4          4.6260    4.7970   -2.3130 cc        1 V21      0.393800
     16 N3          3.4170    4.6620   -2.9830 nc        1 V21     -0.615000
     17 S17         5.8660    6.8390   -3.4630 ss        1 V21      0.171000
     18 C18         7.4030    7.5850   -3.1580 c3        1 V21     -0.158000
     19 HN10        2.4780   -1.8670   -0.5770 hn        1 V21      0.443800
     20 HN1A        2.3280   -0.9190   -1.9120 hn        1 V21      0.443800
     21 H13         0.1010    1.5510   -2.0170 ha        1 V21      0.159000
     22 H1          0.8760    3.4430   -3.4170 ha        1 V21      0.183000
     23 H7          3.7760    1.5740    0.3210 ha        1 V21      0.176000
     24 H18         8.2700    6.9020   -3.3160 h1        1 V21      0.098700
     25 H18A        7.4870    8.0310   -2.1390 h1        1 V21      0.098700
     26 H18B        7.4780    8.4170   -3.9060 h1        1 V21      0.098700
     27 H103        1.0400   -1.7830   -1.3680 hn        1 V21      0.443800
@<TRIPOS>BOND
     1    1    2 1   
     2    2    3 2   
     3    2    4 1   
     4    2    5 2   
     5    4   19 1   
     6    4   20 1   
     7    4   27 1   
     8    5    6 1   
     9    5    8 1   
    10    6    7 2   
    11    6   21 1   
    12    7   10 1   
    13    7   22 1   
    14    8    9 2   
    15    8   23 1   
    16    9   10 1   
    17    9   11 1   
    18   10   16 2   
    19   11   13 2   
    20   11   15 1   
    21   12   13 1   
    22   12   14 1   
    23   14   15 2   
    24   14   17 1   
    25   15   16 1   
    26   17   18 1   
    27   18   24 1   
    28   18   25 1   
    29   18   26 1   
@<TRIPOS>SUBSTRUCTURE
     1 V21         1 TEMP              0 ****  ****    0 ROOT
