@<TRIPOS>MOLECULE
V25
   35    36     1     0     0
SMALL
bcc


@<TRIPOS>ATOM
      1 CAA         8.8910   15.5150   16.5410 c3        1 V25     -0.102100
      2 CAL         8.0170   16.1910   17.5690 c3        1 V25      0.137400
      3 OAM         7.9670   15.2990   18.7010 os        1 V25     -0.448900
      4 CAN         7.2680   15.7450   19.7890 c         1 V25      0.672300
      5 OAE         6.8020   16.8870   19.7510 o         1 V25     -0.528000
      6 CAS         7.1940   14.7710   20.8850 cc        1 V25     -0.108300
      7 NAV         7.4790   15.1430   22.2160 na        1 V25     -0.036400
      8 CAB         7.8070   16.4620   22.6590 c3        1 V25      0.012600
      9 CAU         7.2680   14.0250   23.0250 ca        1 V25     -0.013200
     10 CAQ         7.4160   13.8330   24.4170 ca        1 V25     -0.003600
     11 CL1         7.9260   15.0950   25.4270 cl        1 V25     -0.070400
     12 CAP         7.1310   12.5710   24.9360 ca        1 V25      0.048400
     13 CL2         7.2810   12.2700   26.6010 cl        1 V25     -0.069400
     14 CAJ         6.7110   11.5050   24.1100 ca        1 V25     -0.152000
     15 CAK         6.5710   11.6760   22.7460 ca        1 V25     -0.051000
     16 CAT         6.8470   12.9260   22.1860 ca        1 V25     -0.097800
     17 CAR         6.8130   13.4220   20.8280 cd        1 V25      0.011800
     18 CAO         6.4140   12.6440   19.6770 cf        1 V25     -0.113700
     19 CAH         5.0580   12.2310   19.6210 ch        1 V25      0.217500
     20 NAC         3.9430   11.8990   19.5760 n1        1 V25     -0.391800
     21 CAI         7.2670   12.2570   18.6780 c2        1 V25      0.152000
     22 NAD         8.6150   12.4840   18.6520 nh        1 V25     -0.815600
     23 HAA1        8.9240   16.1480   15.6220 hc        1 V25      0.047700
     24 HAA2        9.9280   15.3830   16.9310 hc        1 V25      0.047700
     25 HAA3        8.4830   14.5100   16.2760 hc        1 V25      0.047700
     26 HAL1        8.4440   17.1730   17.9010 h1        1 V25      0.059700
     27 HAL2        6.9710   16.3500   17.1960 h1        1 V25      0.059700
     28 HAB1        8.8280   16.4600   23.1300 h1        1 V25      0.067033
     29 HAB2        7.8010   17.1740   21.7900 h1        1 V25      0.067033
     30 HAB3        7.0530   16.8120   23.4150 h1        1 V25      0.067033
     31 HAJ         6.4950   10.5270   24.5690 ha        1 V25      0.154000
     32 HAK         6.2440   10.8470   22.1000 ha        1 V25      0.154000
     33 HAI         6.8760   11.6470   17.8360 h4        1 V25      0.149000
     34 HAD1        9.0500   12.4690   17.7590 hn        1 V25      0.416300
     35 HAD2        8.9700   13.1740   19.2790 hn        1 V25      0.416300
@<TRIPOS>BOND
     1    1    2 1   
     2    1   23 1   
     3    1   24 1   
     4    1   25 1   
     5    2    3 1   
     6    2   26 1   
     7    2   27 1   
     8    3    4 1   
     9    4    5 2   
    10    4    6 1   
    11    6    7 1   
    12    6   17 2   
    13    7    8 1   
    14    7    9 1   
    15    8   28 1   
    16    8   29 1   
    17    8   30 1   
    18    9   10 ar  
    19    9   16 ar  
    20   10   11 1   
    21   10   12 ar  
    22   12   13 1   
    23   12   14 ar  
    24   14   15 ar  
    25   14   31 1   
    26   15   16 ar  
    27   15   32 1   
    28   16   17 1   
    29   17   18 1   
    30   18   19 1   
    31   18   21 2   
    32   19   20 3   
    33   21   22 1   
    34   21   33 1   
    35   22   34 1   
    36   22   35 1   
@<TRIPOS>SUBSTRUCTURE
     1 V25         1 TEMP              0 ****  ****    0 ROOT
