@<TRIPOS>MOLECULE
V25
   36    37     1     0     0
SMALL
bcc


@<TRIPOS>ATOM
      1 CAA         0.2400   -0.8330   -0.2620 c3        1 V25     -0.117100
      2 CAL         1.5740   -0.1750   -0.0150 c3        1 V25      0.136400
      3 OAM         2.0000   -0.6130    1.3000 os        1 V25     -0.513900
      4 CAN         3.1700   -0.0700    1.7670 c         1 V25      0.656300
      5 OAE         3.7730    0.7200    1.0460 o         1 V25     -0.462000
      6 CAS         3.5450   -0.5470    3.1090 cc        1 V25     -0.063300
      7 NAV         4.8450   -0.9640    3.4010 na        1 V25      0.005600
      8 CAB         5.9480   -0.9710    2.4830 c3        1 V25     -0.006400
      9 CAU         4.9060   -1.2710    4.7690 ca        1 V25     -0.028200
     10 CAQ         5.9670   -1.7520    5.5710 ca        1 V25      0.010400
     11 CL1         7.4870   -2.0740    4.9100 cl        1 V25     -0.029400
     12 CAP         5.7150   -1.9520    6.9280 ca        1 V25      0.045400
     13 CL2         6.9340   -2.5160    7.9550 cl        1 V25     -0.018400
     14 CAJ         4.4420   -1.6930    7.4920 ca        1 V25     -0.107000
     15 CAK         3.3950   -1.2400    6.7180 ca        1 V25     -0.089000
     16 CAT         3.6080   -1.0270    5.3490 ca        1 V25     -0.072800
     17 CAR         2.7520   -0.5840    4.2760 cd        1 V25     -0.180200
     18 CAO         1.3760   -0.1780    4.4520 cf        1 V25      0.237300
     19 CAH         1.1320    0.9620    5.2750 ch        1 V25      0.138500
     20 NAC         0.9530    1.8990    5.9410 n1        1 V25     -0.230800
     21 CAI         0.3150   -0.8390    3.9260 c2        1 V25     -0.133000
     22 NAD         0.4720   -2.0140    3.0910 n4        1 V25     -0.708400
     23 HAA1        0.3210   -1.9450   -0.1910 hc        1 V25      0.055033
     24 HAA2       -0.1010   -0.5680   -1.2940 hc        1 V25      0.055033
     25 HAA3       -0.5270   -0.4730    0.4650 hc        1 V25      0.055033
     26 HAL1        2.3500   -0.4980   -0.7570 h1        1 V25      0.081700
     27 HAL2        1.5020    0.9440   -0.0130 h1        1 V25      0.081700
     28 HAB1        6.7740   -0.3180    2.8820 h1        1 V25      0.085700
     29 HAB2        6.3290   -2.0210    2.3630 h1        1 V25      0.085700
     30 HAB3        5.6270   -0.5720    1.4840 h1        1 V25      0.085700
     31 HAJ         4.2980   -1.8570    8.5740 ha        1 V25      0.173000
     32 HAK         2.4110   -1.0350    7.1650 ha        1 V25      0.152000
     33 HAI        -0.7380   -0.5320    4.0770 hx        1 V25      0.211000
     34 HAD1        1.4550   -2.3290    3.0970 hn        1 V25      0.470133
     35 HAD2        0.2300   -1.7680    2.1150 hn        1 V25      0.470133
     36 HAD3       -0.1380   -2.7660    3.4270 hn        1 V25      0.470133
@<TRIPOS>BOND
     1    1    2 1   
     2    1   23 1   
     3    1   24 1   
     4    1   25 1   
     5    2    3 1   
     6    2   26 1   
     7    2   27 1   
     8    3    4 1   
     9    4    5 2   
    10    4    6 1   
    11    6    7 1   
    12    6   17 2   
    13    7    8 1   
    14    7    9 1   
    15    8   28 1   
    16    8   29 1   
    17    8   30 1   
    18    9   10 ar  
    19    9   16 ar  
    20   10   11 1   
    21   10   12 ar  
    22   12   13 1   
    23   12   14 ar  
    24   14   15 ar  
    25   14   31 1   
    26   15   16 ar  
    27   15   32 1   
    28   16   17 1   
    29   17   18 1   
    30   18   19 1   
    31   18   21 2   
    32   19   20 3   
    33   21   22 1   
    34   21   33 1   
    35   22   34 1   
    36   22   35 1   
    37   22   36 1   
@<TRIPOS>SUBSTRUCTURE
     1 V25         1 TEMP              0 ****  ****    0 ROOT
