@<TRIPOS>MOLECULE
V25
   36    37     1     0     0
SMALL
bcc


@<TRIPOS>ATOM
      1 CAA         0.2230   -0.8750   -0.2020 c3        1 V25     -0.117100
      2 CAL         1.5550   -0.2070    0.0250 c3        1 V25      0.136400
      3 OAM         1.9950   -0.6290    1.3400 os        1 V25     -0.513900
      4 CAN         3.1660   -0.0750    1.7910 c         1 V25      0.656300
      5 OAE         3.7580    0.7110    1.0570 o         1 V25     -0.462000
      6 CAS         3.5560   -0.5370    3.1340 cc        1 V25     -0.063300
      7 NAV         4.8610   -0.9430    3.4180 na        1 V25      0.005600
      8 CAB         5.9560   -0.9530    2.4900 c3        1 V25     -0.006400
      9 CAU         4.9370   -1.2360    4.7880 ca        1 V25     -0.028200
     10 CAQ         6.0090   -1.7030    5.5850 ca        1 V25      0.010400
     11 CL1         7.5240   -2.0240    4.9140 cl        1 V25     -0.029400
     12 CAP         5.7710   -1.8910    6.9470 ca        1 V25      0.045400
     13 CL2         7.0020   -2.4380    7.9680 cl        1 V25     -0.018400
     14 CAJ         4.5010   -1.6340    7.5200 ca        1 V25     -0.107000
     15 CAK         3.4450   -1.1940    6.7510 ca        1 V25     -0.089000
     16 CAT         3.6430   -0.9940    5.3790 ca        1 V25     -0.072800
     17 CAR         2.7740   -0.5660    4.3090 cd        1 V25     -0.180200
     18 CAO         1.3980   -0.1660    4.4940 cf        1 V25      0.237300
     19 CAH         1.1550    0.9800    5.3080 ch        1 V25      0.138500
     20 NAC         0.9780    1.9230    5.9650 n1        1 V25     -0.230800
     21 CAI         0.3360   -0.8390    3.9850 c2        1 V25     -0.133000
     22 NAD         0.4920   -2.0210    3.1600 n4        1 V25     -0.708400
     23 HAA1       -0.5400   -0.5120    0.5280 hc        1 V25      0.055033
     24 HAA2       -0.1300   -0.6230   -1.2340 hc        1 V25      0.055033
     25 HAA3        0.3100   -1.9860   -0.1210 hc        1 V25      0.055033
     26 HAL1        2.3260   -0.5330   -0.7210 h1        1 V25      0.081700
     27 HAL2        1.4760    0.9120    0.0160 h1        1 V25      0.081700
     28 HAB1        6.3420   -2.0030    2.3770 h1        1 V25      0.085700
     29 HAB2        6.7810   -0.2920    2.8750 h1        1 V25      0.085700
     30 HAB3        5.6230   -0.5660    1.4900 h1        1 V25      0.085700
     31 HAJ         4.3680   -1.7880    8.6050 ha        1 V25      0.173000
     32 HAK         2.4640   -0.9900    7.2050 ha        1 V25      0.152000
     33 HAI        -0.7170   -0.5360    4.1430 hx        1 V25      0.211000
     34 HAD1        1.4770   -2.3300    3.1600 hn        1 V25      0.470133
     35 HAD2        0.2400   -1.7860    2.1840 hn        1 V25      0.470133
     36 HAD3       -0.1100   -2.7730    3.5090 hn        1 V25      0.470133
@<TRIPOS>BOND
     1    1    2 1   
     2    1   23 1   
     3    1   24 1   
     4    1   25 1   
     5    2    3 1   
     6    2   26 1   
     7    2   27 1   
     8    3    4 1   
     9    4    5 2   
    10    4    6 1   
    11    6    7 1   
    12    6   17 2   
    13    7    8 1   
    14    7    9 1   
    15    8   28 1   
    16    8   29 1   
    17    8   30 1   
    18    9   10 ar  
    19    9   16 ar  
    20   10   11 1   
    21   10   12 ar  
    22   12   13 1   
    23   12   14 ar  
    24   14   15 ar  
    25   14   31 1   
    26   15   16 ar  
    27   15   32 1   
    28   16   17 1   
    29   17   18 1   
    30   18   19 1   
    31   18   21 2   
    32   19   20 3   
    33   21   22 1   
    34   21   33 1   
    35   22   34 1   
    36   22   35 1   
    37   22   36 1   
@<TRIPOS>SUBSTRUCTURE
     1 V25         1 TEMP              0 ****  ****    0 ROOT
