@<TRIPOS>MOLECULE
V25
   36    37     1     0     0
SMALL
bcc


@<TRIPOS>ATOM
      1 CAA         0.2300   -0.8520   -0.2070 c3        1 V25     -0.117100
      2 CAL         1.5630   -0.1880    0.0260 c3        1 V25      0.136400
      3 OAM         2.0000   -0.6170    1.3400 os        1 V25     -0.513900
      4 CAN         3.1710   -0.0680    1.7950 c         1 V25      0.656300
      5 OAE         3.7670    0.7190    1.0660 o         1 V25     -0.462000
      6 CAS         3.5580   -0.5370    3.1370 cc        1 V25     -0.063300
      7 NAV         4.8610   -0.9480    3.4220 na        1 V25      0.005600
      8 CAB         5.9580   -0.9570    2.4960 c3        1 V25     -0.006400
      9 CAU         4.9330   -1.2480    4.7910 ca        1 V25     -0.028200
     10 CAQ         6.0030   -1.7210    5.5880 ca        1 V25      0.010400
     11 Cl1         7.5180   -2.0430    4.9170 cl        1 V25     -0.029400
     12 CAP         5.7620   -1.9150    6.9470 ca        1 V25      0.045400
     13 Cl2         6.9890   -2.4690    7.9680 cl        1 V25     -0.018400
     14 CAJ         4.4920   -1.6560    7.5200 ca        1 V25     -0.107000
     15 CAK         3.4380   -1.2100    6.7500 ca        1 V25     -0.089000
     16 CAT         3.6390   -1.0050    5.3800 ca        1 V25     -0.072800
     17 CAR         2.7740   -0.5690    4.3100 cd        1 V25     -0.180200
     18 CAO         1.3980   -0.1660    4.4950 cf        1 V25      0.237300
     19 CAH         1.1570    0.9770    5.3130 ch        1 V25      0.138500
     20 NAC         0.9810    1.9170    5.9750 n1        1 V25     -0.230800
     21 CAI         0.3360   -0.8340    3.9810 c2        1 V25     -0.133000
     22 NAD         0.4890   -2.0130    3.1510 nz        1 V25     -0.708400
     23 HAA1       -0.5340   -0.4900    0.5240 hc        1 V25      0.055033
     24 HAA2       -0.1210   -0.5940   -1.2380 hc        1 V25      0.055033
     25 HAA3        0.3140   -1.9630   -0.1310 hc        1 V25      0.055033
     26 HAL1        2.3350   -0.5130   -0.7200 h1        1 V25      0.081700
     27 HAL2        1.4880    0.9310    0.0220 h1        1 V25      0.081700
     28 HAB1        6.3400   -2.0080    2.3780 h1        1 V25      0.085700
     29 HAB2        6.7840   -0.3000    2.8850 h1        1 V25      0.085700
     30 HAB3        5.6280   -0.5650    1.4960 h1        1 V25      0.085700
     31 HAJ         4.3570   -1.8150    8.6040 ha        1 V25      0.173000
     32 HAK         2.4570   -1.0060    7.2040 ha        1 V25      0.152000
     33 HAI        -0.7170   -0.5290    4.1380 hx        1 V25      0.211000
     34 HAD1        1.4730   -2.3250    3.1510 hn        1 V25      0.470133
     35 HAD2        0.2390   -1.7730    2.1750 hn        1 V25      0.470133
     36 HAD3       -0.1160   -2.7650    3.4950 hn        1 V25      0.470133
@<TRIPOS>BOND
     1    1    2 1   
     2    1   23 1   
     3    1   24 1   
     4    1   25 1   
     5    2    3 1   
     6    2   26 1   
     7    2   27 1   
     8    3    4 1   
     9    4    5 2   
    10    4    6 1   
    11    6    7 1   
    12    6   17 2   
    13    7    8 1   
    14    7    9 1   
    15    8   28 1   
    16    8   29 1   
    17    8   30 1   
    18    9   10 ar  
    19    9   16 ar  
    20   10   11 1   
    21   10   12 ar  
    22   12   13 1   
    23   12   14 ar  
    24   14   15 ar  
    25   14   31 1   
    26   15   16 ar  
    27   15   32 1   
    28   16   17 1   
    29   17   18 1   
    30   18   19 1   
    31   18   21 2   
    32   19   20 3   
    33   21   22 1   
    34   21   33 1   
    35   22   34 1   
    36   22   35 1   
    37   22   36 1   
@<TRIPOS>SUBSTRUCTURE
     1 V25         1 TEMP              0 ****  ****    0 ROOT
