@<TRIPOS>MOLECULE
V2H
   74    72     1     0     0
SMALL
bcc


@<TRIPOS>ATOM
      1 O30        -2.9690    5.5110    2.1930 oh        1 V2H     -0.316000
      2 CAN        -4.0110    4.6450    1.8520 c3        1 V2H      0.071000
      3 CAO        -5.2740    5.4890    1.0590 c3        1 V2H     -0.225000
      4 CAZ        -5.0360    5.8230   -0.1050 c3        1 V2H      0.035000
      5 OAG        -6.2520    6.5030   -0.6550 oh        1 V2H     -0.327000
      6 CAT        -3.5170    3.5210    1.0540 c2        1 V2H     -0.065000
      7 CAA        -3.0330    2.3870    1.6430 c1        1 V2H     -0.193000
      8 CAU        -3.5740    3.6890   -0.6440 c2        1 V2H     -0.068000
      9 CAS        -4.6120    4.5150   -1.1820 c3        1 V2H     -0.119000
     10 CAH        -2.6450    3.0460   -1.4780 c1        1 V2H     -0.110000
     11 CAI        -1.5520    2.1730   -0.8720 c1        1 V2H     -0.156000
     12 CAV        -0.8890    1.2150   -1.6690 c1        1 V2H     -0.075000
     13 CAM        -1.2770    1.0470   -3.1630 c3        1 V2H     -0.125000
     14 CAL        -0.8830   -0.3670   -3.6070 c3        1 V2H     -0.153000
     15 CAR         0.5210   -0.6850   -3.3170 c3        1 V2H     -0.149000
     16 CBC         0.9340   -0.4130   -1.7950 c3        1 V2H     -0.033000
     17 CBA         0.6060    0.8200   -1.3410 c2        1 V2H     -0.070000
     18 CAF         2.4670   -0.5170   -1.7340 c3        1 V2H     -0.204000
     19 CBB         0.3490   -1.4580   -0.6950 c3        1 V2H     -0.094000
     20 CAQ        -0.0010   -0.6050    0.5190 c3        1 V2H     -0.157000
     21 CAP         0.5890    0.6900    0.2400 c3        1 V2H     -0.153000
     22 CAY         1.3530   -2.4380   -0.3420 c3        1 V2H     -0.074000
     23 CAE         1.5880   -3.3880   -1.5260 c3        1 V2H     -0.205000
     24 CAK         0.8670   -3.2550    0.8860 c2        1 V2H     -0.161000
     25 CAJ         1.7880   -3.7860    1.7730 c1        1 V2H     -0.164000
     26 CAX         3.2900   -3.5670    1.5430 c2        1 V2H     -0.074000
     27 CAD         3.7700   -2.4480    2.4120 c3        1 V2H     -0.203000
     28 CAW         4.0470   -4.8360    1.8870 c3        1 V2H     -0.102000
     29 CAB         5.5480   -4.6440    1.5650 c3        1 V2H     -0.207500
     30 CAC         3.8810   -5.1380    3.3580 c3        1 V2H     -0.207500
     31 HO30       -3.1120    5.8380    2.9780 ho        1 V2H      0.195000
     32 HAN        -4.2990    4.3410    2.7380 h1        1 V2H      0.074000
     33 HAO        -5.4730    6.2990    1.5760 hc        1 V2H      0.092000
     34 HAOA       -6.0660    4.9230    1.0590 hc        1 V2H      0.092000
     35 HAZ        -4.2930    6.4700   -0.0970 h1        1 V2H      0.088000
     36 HOAG       -6.1560    7.3870   -0.5850 ho        1 V2H      0.197000
     37 HAA        -2.7100    1.6530    1.0910 DU        1 V2H      0.125000
     38 HAAA       -3.0110    2.3110    2.6360 ha        1 V2H      0.115000
     39 HAS        -4.3910    4.9050   -2.0450 hc        1 V2H      0.101500
     40 HASA       -5.3770    3.9590   -1.4190 hc        1 V2H      0.101500
     41 HAH        -2.6990    3.1580   -2.4400 ha        1 V2H      0.124000
     42 HAI        -1.3560    2.2320    0.0870 ha        1 V2H      0.134000
     43 HAM        -2.1920    1.3940   -3.2980 hc        1 V2H      0.088500
     44 HAMA       -0.7730    1.6480   -3.7490 hc        1 V2H      0.088500
     45 HAL        -1.4560   -1.0140   -3.1440 hc        1 V2H      0.080500
     46 HALA       -1.0340   -0.4490   -4.5880 hc        1 V2H      0.080500
     47 HAR         1.0940   -0.1400   -3.9000 hc        1 V2H      0.082500
     48 HARA        0.6760   -1.6310   -3.5180 hc        1 V2H      0.082500
     49 HBA         1.2340    1.4980   -1.6390 ha        1 V2H      0.094000
     50 HAF         2.8640    0.2660   -2.1580 hc        1 V2H      0.076000
     51 HAFA        2.7580   -0.5640   -0.7900 hc        1 V2H      0.076000
     52 HAFB        2.7580   -1.3300   -2.2090 hc        1 V2H      0.076000
     53 HBB        -0.4500   -1.8990   -1.0400 hc        1 V2H      0.087000
     54 HAQ        -0.9740   -0.5240    0.6120 hc        1 V2H      0.085000
     55 HAQA        0.3870   -0.9870    1.3230 hc        1 V2H      0.085000
     56 HAP         1.5090    0.7280    0.5950 hc        1 V2H      0.083500
     57 HAPA        0.0470    1.3990    0.6330 hc        1 V2H      0.083500
     58 HAY         2.1910   -1.9810   -0.1190 hc        1 V2H      0.098000
     59 HAE         1.5750   -4.3330   -1.2010 hc        1 V2H      0.074667
     60 HAEA        0.8910   -3.2630   -2.1850 hc        1 V2H      0.074667
     61 HAEB        2.4600   -3.1940   -1.9310 hc        1 V2H      0.074667
     62 HAK        -0.0850   -3.3940    1.0310 ha        1 V2H      0.118000
     63 HAJ         1.4840   -4.2970    2.5430 ha        1 V2H      0.119000
     64 HAX         3.4440   -3.3410    0.6090 ha        1 V2H      0.091000
     65 HAD         3.0170   -2.0610    2.8870 hc        1 V2H      0.075000
     66 HADA        4.4230   -2.7930    3.0600 hc        1 V2H      0.075000
     67 HADB        4.1940   -1.7590    1.8540 hc        1 V2H      0.075000
     68 HAW         3.6940   -5.5740    1.3630 hc        1 V2H      0.087000
     69 HAB         6.0680   -5.3720    1.9770 hc        1 V2H      0.072667
     70 HABA        5.6780   -4.6590    0.5900 hc        1 V2H      0.072667
     71 HABB        5.8530   -3.7790    1.9230 hc        1 V2H      0.072667
     72 HAC         4.5630   -5.7780    3.6370 hc        1 V2H      0.072667
     73 HACA        2.9920   -5.5180    3.5150 hc        1 V2H      0.072667
     74 HACB        3.9790   -4.3060    3.8780 hc        1 V2H      0.072667
@<TRIPOS>BOND
     1    1    2 1   
     2    1   31 1   
     3    2    3 1   
     4    2    6 1   
     5    2   32 1   
     6    3    4 1   
     7    3   33 1   
     8    3   34 1   
     9    4    5 1   
    10    4    9 1   
    11    4   35 1   
    12    5   36 1   
    13    6    7 1   
    14    6    8 1   
    15    7   38 1   
    16    8    9 1   
    17    8   10 1   
    18    9   39 1   
    19    9   40 1   
    20   10   41 1   
    21   11   12 1   
    22   11   42 1   
    23   12   13 1   
    24   13   14 1   
    25   13   43 1   
    26   13   44 1   
    27   14   15 1   
    28   14   45 1   
    29   14   46 1   
    30   15   16 1   
    31   15   47 1   
    32   15   48 1   
    33   16   17 1   
    34   16   18 1   
    35   16   19 1   
    36   17   21 1   
    37   17   49 1   
    38   18   50 1   
    39   18   51 1   
    40   18   52 1   
    41   19   20 1   
    42   19   22 1   
    43   19   53 1   
    44   20   21 1   
    45   20   54 1   
    46   20   55 1   
    47   21   56 1   
    48   21   57 1   
    49   22   23 1   
    50   22   24 1   
    51   22   58 1   
    52   23   59 1   
    53   23   60 1   
    54   23   61 1   
    55   24   25 1   
    56   24   62 1   
    57   25   63 1   
    58   26   27 1   
    59   26   28 1   
    60   26   64 1   
    61   27   65 1   
    62   27   66 1   
    63   27   67 1   
    64   28   29 1   
    65   28   30 1   
    66   28   68 1   
    67   29   69 1   
    68   29   70 1   
    69   29   71 1   
    70   30   72 1   
    71   30   73 1   
    72   30   74 1   
@<TRIPOS>SUBSTRUCTURE
     1 V2H         1 TEMP              0 ****  ****    0 ROOT
