@<TRIPOS>MOLECULE
V2H
   74    76     1     0     0
SMALL
bcc


@<TRIPOS>ATOM
      1 O30         0.9790    0.7720   -0.6710 oh        1 V2H     -0.588800
      2 CAN         2.1750    0.1810   -0.1700 c3        1 V2H      0.186300
      3 CAO         2.2560    0.2830    1.3500 c3        1 V2H     -0.146400
      4 CAZ         1.2070   -0.6020    2.0120 c3        1 V2H      0.146100
      5 OAG         1.3350   -0.5700    3.4280 oh        1 V2H     -0.599800
      6 CAT         2.1940   -1.2550   -0.6330 ce        1 V2H     -0.070200
      7 CAA         2.9680   -1.6200   -1.6620 c2        1 V2H     -0.192000
      8 CAU         1.3570   -2.1960    0.1100 ce        1 V2H     -0.073200
      9 CAS         1.3890   -2.0590    1.5960 c3        1 V2H     -0.036200
     10 CAH         0.6030   -3.1560   -0.4650 cf        1 V2H     -0.109000
     11 CAI         0.4680   -3.3600   -1.8890 cf        1 V2H     -0.149000
     12 CAV         0.1030   -4.5080   -2.4860 c2        1 V2H     -0.082400
     13 CAM        -0.1280   -5.8050   -1.7790 c3        1 V2H     -0.044200
     14 CAL        -1.3800   -6.5370   -2.2350 c3        1 V2H     -0.073400
     15 CAR        -1.5630   -6.5800   -3.7420 c3        1 V2H     -0.066400
     16 CBC        -1.4420   -5.1860   -4.3380 c3        1 V2H     -0.041000
     17 CBA        -0.0300   -4.6550   -3.9590 c3        1 V2H     -0.035500
     18 CAF        -2.5350   -4.2790   -3.8010 c3        1 V2H     -0.083100
     19 CBB        -1.3810   -5.1250   -5.8810 c3        1 V2H     -0.051700
     20 CAQ        -0.5370   -3.8710   -6.1820 c3        1 V2H     -0.080400
     21 CAP         0.1800   -3.4710   -4.8910 c3        1 V2H     -0.074400
     22 CAY        -2.7170   -5.0780   -6.6180 c3        1 V2H     -0.029500
     23 CAE        -3.5120   -6.3600   -6.4420 c3        1 V2H     -0.088100
     24 CAK        -2.4720   -4.8590   -8.0750 c2        1 V2H     -0.159200
     25 CAJ        -3.0610   -3.9740   -8.8830 c2        1 V2H     -0.165200
     26 CAX        -4.0910   -2.9410   -8.5750 c3        1 V2H     -0.025500
     27 CAD        -3.5540   -1.8910   -7.6210 c3        1 V2H     -0.087100
     28 CAW        -5.4010   -3.5600   -8.0750 c3        1 V2H     -0.063700
     29 CAB        -6.4220   -2.4900   -7.7470 c3        1 V2H     -0.091100
     30 CAC        -5.9640   -4.5110   -9.1120 c3        1 V2H     -0.091100
     31 HO30        0.9460    1.6680   -0.3160 ho        1 V2H      0.396000
     32 HAN         3.0550    0.7340   -0.6150 h1        1 V2H      0.034700
     33 HAO         2.1050    1.3480    1.6640 hc        1 V2H      0.052700
     34 HAOA        3.2760   -0.0330    1.6880 hc        1 V2H      0.052700
     35 HAZ         0.1790   -0.2450    1.7170 h1        1 V2H      0.048700
     36 HOAG        1.2050    0.3470    3.6970 ho        1 V2H      0.398000
     37 HAA         3.5890   -0.9030   -2.2140 ha        1 V2H      0.120000
     38 HAAA        3.0270   -2.6610   -2.0080 ha        1 V2H      0.120000
     39 HAS         0.5860   -2.6750    2.0780 hc        1 V2H      0.062200
     40 HASA        2.3750   -2.4300    1.9850 hc        1 V2H      0.062200
     41 HAH         0.0090   -3.8250    0.1840 ha        1 V2H      0.124000
     42 HAI         0.6770   -2.4690   -2.5110 ha        1 V2H      0.137000
     43 HAM         0.7680   -6.4580   -1.9700 hc        1 V2H      0.046700
     44 HAMA       -0.1910   -5.6520   -0.6700 hc        1 V2H      0.046700
     45 HAL        -2.2780   -6.0480   -1.7730 hc        1 V2H      0.040200
     46 HALA       -1.3390   -7.5880   -1.8450 hc        1 V2H      0.040200
     47 HAR        -0.7880   -7.2500   -4.1990 hc        1 V2H      0.041200
     48 HARA       -2.5660   -7.0190   -3.9790 hc        1 V2H      0.041200
     49 HBA         0.7190   -5.4480   -4.2630 hc        1 V2H      0.052700
     50 HAF        -3.5360   -4.7540   -3.9430 hc        1 V2H      0.038033
     51 HAFA       -2.3850   -4.0830   -2.7120 hc        1 V2H      0.038033
     52 HAFB       -2.5240   -3.2970   -4.3350 hc        1 V2H      0.038033
     53 HBB        -0.8220   -6.0340   -6.2370 hc        1 V2H      0.045700
     54 HAQ        -1.1920   -3.0350   -6.5380 hc        1 V2H      0.045200
     55 HAQA        0.1980   -4.0940   -6.9940 hc        1 V2H      0.045200
     56 HAP        -0.2700   -2.5390   -4.4670 hc        1 V2H      0.045700
     57 HAPA        1.2660   -3.2790   -5.0670 hc        1 V2H      0.045700
     58 HAY        -3.3250   -4.2240   -6.2040 hc        1 V2H      0.061700
     59 HAE        -4.3620   -6.3850   -7.1670 hc        1 V2H      0.036033
     60 HAEA       -2.8680   -7.2540   -6.6180 hc        1 V2H      0.036033
     61 HAEB       -3.9300   -6.4180   -5.4090 hc        1 V2H      0.036033
     62 HAK        -1.7140   -5.5430   -8.4980 ha        1 V2H      0.115000
     63 HAJ        -2.7570   -3.9720   -9.9470 ha        1 V2H      0.112000
     64 HAX        -4.3330   -2.4130   -9.5450 hc        1 V2H      0.044700
     65 HAD        -4.1890   -0.9730   -7.6640 hc        1 V2H      0.036033
     66 HADA       -3.5450   -2.2600   -6.5670 hc        1 V2H      0.036033
     67 HADB       -2.5100   -1.6110   -7.9060 hc        1 V2H      0.036033
     68 HAW        -5.1840   -4.1470   -7.1380 hc        1 V2H      0.051700
     69 HAB        -6.5660   -1.8020   -8.6140 hc        1 V2H      0.033700
     70 HABA       -6.0910   -1.8870   -6.8670 hc        1 V2H      0.033700
     71 HABB       -7.4050   -2.9600   -7.5010 hc        1 V2H      0.033700
     72 HAC        -6.8910   -4.9990   -8.7260 hc        1 V2H      0.033700
     73 HACA       -5.2170   -5.3060   -9.3540 hc        1 V2H      0.033700
     74 HACB       -6.2180   -3.9640  -10.0520 hc        1 V2H      0.033700
@<TRIPOS>BOND
     1    1    2 1   
     2    1   31 1   
     3    2    3 1   
     4    2    6 1   
     5    2   32 1   
     6    3    4 1   
     7    3   33 1   
     8    3   34 1   
     9    4    5 1   
    10    4    9 1   
    11    4   35 1   
    12    5   36 1   
    13    6    7 2   
    14    6    8 1   
    15    7   37 1   
    16    7   38 1   
    17    8    9 1   
    18    8   10 2   
    19    9   39 1   
    20    9   40 1   
    21   10   11 1   
    22   10   41 1   
    23   11   12 2   
    24   11   42 1   
    25   12   13 1   
    26   12   17 1   
    27   13   14 1   
    28   13   43 1   
    29   13   44 1   
    30   14   15 1   
    31   14   45 1   
    32   14   46 1   
    33   15   16 1   
    34   15   47 1   
    35   15   48 1   
    36   16   17 1   
    37   16   18 1   
    38   16   19 1   
    39   17   21 1   
    40   17   49 1   
    41   18   50 1   
    42   18   51 1   
    43   18   52 1   
    44   19   20 1   
    45   19   22 1   
    46   19   53 1   
    47   20   21 1   
    48   20   54 1   
    49   20   55 1   
    50   21   56 1   
    51   21   57 1   
    52   22   23 1   
    53   22   24 1   
    54   22   58 1   
    55   23   59 1   
    56   23   60 1   
    57   23   61 1   
    58   24   25 2   
    59   24   62 1   
    60   25   26 1   
    61   25   63 1   
    62   26   27 1   
    63   26   28 1   
    64   26   64 1   
    65   27   65 1   
    66   27   66 1   
    67   27   67 1   
    68   28   29 1   
    69   28   30 1   
    70   28   68 1   
    71   29   69 1   
    72   29   70 1   
    73   29   71 1   
    74   30   72 1   
    75   30   73 1   
    76   30   74 1   
@<TRIPOS>SUBSTRUCTURE
     1 V2H         1 TEMP              0 ****  ****    0 ROOT
