@<TRIPOS>MOLECULE
V2H
   74    76     1     0     0
SMALL
bcc


@<TRIPOS>ATOM
      1 O30        -4.8500    3.0740   -0.3970 oh        1 V2H     -0.596800
      2 CAN        -5.4930    2.4420    0.7060 c3        1 V2H      0.183300
      3 CAO        -6.9110    2.1060    0.2590 c3        1 V2H     -0.069400
      4 CAZ        -6.9020    0.9650   -0.7490 c3        1 V2H      0.145100
      5 OAG        -8.2630    0.6890   -1.0600 oh        1 V2H     -0.600800
      6 CAT        -4.7440    1.2160    1.1700 ce        1 V2H     -0.121200
      7 CAA        -4.0510    1.2340    2.3150 c2        1 V2H     -0.193000
      8 CAU        -4.8530    0.0290    0.3240 ce        1 V2H     -0.068200
      9 CAS        -6.2270   -0.2780   -0.1690 c3        1 V2H     -0.075200
     10 CAH        -3.8170   -0.7720   -0.0000 cf        1 V2H     -0.116000
     11 CAI        -2.4450   -0.5550    0.3960 cf        1 V2H     -0.152000
     12 CAV        -1.4790   -1.4890    0.4290 c2        1 V2H     -0.076400
     13 CAM        -1.6810   -2.9430    0.1500 c3        1 V2H     -0.044200
     14 CAL        -0.6120   -3.5510   -0.7450 c3        1 V2H     -0.073400
     15 CAR         0.8070   -3.1540   -0.3800 c3        1 V2H     -0.067400
     16 CBC         0.9280   -1.6430   -0.2540 c3        1 V2H     -0.040000
     17 CBA        -0.0810   -1.2000    0.8440 c3        1 V2H     -0.037500
     18 CAF         0.6280   -0.9710   -1.5830 c3        1 V2H     -0.083100
     19 CBB         2.2600   -1.1290    0.3360 c3        1 V2H     -0.051700
     20 CAQ         1.8840    0.1840    1.0490 c3        1 V2H     -0.078400
     21 CAP         0.3620    0.2120    1.2010 c3        1 V2H     -0.073400
     22 CAY         3.4080   -0.9160   -0.6450 c3        1 V2H     -0.026500
     23 CAE         3.8760   -2.2190   -1.2690 c3        1 V2H     -0.087100
     24 CAK         4.5600   -0.2780    0.0630 c2        1 V2H     -0.168200
     25 CAJ         5.2180    0.7840   -0.4080 c2        1 V2H     -0.166200
     26 CAX         6.3790    1.4140    0.2850 c3        1 V2H     -0.031500
     27 CAD         5.9870    2.8020    0.7590 c3        1 V2H     -0.087100
     28 CAW         7.5910    1.4670   -0.6530 c3        1 V2H     -0.060700
     29 CAB         8.7690    2.1510    0.0080 c3        1 V2H     -0.090600
     30 CAC         7.9850    0.0710   -1.0930 c3        1 V2H     -0.090600
     31 HO30       -3.9020    3.0610   -0.2200 ho        1 V2H      0.404000
     32 HAN        -5.5440    3.1920    1.5500 h1        1 V2H      0.038700
     33 HAO        -7.5220    1.8190    1.1520 hc        1 V2H      0.067200
     34 HAOA       -7.3770    3.0090   -0.2130 hc        1 V2H      0.067200
     35 HAZ        -6.3590    1.2930   -1.6800 h1        1 V2H      0.053700
     36 HOAG       -8.2570   -0.0010   -1.7330 ho        1 V2H      0.399000
     37 HAA        -3.9880    2.1280    2.9500 ha        1 V2H      0.121000
     38 HAAA       -3.5140    0.3510    2.6890 ha        1 V2H      0.121000
     39 HAS        -6.8470   -0.6620    0.6860 hc        1 V2H      0.053700
     40 HASA       -6.2010   -1.0810   -0.9510 hc        1 V2H      0.053700
     41 HAH        -4.0070   -1.6510   -0.6440 ha        1 V2H      0.124000
     42 HAI        -2.1990    0.4840    0.6850 ha        1 V2H      0.128000
     43 HAM        -1.6790   -3.4800    1.1390 hc        1 V2H      0.047700
     44 HAMA       -2.6820   -3.1270   -0.3200 hc        1 V2H      0.047700
     45 HAL        -0.7010   -4.6690   -0.6940 hc        1 V2H      0.041200
     46 HALA       -0.8130   -3.2520   -1.8080 hc        1 V2H      0.041200
     47 HAR         1.0970   -3.6340    0.5920 hc        1 V2H      0.042700
     48 HARA        1.5100   -3.5350   -1.1650 hc        1 V2H      0.042700
     49 HBA         0.1140   -1.8430    1.7560 hc        1 V2H      0.054700
     50 HAF        -0.4450   -1.1110   -1.8610 hc        1 V2H      0.038033
     51 HAFA        0.8290    0.1270   -1.5170 hc        1 V2H      0.038033
     52 HAFB        1.2650   -1.4060   -2.3900 hc        1 V2H      0.038033
     53 HBB         2.6000   -1.8750    1.1070 hc        1 V2H      0.046700
     54 HAQ         2.3850    0.2310    2.0470 hc        1 V2H      0.045200
     55 HAQA        2.2310    1.0660    0.4550 hc        1 V2H      0.045200
     56 HAP        -0.0860    0.9630    0.5040 hc        1 V2H      0.043700
     57 HAPA        0.0570    0.4830    2.2410 hc        1 V2H      0.043700
     58 HAY         3.0590   -0.2320   -1.4720 hc        1 V2H      0.054700
     59 HAE         4.0030   -3.0090   -0.4900 hc        1 V2H      0.036033
     60 HAEA        3.1350   -2.5760   -2.0240 hc        1 V2H      0.036033
     61 HAEB        4.8560   -2.0670   -1.7830 hc        1 V2H      0.036033
     62 HAK         4.8500   -0.7620    1.0100 ha        1 V2H      0.121000
     63 HAJ         4.9260    1.2680   -1.3550 ha        1 V2H      0.121000
     64 HAX         6.6630    0.7970    1.1850 hc        1 V2H      0.050700
     65 HAD         6.7710    3.2160    1.4380 hc        1 V2H      0.035367
     66 HADA        5.8640    3.4940   -0.1080 hc        1 V2H      0.035367
     67 HADB        5.0220    2.7590    1.3190 hc        1 V2H      0.035367
     68 HAW         7.2990    2.0600   -1.5660 hc        1 V2H      0.045700
     69 HAB         8.9890    1.6880    1.0000 hc        1 V2H      0.034200
     70 HABA        9.6780    2.0570   -0.6350 hc        1 V2H      0.034200
     71 HABB        8.5590    3.2370    0.1620 hc        1 V2H      0.034200
     72 HAC         7.1160   -0.4490   -1.5640 hc        1 V2H      0.034200
     73 HACA        8.8170    0.1220   -1.8370 hc        1 V2H      0.034200
     74 HACB        8.3280   -0.5330   -0.2190 hc        1 V2H      0.034200
@<TRIPOS>BOND
     1    1    2 1   
     2    1   31 1   
     3    2    3 1   
     4    2    6 1   
     5    2   32 1   
     6    3    4 1   
     7    3   33 1   
     8    3   34 1   
     9    4    5 1   
    10    4    9 1   
    11    4   35 1   
    12    5   36 1   
    13    6    7 2   
    14    6    8 1   
    15    7   37 1   
    16    7   38 1   
    17    8    9 1   
    18    8   10 2   
    19    9   39 1   
    20    9   40 1   
    21   10   11 1   
    22   10   41 1   
    23   11   12 2   
    24   11   42 1   
    25   12   13 1   
    26   12   17 1   
    27   13   14 1   
    28   13   43 1   
    29   13   44 1   
    30   14   15 1   
    31   14   45 1   
    32   14   46 1   
    33   15   16 1   
    34   15   47 1   
    35   15   48 1   
    36   16   17 1   
    37   16   18 1   
    38   16   19 1   
    39   17   21 1   
    40   17   49 1   
    41   18   50 1   
    42   18   51 1   
    43   18   52 1   
    44   19   20 1   
    45   19   22 1   
    46   19   53 1   
    47   20   21 1   
    48   20   54 1   
    49   20   55 1   
    50   21   56 1   
    51   21   57 1   
    52   22   23 1   
    53   22   24 1   
    54   22   58 1   
    55   23   59 1   
    56   23   60 1   
    57   23   61 1   
    58   24   25 2   
    59   24   62 1   
    60   25   26 1   
    61   25   63 1   
    62   26   27 1   
    63   26   28 1   
    64   26   64 1   
    65   27   65 1   
    66   27   66 1   
    67   27   67 1   
    68   28   29 1   
    69   28   30 1   
    70   28   68 1   
    71   29   69 1   
    72   29   70 1   
    73   29   71 1   
    74   30   72 1   
    75   30   73 1   
    76   30   74 1   
@<TRIPOS>SUBSTRUCTURE
     1 V2H         1 TEMP              0 ****  ****    0 ROOT
