@<TRIPOS>MOLECULE
V2H
   74    76     1     0     0
SMALL
bcc


@<TRIPOS>ATOM
      1 O30         1.0150    0.5350    0.1520 oh        1 V2H     -0.588800
      2 CAN         2.3510    0.0540    0.2780 c3        1 V2H      0.186300
      3 CAO         2.7690   -0.0600    1.7410 c3        1 V2H     -0.146400
      4 CAZ         2.0020   -1.1740    2.4420 c3        1 V2H      0.146100
      5 OAG         2.4500   -1.3350    3.7820 oh        1 V2H     -0.599800
      6 CAT         2.4150   -1.2790   -0.4240 ce        1 V2H     -0.070200
      7 CAA         2.9640   -1.3720   -1.6410 c2        1 V2H     -0.192000
      8 CAU         1.8780   -2.4310    0.2990 ce        1 V2H     -0.073200
      9 CAS         2.2370   -2.5130    1.7460 c3        1 V2H     -0.036200
     10 CAH         1.1180   -3.3920   -0.2650 cf        1 V2H     -0.109000
     11 CAI         0.6800   -3.4000   -1.6410 cf        1 V2H     -0.149000
     12 CAV         0.3130   -4.4870   -2.3420 c2        1 V2H     -0.082400
     13 CAM         0.3920   -5.8940   -1.8430 c3        1 V2H     -0.044200
     14 CAL        -0.8450   -6.7230   -2.1480 c3        1 V2H     -0.073400
     15 CAR        -1.3680   -6.5670   -3.5660 c3        1 V2H     -0.066400
     16 CBC        -1.5370   -5.0960   -3.9180 c3        1 V2H     -0.041000
     17 CBA        -0.1410   -4.4310   -3.7560 c3        1 V2H     -0.035500
     18 CAF        -2.5670   -4.4460   -3.0110 c3        1 V2H     -0.083100
     19 CBB        -1.8420   -4.7990   -5.4020 c3        1 V2H     -0.051700
     20 CAQ        -1.2290   -3.4060   -5.6490 c3        1 V2H     -0.077400
     21 CAP        -0.2800   -3.1040   -4.4880 c3        1 V2H     -0.074400
     22 CAY        -3.3080   -4.8400   -5.8240 c3        1 V2H     -0.027500
     23 CAE        -3.8980   -6.2340   -5.7020 c3        1 V2H     -0.087100
     24 CAK        -3.4340   -4.3840   -7.2420 c2        1 V2H     -0.167200
     25 CAJ        -4.3260   -3.4760   -7.6460 c2        1 V2H     -0.167200
     26 CAX        -4.4680   -3.0290   -9.0630 c3        1 V2H     -0.031500
     27 CAD        -4.0490   -1.5750   -9.1750 c3        1 V2H     -0.087100
     28 CAW        -5.9120   -3.2310   -9.5400 c3        1 V2H     -0.060700
     29 CAB        -6.0970   -2.7350  -10.9590 c3        1 V2H     -0.090600
     30 CAC        -6.3040   -4.6920   -9.4490 c3        1 V2H     -0.090600
     31 HO30        0.9690    1.3550    0.6600 ho        1 V2H      0.396000
     32 HAN         3.0400    0.7880   -0.2360 h1        1 V2H      0.034700
     33 HAO         2.5830    0.9130    2.2630 hc        1 V2H      0.052700
     34 HAOA        3.8680   -0.2740    1.7950 hc        1 V2H      0.052700
     35 HAZ         0.9020   -0.9290    2.4380 h1        1 V2H      0.048700
     36 HOAG        2.2890   -0.4970    4.2300 ho        1 V2H      0.398000
     37 HAA         3.3610   -0.4990   -2.1760 ha        1 V2H      0.120000
     38 HAAA        3.0520   -2.3310   -2.1710 ha        1 V2H      0.120000
     39 HAS         3.3210   -2.7920    1.8470 hc        1 V2H      0.062200
     40 HASA        1.6380   -3.3030    2.2690 hc        1 V2H      0.062200
     41 HAH         0.7650   -4.2290    0.3660 ha        1 V2H      0.124000
     42 HAI         0.6430   -2.4050   -2.1260 ha        1 V2H      0.137000
     43 HAM         1.2840   -6.3750   -2.3310 hc        1 V2H      0.046700
     44 HAMA        0.5710   -5.9180   -0.7360 hc        1 V2H      0.046700
     45 HAL        -1.6590   -6.4450   -1.4270 hc        1 V2H      0.040200
     46 HALA       -0.6010   -7.8040   -1.9690 hc        1 V2H      0.040200
     47 HAR        -0.6530   -7.0440   -4.2870 hc        1 V2H      0.041200
     48 HARA       -2.3470   -7.1040   -3.6590 hc        1 V2H      0.041200
     49 HBA         0.5980   -5.0540   -4.3470 hc        1 V2H      0.052700
     50 HAF        -2.7740   -3.4000   -3.3450 hc        1 V2H      0.037700
     51 HAFA       -2.1960   -4.4060   -1.9580 hc        1 V2H      0.037700
     52 HAFB       -3.5220   -5.0260   -3.0310 hc        1 V2H      0.037700
     53 HBB        -1.2850   -5.5550   -6.0230 hc        1 V2H      0.045700
     54 HAQ        -0.6820   -3.4000   -6.6240 hc        1 V2H      0.044200
     55 HAQA       -2.0320   -2.6300   -5.7070 hc        1 V2H      0.044200
     56 HAP        -0.7160   -2.3200   -3.8210 hc        1 V2H      0.045700
     57 HAPA        0.7090   -2.7340   -4.8520 hc        1 V2H      0.045700
     58 HAY        -3.8970   -4.1460   -5.1580 hc        1 V2H      0.055700
     59 HAE        -3.2130   -6.9950   -6.1450 hc        1 V2H      0.035700
     60 HAEA       -4.0720   -6.4890   -4.6290 hc        1 V2H      0.035700
     61 HAEB       -4.8780   -6.2830   -6.2380 hc        1 V2H      0.035700
     62 HAK        -2.7420   -4.8670   -7.9500 ha        1 V2H      0.121000
     63 HAJ        -5.0170   -2.9920   -6.9370 ha        1 V2H      0.121000
     64 HAX        -3.7950   -3.6460   -9.7250 hc        1 V2H      0.049700
     65 HAD        -4.7930   -0.9110   -8.6730 hc        1 V2H      0.035033
     66 HADA       -3.9680   -1.2750  -10.2470 hc        1 V2H      0.035033
     67 HADB       -3.0540   -1.4230   -8.6900 hc        1 V2H      0.035033
     68 HAW        -6.5880   -2.6370   -8.8630 hc        1 V2H      0.045700
     69 HAB        -5.3330   -3.1860  -11.6370 hc        1 V2H      0.034200
     70 HABA       -7.1110   -3.0150  -11.3340 hc        1 V2H      0.034200
     71 HABB       -6.0010   -1.6240  -11.0040 hc        1 V2H      0.034200
     72 HAC        -7.3790   -4.8210   -9.7220 hc        1 V2H      0.034200
     73 HACA       -6.1510   -5.0730   -8.4090 hc        1 V2H      0.034200
     74 HACB       -5.6860   -5.3080  -10.1450 hc        1 V2H      0.034200
@<TRIPOS>BOND
     1    1    2 1   
     2    1   31 1   
     3    2    3 1   
     4    2    6 1   
     5    2   32 1   
     6    3    4 1   
     7    3   33 1   
     8    3   34 1   
     9    4    5 1   
    10    4    9 1   
    11    4   35 1   
    12    5   36 1   
    13    6    7 2   
    14    6    8 1   
    15    7   37 1   
    16    7   38 1   
    17    8    9 1   
    18    8   10 2   
    19    9   39 1   
    20    9   40 1   
    21   10   11 1   
    22   10   41 1   
    23   11   12 2   
    24   11   42 1   
    25   12   13 1   
    26   12   17 1   
    27   13   14 1   
    28   13   43 1   
    29   13   44 1   
    30   14   15 1   
    31   14   45 1   
    32   14   46 1   
    33   15   16 1   
    34   15   47 1   
    35   15   48 1   
    36   16   17 1   
    37   16   18 1   
    38   16   19 1   
    39   17   21 1   
    40   17   49 1   
    41   18   50 1   
    42   18   51 1   
    43   18   52 1   
    44   19   20 1   
    45   19   22 1   
    46   19   53 1   
    47   20   21 1   
    48   20   54 1   
    49   20   55 1   
    50   21   56 1   
    51   21   57 1   
    52   22   23 1   
    53   22   24 1   
    54   22   58 1   
    55   23   59 1   
    56   23   60 1   
    57   23   61 1   
    58   24   25 2   
    59   24   62 1   
    60   25   26 1   
    61   25   63 1   
    62   26   27 1   
    63   26   28 1   
    64   26   64 1   
    65   27   65 1   
    66   27   66 1   
    67   27   67 1   
    68   28   29 1   
    69   28   30 1   
    70   28   68 1   
    71   29   69 1   
    72   29   70 1   
    73   29   71 1   
    74   30   72 1   
    75   30   73 1   
    76   30   74 1   
@<TRIPOS>SUBSTRUCTURE
     1 V2H         1 TEMP              0 ****  ****    0 ROOT
