@<TRIPOS>MOLECULE
V2Z
   29    30     1     0     0
SMALL
bcc


@<TRIPOS>ATOM
      1 N10        -0.1280   -0.0090   -0.0970 nc        1 V2Z     -0.497300
      2 C11         1.1800    0.0540   -0.1070 cd        1 V2Z      0.368300
      3 C12         2.0060    0.2320    1.1340 c         1 V2Z      0.550200
      4 C14         2.1420   -0.3120   -3.8180 c3        1 V2Z     -0.095100
      5 C15         1.2200   -0.2230   -2.6280 c3        1 V2Z     -0.073400
      6 C16         2.0090   -0.0420   -1.3510 c3        1 V2Z     -0.106700
      7 C7         -0.7870    0.0880    1.1290 cc        1 V2Z      0.056400
      8 C6         -0.0920    0.2630    2.3200 cd        1 V2Z     -0.023400
      9 C8         -2.2480    0.0070    1.1460 ca        1 V2Z     -0.138100
     10 C9         -3.0300    0.5530    0.1170 ca        1 V2Z     -0.063000
     11 C4         -2.9150   -0.6330    2.2160 ca        1 V2Z      0.393200
     12 N3         -4.2530   -0.7290    2.3090 nb        1 V2Z     -0.663000
     13 C2         -4.9860   -0.1900    1.3150 ca        1 V2Z      0.394200
     14 C1         -4.4190    0.4550    0.2010 ca        1 V2Z     -0.247300
     15 O6          3.2460    0.2940    1.1640 o         1 V2Z     -0.615500
     16 N7          1.2800    0.3340    2.3320 ns        1 V2Z     -0.431100
     17 H161        2.6330    0.8930   -1.4130 hc        1 V2Z      0.070700
     18 H162        2.7220   -0.9010   -1.2140 hc        1 V2Z      0.070700
     19 H7          1.7700    0.4630    3.1900 hn        1 V2Z      0.338500
     20 H141        2.7530    0.6170   -3.9160 hc        1 V2Z      0.034700
     21 H142        2.8380   -1.1800   -3.7150 hc        1 V2Z      0.034700
     22 H143        1.5490   -0.4460   -4.7550 hc        1 V2Z      0.034700
     23 H151        0.5990   -1.1550   -2.5620 hc        1 V2Z      0.051200
     24 H152        0.5130    0.6370   -2.7640 hc        1 V2Z      0.051200
     25 H6         -0.6060    0.3580    3.2930 h4        1 V2Z      0.165000
     26 H9         -2.5560    1.0490   -0.7430 ha        1 V2Z      0.155000
     27 H4         -2.3460   -1.1040    3.0380 h4        1 V2Z      0.017100
     28 H1         -5.0610    0.8720   -0.5860 ha        1 V2Z      0.146000
     29 H2         -6.0810   -0.2870    1.4190 h4        1 V2Z      0.024100
@<TRIPOS>BOND
     1    1    2 2   
     2    1    7 1   
     3    2    3 1   
     4    2    6 1   
     5    3   15 2   
     6    3   16 1   
     7    4    5 1   
     8    4   20 1   
     9    4   21 1   
    10    4   22 1   
    11    5    6 1   
    12    5   23 1   
    13    5   24 1   
    14    6   17 1   
    15    6   18 1   
    16    7    8 2   
    17    7    9 1   
    18    8   16 1   
    19    8   25 1   
    20    9   10 ar  
    21    9   11 ar  
    22   10   14 ar  
    23   10   26 1   
    24   11   12 ar  
    25   11   27 1   
    26   12   13 ar  
    27   13   14 ar  
    28   13   29 1   
    29   14   28 1   
    30   16   19 1   
@<TRIPOS>SUBSTRUCTURE
     1 V2Z         1 TEMP              0 ****  ****    0 ROOT
