@<TRIPOS>MOLECULE
V2Z
   29    30     1     0     0
SMALL
bcc


@<TRIPOS>ATOM
      1 N10        -0.1280   -0.0090   -0.0970 nc        1 V2Z     -0.497300
      2 C11         1.1800    0.0510   -0.1060 cd        1 V2Z      0.368300
      3 C12         2.0060    0.2300    1.1340 c         1 V2Z      0.550200
      4 C14         2.1430   -0.3340   -3.8150 c3        1 V2Z     -0.095100
      5 C15         1.2210   -0.2370   -2.6260 c3        1 V2Z     -0.073400
      6 C16         2.0100   -0.0520   -1.3490 c3        1 V2Z     -0.106700
      7 C7         -0.7880    0.0940    1.1290 cc        1 V2Z      0.056400
      8 C6         -0.0920    0.2710    2.3190 cd        1 V2Z     -0.023400
      9 C8         -2.2480    0.0170    1.1450 ca        1 V2Z     -0.138100
     10 C9         -3.0280    0.5620    0.1140 ca        1 V2Z     -0.063000
     11 C4         -2.9180   -0.6180    2.2160 ca        1 V2Z      0.393200
     12 N3         -4.2570   -0.7100    2.3090 nb        1 V2Z     -0.663000
     13 C2         -4.9870   -0.1720    1.3120 ca        1 V2Z      0.394200
     14 C1         -4.4180    0.4690    0.1970 ca        1 V2Z     -0.247300
     15 O6          3.2470    0.2880    1.1650 o         1 V2Z     -0.615500
     16 N7          1.2800    0.3370    2.3320 n         1 V2Z     -0.431100
     17 H161        2.6340    0.8820   -1.4160 hc        1 V2Z      0.070700
     18 H162        2.7220   -0.9120   -1.2090 hc        1 V2Z      0.070700
     19 H7          1.7700    0.4680    3.1900 hn        1 V2Z      0.338500
     20 H141        1.5500   -0.4700   -4.7520 hc        1 V2Z      0.034700
     21 H142        2.7560    0.5950   -3.9170 hc        1 V2Z      0.034700
     22 H143        2.8380   -1.2010   -3.7080 hc        1 V2Z      0.034700
     23 H151        0.5980   -1.1680   -2.5560 hc        1 V2Z      0.051200
     24 H152        0.5150    0.6240   -2.7660 hc        1 V2Z      0.051200
     25 H6         -0.6070    0.3700    3.2910 h4        1 V2Z      0.165000
     26 H9         -2.5530    1.0540   -0.7480 ha        1 V2Z      0.155000
     27 H4         -2.3510   -1.0870    3.0400 h4        1 V2Z      0.017100
     28 H1         -5.0590    0.8840   -0.5910 ha        1 V2Z      0.146000
     29 H2         -6.0830   -0.2650    1.4170 h4        1 V2Z      0.024100
@<TRIPOS>BOND
     1    1    2 2   
     2    1    7 1   
     3    2    3 1   
     4    2    6 1   
     5    3   15 2   
     6    3   16 1   
     7    4    5 1   
     8    4   20 1   
     9    4   21 1   
    10    4   22 1   
    11    5    6 1   
    12    5   23 1   
    13    5   24 1   
    14    6   17 1   
    15    6   18 1   
    16    7    8 2   
    17    7    9 1   
    18    8   16 1   
    19    8   25 1   
    20    9   10 ar  
    21    9   11 ar  
    22   10   14 ar  
    23   10   26 1   
    24   11   12 ar  
    25   11   27 1   
    26   12   13 ar  
    27   13   14 ar  
    28   13   29 1   
    29   14   28 1   
    30   16   19 1   
@<TRIPOS>SUBSTRUCTURE
     1 V2Z         1 TEMP              0 ****  ****    0 ROOT
