@<TRIPOS>MOLECULE
V30
   36    37     1     0     0
SMALL
bcc


@<TRIPOS>ATOM
      1 N1I         0.4870    0.3790   -0.8140 nc        1 V30     -0.660100
      2 N1J         0.3840    0.4910   -3.7880 n4        1 V30     -0.668800
      3 N1K         2.2520   -0.6540    0.4640 n         1 V30     -0.460400
      4 CAA        -3.3920    0.3260    2.6840 c3        1 V30     -0.034800
      5 CAB        -0.8560   -0.9640    3.8170 c3        1 V30     -0.057800
      6 OAC         0.6270    2.8000   -3.9430 o         1 V30     -0.405100
      7 OAD         1.9600   -1.4340    2.5840 o         1 V30     -0.568500
      8 OAE        -1.9460   -0.7900   -4.6170 oh        1 V30     -0.626800
      9 CAF        -0.8410   -0.8830   -5.4970 c3        1 V30      0.111400
     10 CAG         0.0460    0.3410   -5.2330 c3        1 V30      0.098800
     11 CAH         2.3790    1.6790   -2.6980 c3        1 V30     -0.142300
     12 SAL         2.8220    0.1210   -2.0330 ss        1 V30     -0.116300
     13 SAM        -1.9400    0.7340    0.3850 ss        1 V30      0.120200
     14 CAN         1.1190    1.7730   -3.5010 c         1 V30      0.562100
     15 CAO        -2.1270    0.1840    1.9570 cc        1 V30     -0.107400
     16 CAP        -0.9720   -0.4010    2.4640 cd        1 V30     -0.021300
     17 CAQ         1.7360   -0.0520   -0.6660 cd        1 V30      0.459800
     18 CAR         1.4380   -0.8670    1.6160 c         1 V30      0.734100
     19 CAS        -0.3460    0.2350    0.2810 cc        1 V30      0.098300
     20 CAT         0.0700   -0.3740    1.4920 cd        1 V30     -0.188600
     21 HN1J       -0.5010    0.4860   -3.2510 hn        1 V30      0.483800
     22 HN1K        3.2120   -0.9290    0.4960 hn        1 V30      0.356500
     23 HAA        -3.7770   -0.6810    2.9930 hc        1 V30      0.063033
     24 HAAA       -3.2380    0.9340    3.6140 hc        1 V30      0.063033
     25 HAAB       -4.1710    0.8270    2.0580 hc        1 V30      0.063033
     26 HAB        -1.6010   -1.7900    3.9520 hc        1 V30      0.069033
     27 HABA       -1.0740   -0.1740    4.5800 hc        1 V30      0.069033
     28 HABB        0.1690   -1.3720    4.0040 hc        1 V30      0.069033
     29 HOAE       -2.6750   -1.2980   -5.0000 ho        1 V30      0.452000
     30 HAF        -1.1590   -0.8540   -6.5740 h1        1 V30      0.073200
     31 HAFA       -0.2840   -1.8380   -5.2950 h1        1 V30      0.073200
     32 HAG        -0.4980    1.2780   -5.5540 hx        1 V30      0.116200
     33 HAGA        1.0000    0.2430   -5.8210 hx        1 V30      0.116200
     34 HAH         2.3090    2.4730   -1.8990 h1        1 V30      0.161200
     35 HAHA        3.2380    1.9740   -3.3690 h1        1 V30      0.161200
     36 H1J2        0.9530   -0.3100   -3.4680 hn        1 V30      0.483800
@<TRIPOS>BOND
     1    1   17 2   
     2    1   19 1   
     3    2   10 1   
     4    2   14 1   
     5    2   21 1   
     6    2   36 1   
     7    3   17 1   
     8    3   18 1   
     9    3   22 1   
    10    4   15 1   
    11    4   23 1   
    12    4   24 1   
    13    4   25 1   
    14    5   16 1   
    15    5   26 1   
    16    5   27 1   
    17    5   28 1   
    18    6   14 2   
    19    7   18 2   
    20    8    9 1   
    21    8   29 1   
    22    9   10 1   
    23    9   30 1   
    24    9   31 1   
    25   10   32 1   
    26   10   33 1   
    27   11   12 1   
    28   11   14 1   
    29   11   34 1   
    30   11   35 1   
    31   12   17 1   
    32   13   15 1   
    33   13   19 1   
    34   15   16 2   
    35   16   20 1   
    36   18   20 1   
    37   19   20 2   
@<TRIPOS>SUBSTRUCTURE
     1 V30         1 TEMP              0 ****  ****    0 ROOT
