@<TRIPOS>MOLECULE
V30
   35    36     1     0     0
SMALL
bcc


@<TRIPOS>ATOM
      1 N1I         0.6890    0.4770    0.6410 nc        1 V30     -0.621100
      2 N1J        -4.3670   -0.1810    0.1510 n         1 V30     -0.550900
      3 N1K         0.9750   -1.4820   -0.7390 n         1 V30     -0.475400
      4 CAA         5.5860    2.2810    0.7650 c3        1 V30     -0.018800
      5 CAB         5.3860   -0.2750   -0.9150 c3        1 V30     -0.050800
      6 OAC        -4.1880   -0.0280    2.4400 o         1 V30     -0.588100
      7 OAD         2.9800   -2.1110   -1.6160 o         1 V30     -0.622500
      8 OAE        -6.0900    1.2850   -1.6600 oh        1 V30     -0.610800
      9 CAF        -6.4980    1.0420   -0.3240 c3        1 V30      0.098400
     10 CAG        -5.8010   -0.2450    0.1410 c3        1 V30      0.085000
     11 CAH        -2.1570    0.2340    1.1920 c3        1 V30     -0.109300
     12 SAL        -1.4730   -1.0040    0.1320 ss        1 V30     -0.134300
     13 SAM         2.8790    2.0000    1.1810 ss        1 V30      0.094200
     14 CAN        -3.6500    0.0070    1.3170 c         1 V30      0.664100
     15 CAO         4.3540    1.5230    0.5290 cc        1 V30     -0.144400
     16 CAP         4.2550    0.3670   -0.2300 cd        1 V30     -0.019300
     17 CAQ         0.2120   -0.6020    0.0250 cd        1 V30      0.490800
     18 CAR         2.3660   -1.2840   -0.9200 c         1 V30      0.739100
     19 CAS         2.0410    0.7180    0.5020 cc        1 V30      0.160300
     20 CAT         2.9100   -0.1100   -0.2510 cd        1 V30     -0.230600
     21 HN1J       -3.9320    0.0300   -0.7190 hn        1 V30      0.325500
     22 HN1K        0.5440   -2.2750   -1.1630 hn        1 V30      0.344500
     23 HAA         5.3970    3.1750    1.4100 hc        1 V30      0.048700
     24 HAAA        6.3490    1.6340    1.2700 hc        1 V30      0.048700
     25 HAAB        6.0210    2.6300   -0.2060 hc        1 V30      0.048700
     26 HAB         6.1740   -0.5580   -0.1710 hc        1 V30      0.058700
     27 HABA        5.0600   -1.1950   -1.4630 hc        1 V30      0.058700
     28 HABB        5.8440    0.4380   -1.6480 hc        1 V30      0.058700
     29 HOAE       -6.5570    2.0750   -1.9550 ho        1 V30      0.406000
     30 HAF        -6.2210    1.9130    0.3270 h1        1 V30      0.034700
     31 HAFA       -7.6090    0.8870   -0.2790 h1        1 V30      0.034700
     32 HAG        -6.0980   -1.0780   -0.5590 h1        1 V30      0.075200
     33 HAGA       -6.1710   -0.4860    1.1780 h1        1 V30      0.075200
     34 HAH        -1.7040    0.1810    2.2150 h1        1 V30      0.114200
     35 HAHA       -1.9700    1.2620    0.7920 h1        1 V30      0.114200
@<TRIPOS>BOND
     1    1   17 2   
     2    1   19 1   
     3    2   10 1   
     4    2   14 1   
     5    2   21 1   
     6    3   17 1   
     7    3   18 1   
     8    3   22 1   
     9    4   15 1   
    10    4   23 1   
    11    4   24 1   
    12    4   25 1   
    13    5   16 1   
    14    5   26 1   
    15    5   27 1   
    16    5   28 1   
    17    6   14 2   
    18    7   18 2   
    19    8    9 1   
    20    8   29 1   
    21    9   10 1   
    22    9   30 1   
    23    9   31 1   
    24   10   32 1   
    25   10   33 1   
    26   11   12 1   
    27   11   14 1   
    28   11   34 1   
    29   11   35 1   
    30   12   17 1   
    31   13   15 1   
    32   13   19 1   
    33   15   16 2   
    34   16   20 1   
    35   18   20 1   
    36   19   20 2   
@<TRIPOS>SUBSTRUCTURE
     1 V30         1 TEMP              0 ****  ****    0 ROOT
