@<TRIPOS>MOLECULE
V30
   36    37     1     0     0
SMALL
bcc


@<TRIPOS>ATOM
      1 N1I         0.4670    0.4160   -0.8140 nc        1 V30     -0.660100
      2 N1J         0.3980    0.4480   -3.7920 n4        1 V30     -0.668800
      3 N1K         2.2670   -0.4890    0.5110 n         1 V30     -0.460400
      4 CAA        -3.4510    0.2400    2.6360 c3        1 V30     -0.034800
      5 CAB        -0.8650   -0.8840    3.8320 c3        1 V30     -0.057800
      6 OAC         0.5220    2.7630   -4.0060 o         1 V30     -0.405100
      7 OAD         1.9880   -1.2310    2.6460 o         1 V30     -0.568500
      8 OAE        -1.8490   -0.9760   -4.6160 oh        1 V30     -0.626800
      9 CAF        -0.7290   -1.0320   -5.4790 c3        1 V30      0.111400
     10 CAG         0.0880    0.2430   -5.2370 c3        1 V30      0.098800
     11 CAH         2.3120    1.7690   -2.7080 c3        1 V30     -0.142300
     12 SAL         2.8280    0.2530   -1.9980 ss        1 V30     -0.116300
     13 SAM        -1.9920    0.6700    0.3450 ss        1 V30      0.120200
     14 CAN         1.0600    1.7740   -3.5290 c         1 V30      0.562100
     15 CAO        -2.1700    0.1480    1.9280 cc        1 V30     -0.107400
     16 CAP        -0.9930   -0.3610    2.4640 cd        1 V30     -0.021300
     17 CAQ         1.7350    0.0560   -0.6410 cd        1 V30      0.459800
     18 CAR         1.4500   -0.7180    1.6570 c         1 V30      0.734100
     19 CAS        -0.3720    0.2540    0.2730 cc        1 V30      0.098300
     20 CAT         0.0600   -0.3020    1.5050 cd        1 V30     -0.188600
     21 HN1J       -0.4920    0.4100   -3.2650 hn        1 V30      0.483800
     22 HN1K        3.2400   -0.7110    0.5620 hn        1 V30      0.356500
     23 HAA        -3.7850   -0.7780    2.9650 hc        1 V30      0.063033
     24 HAAA       -4.2470    0.6830    1.9880 hc        1 V30      0.063033
     25 HAAB       -3.3420    0.8780    3.5510 hc        1 V30      0.063033
     26 HAB         0.1770   -1.2350    4.0410 hc        1 V30      0.069367
     27 HABA       -1.1310   -0.0860    4.5720 hc        1 V30      0.069367
     28 HABB       -1.5700   -1.7420    3.9800 hc        1 V30      0.069367
     29 HOAE       -2.5450   -1.5300   -4.9940 ho        1 V30      0.452000
     30 HAF        -1.0330   -1.0480   -6.5600 h1        1 V30      0.073200
     31 HAFA       -0.1260   -1.9510   -5.2450 h1        1 V30      0.073200
     32 HAG         1.0540    0.1820   -5.8100 hx        1 V30      0.116200
     33 HAGA       -0.5000    1.1420   -5.5880 hx        1 V30      0.116200
     34 HAH         3.1640    2.0930   -3.3760 h1        1 V30      0.161200
     35 HAHA        2.1890    2.5770   -1.9300 h1        1 V30      0.161200
     36 H1J2        1.0050   -0.3130   -3.4440 hn        1 V30      0.483800
@<TRIPOS>BOND
     1    1   17 2   
     2    1   19 1   
     3    2   10 1   
     4    2   14 1   
     5    2   21 1   
     6    2   36 1   
     7    3   17 1   
     8    3   18 1   
     9    3   22 1   
    10    4   15 1   
    11    4   23 1   
    12    4   24 1   
    13    4   25 1   
    14    5   16 1   
    15    5   26 1   
    16    5   27 1   
    17    5   28 1   
    18    6   14 2   
    19    7   18 2   
    20    8    9 1   
    21    8   29 1   
    22    9   10 1   
    23    9   30 1   
    24    9   31 1   
    25   10   32 1   
    26   10   33 1   
    27   11   12 1   
    28   11   14 1   
    29   11   34 1   
    30   11   35 1   
    31   12   17 1   
    32   13   15 1   
    33   13   19 1   
    34   15   16 2   
    35   16   20 1   
    36   18   20 1   
    37   19   20 2   
@<TRIPOS>SUBSTRUCTURE
     1 V30         1 TEMP              0 ****  ****    0 ROOT
