@<TRIPOS>MOLECULE
V30
   36    37     1     0     0
SMALL
bcc


@<TRIPOS>ATOM
      1 N1I         0.4590    0.4240   -0.8280 nc        1 V30     -0.660100
      2 N1J         0.3630    0.3850   -3.8040 ny        1 V30     -0.668800
      3 N1K         2.3280   -0.3190    0.5030 ns        1 V30     -0.460400
      4 CAA        -3.4120    0.0610    2.6600 c3        1 V30     -0.034800
      5 CAB        -0.7450   -0.8450    3.8620 c3        1 V30     -0.057800
      6 OAC         0.3240    2.6970   -4.0580 o         1 V30     -0.408100
      7 OAD         2.1170   -1.0200    2.6600 o         1 V30     -0.568500
      8 OAE        -1.9220   -1.0570   -4.5860 oh        1 V30     -0.606800
      9 CAF        -0.7880   -1.1450   -5.4190 c3        1 V30      0.109400
     10 CAG         0.0690    0.1190   -5.2410 c3        1 V30      0.069800
     11 CAH         2.1960    1.8530   -2.7700 c3        1 V30     -0.142300
     12 SAL         2.8160    0.3910   -2.0300 ss        1 V30     -0.115300
     13 SAM        -2.0030    0.5330    0.3460 ss        1 V30      0.118200
     14 CAN         0.9370    1.7570   -3.5730 c         1 V30      0.563100
     15 CAO        -2.1330    0.0420    1.9440 cc        1 V30     -0.106400
     16 CAP        -0.9190   -0.3680    2.4820 cd        1 V30     -0.021300
     17 CAQ         1.7500    0.1570   -0.6570 cd        1 V30      0.459800
     18 CAR         1.5370   -0.5730    1.6630 c         1 V30      0.734100
     19 CAS        -0.3590    0.2320    0.2710 cc        1 V30      0.099300
     20 CAT         0.1200   -0.2600    1.5120 cd        1 V30     -0.187600
     21 HN1J       -0.5250    0.3010   -3.2760 hn        1 V30      0.482800
     22 HN1K        3.3130   -0.4740    0.5500 hn        1 V30      0.356500
     23 HAA        -3.6720   -0.9700    3.0170 hc        1 V30      0.063033
     24 HAAA       -3.3430    0.7270    3.5590 hc        1 V30      0.063033
     25 HAAB       -4.2420    0.4300    2.0090 hc        1 V30      0.063033
     26 HAB        -1.3780   -1.7540    4.0340 hc        1 V30      0.069033
     27 HABA       -1.0720   -0.0540    4.5840 hc        1 V30      0.069033
     28 HABB        0.3230   -1.1060    4.0730 hc        1 V30      0.069033
     29 HOAE       -2.6870   -0.8230   -5.1280 ho        1 V30      0.439000
     30 HAF        -1.0480   -1.2420   -6.5060 h1        1 V30      0.089200
     31 HAFA       -0.2260   -2.0600   -5.0860 h1        1 V30      0.089200
     32 HAG        -0.4820    1.0160   -5.6500 hx        1 V30      0.113200
     33 HAGA        1.0410   -0.0010   -5.7950 hx        1 V30      0.113200
     34 HAH         2.0320    2.6710   -2.0110 h1        1 V30      0.161200
     35 HAHA        3.0180    2.2120   -3.4580 h1        1 V30      0.161200
     36 H1J2        1.0180   -0.3260   -3.4350 hn        1 V30      0.482800
@<TRIPOS>BOND
     1    1   17 2   
     2    1   19 1   
     3    2   10 1   
     4    2   14 1   
     5    2   21 1   
     6    2   36 1   
     7    3   17 1   
     8    3   18 1   
     9    3   22 1   
    10    4   15 1   
    11    4   23 1   
    12    4   24 1   
    13    4   25 1   
    14    5   16 1   
    15    5   26 1   
    16    5   27 1   
    17    5   28 1   
    18    6   14 2   
    19    7   18 2   
    20    8    9 1   
    21    8   29 1   
    22    9   10 1   
    23    9   30 1   
    24    9   31 1   
    25   10   32 1   
    26   10   33 1   
    27   11   12 1   
    28   11   14 1   
    29   11   34 1   
    30   11   35 1   
    31   12   17 1   
    32   13   15 1   
    33   13   19 1   
    34   15   16 2   
    35   16   20 1   
    36   18   20 1   
    37   19   20 2   
@<TRIPOS>SUBSTRUCTURE
     1 V30         1 TEMP              0 ****  ****    0 ROOT
