@<TRIPOS>MOLECULE
V37
   50    53     1     0     0
SMALL
bcc


@<TRIPOS>ATOM
      1 O2         -0.1930    0.1570   -0.1500 o         1 V37     -0.549000
      2 C1          0.9910   -0.0420    0.1410 c         1 V37      0.646700
      3 C2          1.5520   -0.3000    1.4770 ca        1 V37     -0.135600
      4 C7          2.9310   -0.4380    1.6740 ca        1 V37     -0.073000
      5 C6          3.4250   -0.6800    2.9550 ca        1 V37     -0.147500
      6 C5          2.5490   -0.7850    4.0360 ca        1 V37     -0.098000
      7 C4          1.1750   -0.6460    3.8390 ca        1 V37     -0.147500
      8 C3          0.6720   -0.4040    2.5630 ca        1 V37     -0.073000
      9 O1          1.9230   -0.0370   -0.8600 os        1 V37     -0.447900
     10 C8          1.4610    0.2040   -2.2120 c3        1 V37      0.161100
     11 C12         1.3130    1.7080   -2.4460 c3        1 V37     -0.073900
     12 C11         2.5900    2.3660   -2.9880 c3        1 V37      0.157000
     13 C13         3.7320    2.2120   -1.9440 c3        1 V37     -0.106400
     14 C14         4.4170    0.9010   -2.3340 c3        1 V37     -0.106400
     15 C10         3.6180    0.4110   -3.5740 c3        1 V37      0.157000
     16 C9          2.4760   -0.5060   -3.1130 c3        1 V37     -0.073900
     17 N           3.0140    1.6160   -4.1960 n3        1 V37     -0.695600
     18 C15         3.9400    2.3400   -5.0530 c3        1 V37      0.160800
     19 C16         3.2610    3.4380   -5.8780 c3        1 V37     -0.036100
     20 C17         4.2450    4.0740   -6.7960 ca        1 V37     -0.081300
     21 C22         5.1790    4.9930   -6.3010 ca        1 V37     -0.127000
     22 C21         6.0950    5.5970   -7.1600 ca        1 V37     -0.129000
     23 C20         6.0870    5.2890   -8.5210 ca        1 V37     -0.132000
     24 C19         5.1600    4.3750   -9.0200 ca        1 V37     -0.129000
     25 C18         4.2420    3.7690   -8.1620 ca        1 V37     -0.127000
     26 H7          3.6160   -0.3540    0.8150 ha        1 V37      0.155000
     27 H3         -0.4110   -0.2910    2.3930 ha        1 V37      0.155000
     28 H6          4.5090   -0.7890    3.1110 ha        1 V37      0.138500
     29 H5          2.9430   -0.9770    5.0450 ha        1 V37      0.136000
     30 H4          0.4850   -0.7290    4.6920 ha        1 V37      0.138500
     31 H8          0.4520   -0.2840   -2.3290 h1        1 V37      0.070700
     32 H121        1.0270    2.2020   -1.4820 hc        1 V37      0.060200
     33 H122        0.4780    1.8680   -3.1770 hc        1 V37      0.060200
     34 H91C        2.9160   -1.3780   -2.5640 hc        1 V37      0.060200
     35 H92C        1.9280   -0.8950   -4.0100 hc        1 V37      0.060200
     36 H11         2.3920    3.4420   -3.2280 h1        1 V37      0.065200
     37 H131        4.4370    3.0740   -2.0060 hc        1 V37      0.050450
     38 H132        3.3180    2.1630   -0.9090 hc        1 V37      0.050450
     39 H141        4.3600    0.1530   -1.5070 hc        1 V37      0.050450
     40 H142        5.4880    1.0630   -2.5980 hc        1 V37      0.050450
     41 H10         4.2740   -0.1360   -4.2990 h1        1 V37      0.065200
     42 H151        4.3920    1.5950   -5.7680 h1        1 V37      0.036200
     43 H152        4.7870    2.8060   -4.4690 h1        1 V37      0.036200
     44 H161        2.4100    3.0000   -6.4650 hc        1 V37      0.055200
     45 H162        2.8290    4.2200   -5.1980 hc        1 V37      0.055200
     46 H22         5.1860    5.2380   -5.2290 ha        1 V37      0.131500
     47 H18         3.5110    3.0500   -8.5600 ha        1 V37      0.131500
     48 H21         6.8250    6.3180   -6.7640 ha        1 V37      0.130500
     49 H20         6.8100    5.7670   -9.1980 ha        1 V37      0.130000
     50 H19         5.1500    4.1310  -10.0920 ha        1 V37      0.130500
@<TRIPOS>BOND
     1    1    2 2   
     2    2    3 1   
     3    2    9 1   
     4    3    4 ar  
     5    3    8 ar  
     6    4    5 ar  
     7    4   26 1   
     8    5    6 ar  
     9    5   28 1   
    10    6    7 ar  
    11    6   29 1   
    12    7    8 ar  
    13    7   30 1   
    14    8   27 1   
    15    9   10 1   
    16   10   11 1   
    17   10   16 1   
    18   10   31 1   
    19   11   12 1   
    20   11   32 1   
    21   11   33 1   
    22   12   13 1   
    23   12   17 1   
    24   12   36 1   
    25   13   14 1   
    26   13   37 1   
    27   13   38 1   
    28   14   15 1   
    29   14   39 1   
    30   14   40 1   
    31   15   16 1   
    32   15   17 1   
    33   15   41 1   
    34   16   34 1   
    35   16   35 1   
    36   17   18 1   
    37   18   19 1   
    38   18   42 1   
    39   18   43 1   
    40   19   20 1   
    41   19   44 1   
    42   19   45 1   
    43   20   21 ar  
    44   20   25 ar  
    45   21   22 ar  
    46   21   46 1   
    47   22   23 ar  
    48   22   48 1   
    49   23   24 ar  
    50   23   49 1   
    51   24   25 ar  
    52   24   50 1   
    53   25   47 1   
@<TRIPOS>SUBSTRUCTURE
     1 V37         1 TEMP              0 ****  ****    0 ROOT
