@<TRIPOS>MOLECULE
V37
   50    53     1     0     0
SMALL
bcc


@<TRIPOS>ATOM
      1 O2          3.6330   -1.8600    1.3010 o         1 V37     -0.549000
      2 C1          3.6100   -0.9370    0.4810 c         1 V37      0.646700
      3 C2          4.6890    0.0200    0.1830 ca        1 V37     -0.135600
      4 C7          4.5020    1.0690   -0.7250 ca        1 V37     -0.073000
      5 C6          5.5470    1.9560   -0.9800 ca        1 V37     -0.147500
      6 C5          6.7730    1.7990   -0.3340 ca        1 V37     -0.098000
      7 C4          6.9590    0.7540    0.5720 ca        1 V37     -0.147500
      8 C3          5.9200   -0.1380    0.8340 ca        1 V37     -0.073000
      9 O1          2.4790   -0.7450   -0.2620 os        1 V37     -0.447900
     10 C8          1.3650   -1.6450   -0.0410 c3        1 V37      0.161100
     11 C12         0.5570   -1.1770    1.1700 c3        1 V37     -0.073900
     12 C11        -0.5720   -0.2030    0.8070 c3        1 V37      0.157000
     13 C13         0.0380    1.0840    0.1840 c3        1 V37     -0.106400
     14 C14         0.0710    0.7910   -1.3170 c3        1 V37     -0.106400
     15 C10        -0.5300   -0.6380   -1.4360 c3        1 V37      0.157000
     16 C9          0.6030   -1.6720   -1.3690 c3        1 V37     -0.073900
     17 N          -1.4000   -0.8360   -0.2500 n3        1 V37     -0.695600
     18 C15        -2.7200   -0.2470   -0.4070 c3        1 V37      0.160800
     19 C16        -3.6940   -0.6500    0.7050 c3        1 V37     -0.036100
     20 C17        -5.0450   -0.0880    0.4330 ca        1 V37     -0.081300
     21 C22        -5.3050    1.2680    0.6690 ca        1 V37     -0.127000
     22 C21        -6.5720    1.7940    0.4250 ca        1 V37     -0.129000
     23 C20        -7.5910    0.9720   -0.0550 ca        1 V37     -0.132000
     24 C19        -7.3390   -0.3790   -0.2910 ca        1 V37     -0.129000
     25 C18        -6.0720   -0.9080   -0.0480 ca        1 V37     -0.127000
     26 H7          3.5300    1.1850   -1.2300 ha        1 V37      0.155000
     27 H3          6.0530   -0.9670    1.5470 ha        1 V37      0.155000
     28 H6          5.4020    2.7810   -1.6930 ha        1 V37      0.138500
     29 H5          7.5960    2.5010   -0.5380 ha        1 V37      0.136000
     30 H4          7.9260    0.6310    1.0810 ha        1 V37      0.138500
     31 H8          1.7810   -2.6710    0.1720 h1        1 V37      0.070700
     32 H121        0.1180   -2.0800    1.6690 hc        1 V37      0.060200
     33 H122        1.2470   -0.6820    1.9010 hc        1 V37      0.060200
     34 H91C        1.3170   -1.4780   -2.2110 hc        1 V37      0.060200
     35 H92C        0.1760   -2.7000   -1.5000 hc        1 V37      0.060200
     36 H11        -1.1840    0.0280    1.7160 h1        1 V37      0.065200
     37 H131       -0.6010    1.9700    0.4120 hc        1 V37      0.050450
     38 H132        1.0620    1.2710    0.5850 hc        1 V37      0.050450
     39 H141       -0.5460    1.5230   -1.8890 hc        1 V37      0.050450
     40 H142        1.1150    0.8150   -1.7110 hc        1 V37      0.050450
     41 H10        -1.1050   -0.7670   -2.3890 h1        1 V37      0.065200
     42 H151       -2.6820    0.8810   -0.4540 h1        1 V37      0.036200
     43 H152       -3.1390   -0.6120   -1.3880 h1        1 V37      0.036200
     44 H161       -3.7470   -1.7690    0.7750 hc        1 V37      0.055200
     45 H162       -3.3260   -0.2710    1.6960 hc        1 V37      0.055200
     46 H22        -4.5030    1.9170    1.0490 ha        1 V37      0.131500
     47 H18        -5.8780   -1.9750   -0.2340 ha        1 V37      0.131500
     48 H21        -6.7680    2.8600    0.6140 ha        1 V37      0.130500
     49 H20        -8.5910    1.3880   -0.2460 ha        1 V37      0.130000
     50 H19        -8.1410   -1.0310   -0.6680 ha        1 V37      0.130500
@<TRIPOS>BOND
     1    1    2 2   
     2    2    3 1   
     3    2    9 1   
     4    3    4 ar  
     5    3    8 ar  
     6    4    5 ar  
     7    4   26 1   
     8    5    6 ar  
     9    5   28 1   
    10    6    7 ar  
    11    6   29 1   
    12    7    8 ar  
    13    7   30 1   
    14    8   27 1   
    15    9   10 1   
    16   10   11 1   
    17   10   16 1   
    18   10   31 1   
    19   11   12 1   
    20   11   32 1   
    21   11   33 1   
    22   12   13 1   
    23   12   17 1   
    24   12   36 1   
    25   13   14 1   
    26   13   37 1   
    27   13   38 1   
    28   14   15 1   
    29   14   39 1   
    30   14   40 1   
    31   15   16 1   
    32   15   17 1   
    33   15   41 1   
    34   16   34 1   
    35   16   35 1   
    36   17   18 1   
    37   18   19 1   
    38   18   42 1   
    39   18   43 1   
    40   19   20 1   
    41   19   44 1   
    42   19   45 1   
    43   20   21 ar  
    44   20   25 ar  
    45   21   22 ar  
    46   21   46 1   
    47   22   23 ar  
    48   22   48 1   
    49   23   24 ar  
    50   23   49 1   
    51   24   25 ar  
    52   24   50 1   
    53   25   47 1   
@<TRIPOS>SUBSTRUCTURE
     1 V37         1 TEMP              0 ****  ****    0 ROOT
