@<TRIPOS>MOLECULE
V37
   50    53     1     0     0
SMALL
bcc


@<TRIPOS>ATOM
      1 O2         -0.2050    0.1540   -0.1690 o         1 V37     -0.549000
      2 C1          0.9770   -0.0470    0.1270 c         1 V37      0.646700
      3 C2          1.5320   -0.3080    1.4650 ca        1 V37     -0.135600
      4 C7          2.9100   -0.4480    1.6690 ca        1 V37     -0.073000
      5 C6          3.3980   -0.6950    2.9510 ca        1 V37     -0.147500
      6 C5          2.5170   -0.8010    4.0270 ca        1 V37     -0.098000
      7 C4          1.1430   -0.6610    3.8250 ca        1 V37     -0.147500
      8 C3          0.6460   -0.4140    2.5460 ca        1 V37     -0.073000
      9 O1          1.9140   -0.0410   -0.8690 os        1 V37     -0.447900
     10 C8          1.4580    0.2040   -2.2240 c3        1 V37      0.161100
     11 C12         1.3120    1.7080   -2.4540 c3        1 V37     -0.073900
     12 C11         2.5920    2.3670   -2.9890 c3        1 V37      0.157000
     13 C13         3.7290    2.2100   -1.9400 c3        1 V37     -0.106400
     14 C14         4.4150    0.8990   -2.3300 c3        1 V37     -0.106400
     15 C10         3.6210    0.4130   -3.5750 c3        1 V37      0.157000
     16 C9          2.4770   -0.5040   -3.1210 c3        1 V37     -0.073900
     17 N           3.0210    1.6200   -4.1970 n3        1 V37     -0.695600
     18 C15         3.9510    2.3440   -5.0480 c3        1 V37      0.160800
     19 C16         3.2760    3.4450   -5.8740 c3        1 V37     -0.036100
     20 C17         4.2650    4.0820   -6.7860 ca        1 V37     -0.081300
     21 C22         5.1960    5.0010   -6.2850 ca        1 V37     -0.127000
     22 C21         6.1160    5.6060   -7.1380 ca        1 V37     -0.129000
     23 C20         6.1150    5.3020   -8.4990 ca        1 V37     -0.132000
     24 C19         5.1900    4.3890   -9.0040 ca        1 V37     -0.129000
     25 C18         4.2690    3.7810   -8.1520 ca        1 V37     -0.127000
     26 H7          3.5980   -0.3620    0.8120 ha        1 V37      0.155000
     27 H3         -0.4360   -0.3000    2.3720 ha        1 V37      0.155000
     28 H6          4.4800   -0.8050    3.1120 ha        1 V37      0.138500
     29 H5          2.9050   -0.9960    5.0380 ha        1 V37      0.136000
     30 H4          0.4490   -0.7450    4.6740 ha        1 V37      0.138500
     31 H8          0.4490   -0.2840   -2.3460 h1        1 V37      0.070700
     32 H121        0.4810    1.8710   -3.1890 hc        1 V37      0.060200
     33 H122        1.0220    2.2000   -1.4900 hc        1 V37      0.060200
     34 H91C        2.9130   -1.3780   -2.5720 hc        1 V37      0.060200
     35 H92C        1.9320   -0.8910   -4.0210 hc        1 V37      0.060200
     36 H11         2.3960    3.4440   -3.2270 h1        1 V37      0.065200
     37 H131        3.3110    2.1590   -0.9070 hc        1 V37      0.050450
     38 H132        4.4350    3.0720   -1.9970 hc        1 V37      0.050450
     39 H141        4.3540    0.1490   -1.5050 hc        1 V37      0.050450
     40 H142        5.4880    1.0610   -2.5890 hc        1 V37      0.050450
     41 H10         4.2800   -0.1330   -4.2990 h1        1 V37      0.065200
     42 H151        4.7950    2.8100   -4.4590 h1        1 V37      0.036200
     43 H152        4.4060    1.6010   -5.7630 h1        1 V37      0.036200
     44 H161        2.4280    3.0080   -6.4660 hc        1 V37      0.055200
     45 H162        2.8410    4.2250   -5.1940 hc        1 V37      0.055200
     46 H22         5.1970    5.2430   -5.2120 ha        1 V37      0.131500
     47 H18         3.5400    3.0620   -8.5560 ha        1 V37      0.131500
     48 H21         6.8440    6.3270   -6.7370 ha        1 V37      0.130500
     49 H20         6.8410    5.7810   -9.1720 ha        1 V37      0.130000
     50 H19         5.1850    4.1470  -10.0770 ha        1 V37      0.130500
@<TRIPOS>BOND
     1    1    2 2   
     2    2    3 1   
     3    2    9 1   
     4    3    4 ar  
     5    3    8 ar  
     6    4    5 ar  
     7    4   26 1   
     8    5    6 ar  
     9    5   28 1   
    10    6    7 ar  
    11    6   29 1   
    12    7    8 ar  
    13    7   30 1   
    14    8   27 1   
    15    9   10 1   
    16   10   11 1   
    17   10   16 1   
    18   10   31 1   
    19   11   12 1   
    20   11   32 1   
    21   11   33 1   
    22   12   13 1   
    23   12   17 1   
    24   12   36 1   
    25   13   14 1   
    26   13   37 1   
    27   13   38 1   
    28   14   15 1   
    29   14   39 1   
    30   14   40 1   
    31   15   16 1   
    32   15   17 1   
    33   15   41 1   
    34   16   34 1   
    35   16   35 1   
    36   17   18 1   
    37   18   19 1   
    38   18   42 1   
    39   18   43 1   
    40   19   20 1   
    41   19   44 1   
    42   19   45 1   
    43   20   21 ar  
    44   20   25 ar  
    45   21   22 ar  
    46   21   46 1   
    47   22   23 ar  
    48   22   48 1   
    49   23   24 ar  
    50   23   49 1   
    51   24   25 ar  
    52   24   50 1   
    53   25   47 1   
@<TRIPOS>SUBSTRUCTURE
     1 V37         1 TEMP              0 ****  ****    0 ROOT
