@<TRIPOS>MOLECULE
V37
   50    53     1     0     0
SMALL
bcc


@<TRIPOS>ATOM
      1 O2         -0.2010    0.1810   -0.1470 o         1 V37     -0.549000
      2 C1          0.9820   -0.0320    0.1390 c         1 V37      0.646700
      3 C2          1.5440   -0.3030    1.4720 ca        1 V37     -0.135600
      4 C7          2.9210   -0.4560    1.6660 ca        1 V37     -0.073000
      5 C6          3.4170   -0.7100    2.9430 ca        1 V37     -0.147500
      6 C5          2.5420   -0.8110    4.0260 ca        1 V37     -0.098000
      7 C4          1.1690   -0.6570    3.8340 ca        1 V37     -0.147500
      8 C3          0.6650   -0.4030    2.5600 ca        1 V37     -0.073000
      9 O1          1.9110   -0.0330   -0.8640 os        1 V37     -0.447900
     10 C8          1.4480    0.2190   -2.2140 c3        1 V37      0.161100
     11 C12         1.3150    1.7260   -2.4400 c3        1 V37     -0.073900
     12 C11         2.5970    2.3730   -2.9830 c3        1 V37      0.157000
     13 C13         3.7400    2.2030   -1.9430 c3        1 V37     -0.106400
     14 C14         4.4100    0.8870   -2.3400 c3        1 V37     -0.106400
     15 C10         3.6030    0.4110   -3.5810 c3        1 V37      0.157000
     16 C9          2.4530   -0.4960   -3.1210 c3        1 V37     -0.073900
     17 N           3.0100    1.6250   -4.1960 n3        1 V37     -0.695600
     18 C15         3.9400    2.3430   -5.0520 c3        1 V37      0.160800
     19 C16         3.2700    3.4510   -5.8710 c3        1 V37     -0.036100
     20 C17         4.2580    4.0810   -6.7880 ca        1 V37     -0.081300
     21 C22         5.2000    4.9910   -6.2920 ca        1 V37     -0.127000
     22 C21         6.1200    5.5900   -7.1500 ca        1 V37     -0.129000
     23 C20         6.1080    5.2870   -8.5120 ca        1 V37     -0.132000
     24 C19         5.1720    4.3830   -9.0120 ca        1 V37     -0.129000
     25 C18         4.2510    3.7820   -8.1550 ca        1 V37     -0.127000
     26 H7          3.6050   -0.3740    0.8040 ha        1 V37      0.155000
     27 H3         -0.4170   -0.2780    2.3940 ha        1 V37      0.155000
     28 H6          4.4990   -0.8310    3.0970 ha        1 V37      0.138500
     29 H5          2.9370   -1.0120    5.0340 ha        1 V37      0.136000
     30 H4          0.4800   -0.7370    4.6880 ha        1 V37      0.138500
     31 H8          0.4330   -0.2580   -2.3310 h1        1 V37      0.070700
     32 H121        1.0360    2.2180   -1.4730 hc        1 V37      0.060200
     33 H122        0.4800    1.8980   -3.1680 hc        1 V37      0.060200
     34 H91C        1.8990   -0.8760   -4.0180 hc        1 V37      0.060200
     35 H92C        2.8850   -1.3750   -2.5770 hc        1 V37      0.060200
     36 H11         2.4090    3.4530   -3.2170 h1        1 V37      0.065200
     37 H131        4.4540    3.0580   -2.0020 hc        1 V37      0.050450
     38 H132        3.3290    2.1540   -0.9070 hc        1 V37      0.050450
     39 H141        4.3480    0.1360   -1.5170 hc        1 V37      0.050450
     40 H142        5.4830    1.0390   -2.6060 hc        1 V37      0.050450
     41 H10         4.2520   -0.1390   -4.3100 h1        1 V37      0.065200
     42 H151        4.7930    2.7990   -4.4680 h1        1 V37      0.036200
     43 H152        4.3840    1.5970   -5.7710 h1        1 V37      0.036200
     44 H161        2.4140    3.0230   -6.4580 hc        1 V37      0.055200
     45 H162        2.8470    4.2340   -5.1860 hc        1 V37      0.055200
     46 H22         5.2110    5.2320   -5.2190 ha        1 V37      0.131500
     47 H18         3.5130    3.0700   -8.5550 ha        1 V37      0.131500
     48 H21         6.8560    6.3040   -6.7530 ha        1 V37      0.130500
     49 H20         6.8330    5.7610   -9.1890 ha        1 V37      0.130000
     50 H19         5.1580    4.1430  -10.0850 ha        1 V37      0.130500
@<TRIPOS>BOND
     1    1    2 2   
     2    2    3 1   
     3    2    9 1   
     4    3    4 ar  
     5    3    8 ar  
     6    4    5 ar  
     7    4   26 1   
     8    5    6 ar  
     9    5   28 1   
    10    6    7 ar  
    11    6   29 1   
    12    7    8 ar  
    13    7   30 1   
    14    8   27 1   
    15    9   10 1   
    16   10   11 1   
    17   10   16 1   
    18   10   31 1   
    19   11   12 1   
    20   11   32 1   
    21   11   33 1   
    22   12   13 1   
    23   12   17 1   
    24   12   36 1   
    25   13   14 1   
    26   13   37 1   
    27   13   38 1   
    28   14   15 1   
    29   14   39 1   
    30   14   40 1   
    31   15   16 1   
    32   15   17 1   
    33   15   41 1   
    34   16   34 1   
    35   16   35 1   
    36   17   18 1   
    37   18   19 1   
    38   18   42 1   
    39   18   43 1   
    40   19   20 1   
    41   19   44 1   
    42   19   45 1   
    43   20   21 ar  
    44   20   25 ar  
    45   21   22 ar  
    46   21   46 1   
    47   22   23 ar  
    48   22   48 1   
    49   23   24 ar  
    50   23   49 1   
    51   24   25 ar  
    52   24   50 1   
    53   25   47 1   
@<TRIPOS>SUBSTRUCTURE
     1 V37         1 TEMP              0 ****  ****    0 ROOT
