@<TRIPOS>MOLECULE
V38
   55    53     1     0     0
SMALL
bcc


@<TRIPOS>ATOM
      1 O2         -2.1750    1.3000    2.4580 o         1 V38     -0.345000
      2 C1         -1.2410    2.0800    2.4880 c1        1 V38      0.357000
      3 C2         -1.1870    3.1640    3.5590 c2        1 V38     -0.133000
      4 C7         -1.1190    4.4980    3.1890 c2        1 V38     -0.074000
      5 C6         -1.2090    5.4940    4.1570 c1        1 V38     -0.143000
      6 C5         -1.3650    5.1540    5.4870 c1        1 V38     -0.107250
      7 C4         -1.4320    3.8220    5.8580 c1        1 V38     -0.107250
      8 C3         -1.3430    2.8250    4.8910 c1        1 V38     -0.062000
      9 O1         -0.2250    1.9970    1.5210 o         1 V38     -0.299000
     10 C8         -0.2510    0.8310    0.7810 c3        1 V38      0.038000
     11 C12        -1.1200    1.0750   -0.4910 c3        1 V38     -0.194000
     12 C11        -0.4060    0.8550   -1.7940 c3        1 V38     -0.052500
     13 C13         0.3950    2.1200   -2.0590 c3        1 V38     -0.176500
     14 C14         1.8640    1.7060   -1.4540 c3        1 V38     -0.176500
     15 C10         1.5970    0.2730   -0.9630 c3        1 V38     -0.052500
     16 C9          1.2450    0.3900    0.4930 c3        1 V38     -0.194000
     17 N           0.6050   -0.0590   -1.7730 n4        1 V38      0.019000
     18 C23         1.1580   -0.2000   -3.1800 c3        1 V38     -0.178000
     19 C15         0.0680   -1.3370   -1.3530 c3        1 V38     -0.127000
     20 C16         1.0890   -2.4340   -1.6310 c3        1 V38      0.077000
     21 O3          1.6190   -2.2650   -2.9110 oh        1 V38     -0.349000
     22 C17         0.4100   -3.7920   -1.5400 c2        1 V38     -0.167000
     23 C22         0.3630   -4.4650   -0.3240 c2        1 V38     -0.112000
     24 C21        -0.2110   -5.7300   -0.2510 c1        1 V38     -0.118000
     25 C20        -0.7350   -6.3200   -1.3910 c1        1 V38     -0.107250
     26 C19        -0.6880   -5.6470   -2.6060 c1        1 V38     -0.107250
     27 C18        -0.1140   -4.3820   -2.6790 c1        1 V38     -0.117000
     28 H7         -1.0090    4.7380    2.2510 ha        1 V38      0.138000
     29 H3         -1.3910    1.8880    5.1520 ha        1 V38      0.162000
     30 H6         -1.1610    6.4310    3.8960 ha        1 V38      0.147000
     31 H5         -1.4270    5.8530    6.1650 ha        1 V38      0.153000
     32 H4         -1.5430    3.5810    6.7980 ha        1 V38      0.153000
     33 H8         -0.6760    0.1390    1.3140 h1        1 V38      0.138000
     34 H121       -1.4460    1.9980   -0.4700 hc        1 V38      0.131500
     35 H122       -1.8960    0.4700   -0.4570 hc        1 V38      0.131500
     36 H91C        1.8430    1.0450    0.9030 hc        1 V38      0.131500
     37 H92C        1.3990   -0.4850    0.9220 hc        1 V38      0.131500
     38 H11        -1.0360    0.6750   -2.5250 hx        1 V38      0.147000
     39 H131        0.4500    2.3040   -3.0120 hc        1 V38      0.128750
     40 H132        0.0160    2.8850   -1.5720 hc        1 V38      0.128750
     41 H141        2.1170    2.2950   -0.7040 hc        1 V38      0.128750
     42 H142        2.5450    1.7140   -2.1540 hc        1 V38      0.128750
     43 H10         2.3750   -0.2970   -1.0990 hx        1 V38      0.147000
     44 H231        0.7430   -0.9760   -3.6190 hx        1 V38      0.140000
     45 H232        0.9560    0.6110   -3.6930 hx        1 V38      0.140000
     46 H233        2.1290   -0.3270   -3.1390 hx        1 V38      0.140000
     47 H151       -0.1290   -1.3080   -0.3910 hx        1 V38      0.146000
     48 H152       -0.7550   -1.5240   -1.8490 hx        1 V38      0.146000
     49 H16         1.8080   -2.3850   -0.9710 h1        1 V38      0.096000
     50 HA          2.2890   -2.8400   -3.0330 ho        1 V38      0.242000
     51 H22         0.7310   -4.0510    0.4760 ha        1 V38      0.133000
     52 H18        -0.0810   -3.9100   -3.5340 ha        1 V38      0.141000
     53 H21        -0.2440   -6.2060    0.6090 ha        1 V38      0.153000
     54 H20        -1.1400   -7.2110   -1.3390 ha        1 V38      0.153000
     55 H19        -1.0570   -6.0620   -3.4070 ha        1 V38      0.153000
@<TRIPOS>BOND
     1    1    2 1   
     2    2    3 1   
     3    3    4 1   
     4    3    8 1   
     5    4    5 1   
     6    4   28 1   
     7    5   30 1   
     8    6    7 1   
     9    6   31 1   
    10    7   32 1   
    11    8   29 1   
    12    9   10 1   
    13   10   11 1   
    14   10   16 1   
    15   10   33 1   
    16   11   12 1   
    17   11   34 1   
    18   11   35 1   
    19   12   13 1   
    20   12   17 1   
    21   12   38 1   
    22   13   14 1   
    23   13   39 1   
    24   13   40 1   
    25   14   15 1   
    26   14   41 1   
    27   14   42 1   
    28   15   16 1   
    29   15   17 1   
    30   15   43 1   
    31   16   36 1   
    32   16   37 1   
    33   17   18 1   
    34   17   19 1   
    35   18   44 1   
    36   18   45 1   
    37   18   46 1   
    38   19   20 1   
    39   19   47 1   
    40   19   48 1   
    41   20   21 1   
    42   20   22 1   
    43   20   49 1   
    44   21   50 1   
    45   22   23 1   
    46   22   27 1   
    47   23   24 1   
    48   23   51 1   
    49   24   53 1   
    50   25   26 1   
    51   25   54 1   
    52   26   55 1   
    53   27   52 1   
@<TRIPOS>SUBSTRUCTURE
     1 V38         1 TEMP              0 ****  ****    0 ROOT
