@<TRIPOS>MOLECULE
V38
   55    58     1     0     0
SMALL
bcc


@<TRIPOS>ATOM
      1 O2         -0.1360    0.5550   -0.2420 o         1 V38     -0.533000
      2 C1          1.0170    0.2050    0.0180 c         1 V38      0.656700
      3 C2          1.6090   -0.1330    1.3130 ca        1 V38     -0.152600
      4 C7          2.9440   -0.5420    1.4290 ca        1 V38     -0.068500
      5 C6          3.4640   -0.8590    2.6820 ca        1 V38     -0.140000
      6 C5          2.6580   -0.7690    3.8180 ca        1 V38     -0.078000
      7 C4          1.3280   -0.3630    3.7040 ca        1 V38     -0.140000
      8 C3          0.7980   -0.0440    2.4550 ca        1 V38     -0.068500
      9 O1          1.8970    0.1250   -1.0460 os        1 V38     -0.461900
     10 C8          1.3590    0.3440   -2.3630 c3        1 V38      0.147100
     11 C12         1.2660    1.8470   -2.6390 c3        1 V38     -0.113400
     12 C11         2.5120    2.4420   -3.2930 c3        1 V38      0.149500
     13 C13         3.7250    2.2620   -2.3510 c3        1 V38     -0.100400
     14 C14         4.3070    0.8920   -2.7100 c3        1 V38     -0.100400
     15 C10         3.4280    0.3730   -3.8730 c3        1 V38      0.149500
     16 C9          2.2700   -0.4490   -3.3060 c3        1 V38     -0.113400
     17 N           2.8950    1.6440   -4.5480 n4        1 V38     -0.609800
     18 C23         3.9830    2.3380   -5.2860 c3        1 V38      0.091100
     19 C15         1.7720    1.3570   -5.4870 c3        1 V38      0.110800
     20 C16         1.3070    2.5440   -6.3630 c3        1 V38      0.195400
     21 O3          1.1400    3.6680   -5.5110 oh        1 V38     -0.629800
     22 C17         0.0460    2.1430   -7.0650 ca        1 V38     -0.176300
     23 C22        -1.1740    2.1510   -6.3780 ca        1 V38     -0.112500
     24 C21        -2.3480    1.7890   -7.0350 ca        1 V38     -0.118500
     25 C20        -2.3080    1.4150   -8.3800 ca        1 V38     -0.095000
     26 C19        -1.0930    1.4070   -9.0660 ca        1 V38     -0.118500
     27 C18         0.0830    1.7720   -8.4130 ca        1 V38     -0.112500
     28 H7          3.5750   -0.6140    0.5290 ha        1 V38      0.150000
     29 H3         -0.2520    0.2760    2.3530 ha        1 V38      0.150000
     30 H6          4.5120   -1.1820    2.7750 ha        1 V38      0.150000
     31 H5          3.0720   -1.0220    4.8070 ha        1 V38      0.150000
     32 H4          0.6920   -0.2940    4.6010 ha        1 V38      0.150000
     33 H8          0.3170   -0.0910   -2.4030 h1        1 V38      0.097700
     34 H121        1.1030    2.3810   -1.6620 hc        1 V38      0.092700
     35 H122        0.3620    2.0620   -3.2690 hc        1 V38      0.092700
     36 H91C        2.7160   -1.3130   -2.7390 hc        1 V38      0.092700
     37 H92C        1.6520   -0.8840   -4.1340 hc        1 V38      0.092700
     38 H11         2.3320    3.5130   -3.5880 hx        1 V38      0.117700
     39 H131        3.3860    2.2860   -1.2850 hc        1 V38      0.088200
     40 H132        4.4710    3.0800   -2.4990 hc        1 V38      0.088200
     41 H141        4.2370    0.1900   -1.8400 hc        1 V38      0.088200
     42 H142        5.3780    0.9630   -3.0180 hc        1 V38      0.088200
     43 H10         4.0130   -0.2200   -4.6250 hx        1 V38      0.117700
     44 H231        3.6340    3.3700   -5.5630 hx        1 V38      0.096700
     45 H232        4.2320    1.7570   -6.2130 hx        1 V38      0.096700
     46 H233        4.9000    2.4210   -4.6440 hx        1 V38      0.096700
     47 H151        2.1160    0.5360   -6.1800 hx        1 V38      0.102700
     48 H152        0.8840    0.9860   -4.9020 hx        1 V38      0.102700
     49 H16         2.1080    2.7980   -7.1180 h1        1 V38      0.060700
     50 HA          0.4600    4.2380   -5.8970 ho        1 V38      0.446000
     51 H22        -1.2020    2.4530   -5.3190 ha        1 V38      0.136500
     52 H18         1.0360    1.7740   -8.9630 ha        1 V38      0.136500
     53 H21        -3.3070    1.8000   -6.4940 ha        1 V38      0.152500
     54 H20        -3.2360    1.1300   -8.8990 ha        1 V38      0.154000
     55 H19        -1.0620    1.1170  -10.1280 ha        1 V38      0.152500
@<TRIPOS>BOND
     1    1    2 2   
     2    2    3 1   
     3    2    9 1   
     4    3    4 ar  
     5    3    8 ar  
     6    4    5 ar  
     7    4   28 1   
     8    5    6 ar  
     9    5   30 1   
    10    6    7 ar  
    11    6   31 1   
    12    7    8 ar  
    13    7   32 1   
    14    8   29 1   
    15    9   10 1   
    16   10   11 1   
    17   10   16 1   
    18   10   33 1   
    19   11   12 1   
    20   11   34 1   
    21   11   35 1   
    22   12   13 1   
    23   12   17 1   
    24   12   38 1   
    25   13   14 1   
    26   13   39 1   
    27   13   40 1   
    28   14   15 1   
    29   14   41 1   
    30   14   42 1   
    31   15   16 1   
    32   15   17 1   
    33   15   43 1   
    34   16   36 1   
    35   16   37 1   
    36   17   18 1   
    37   17   19 1   
    38   18   44 1   
    39   18   45 1   
    40   18   46 1   
    41   19   20 1   
    42   19   47 1   
    43   19   48 1   
    44   20   21 1   
    45   20   22 1   
    46   20   49 1   
    47   21   50 1   
    48   22   23 ar  
    49   22   27 ar  
    50   23   24 ar  
    51   23   51 1   
    52   24   25 ar  
    53   24   53 1   
    54   25   26 ar  
    55   25   54 1   
    56   26   27 ar  
    57   26   55 1   
    58   27   52 1   
@<TRIPOS>SUBSTRUCTURE
     1 V38         1 TEMP              0 ****  ****    0 ROOT
