@<TRIPOS>MOLECULE
V38
   55    58     1     0     0
SMALL
bcc


@<TRIPOS>ATOM
      1 O2          2.2660    2.3200   -0.1600 o         1 V38     -0.533000
      2 C1          2.8920    1.3050    0.1530 c         1 V38      0.656700
      3 C2          4.3400    1.0920    0.2010 ca        1 V38     -0.152600
      4 C7          4.8910   -0.1290    0.6120 ca        1 V38     -0.068500
      5 C6          6.2750   -0.2850    0.6470 ca        1 V38     -0.140000
      6 C5          7.1090    0.7710    0.2750 ca        1 V38     -0.078000
      7 C4          6.5610    1.9870   -0.1340 ca        1 V38     -0.140000
      8 C3          5.1780    2.1540   -0.1720 ca        1 V38     -0.068500
      9 O1          2.1440    0.1950    0.5000 os        1 V38     -0.461900
     10 C8          0.7160    0.3610    0.5740 c3        1 V38      0.147100
     11 C12         0.1100    0.2500   -0.8270 c3        1 V38     -0.113400
     12 C11        -0.3000   -1.1680   -1.2220 c3        1 V38      0.149500
     13 C13         0.9470   -2.0830   -1.2290 c3        1 V38     -0.100400
     14 C14         1.0580   -2.6150    0.2020 c3        1 V38     -0.100400
     15 C10        -0.1590   -2.0170    0.9500 c3        1 V38      0.149500
     16 C9          0.2420   -0.6860    1.5870 c3        1 V38     -0.113400
     17 N          -1.2070   -1.7860   -0.1470 n4        1 V38     -0.609800
     18 C23        -1.7590   -3.0820   -0.6220 c3        1 V38      0.091100
     19 C15        -2.3270   -0.9160    0.3170 c3        1 V38      0.110800
     20 C16        -3.5290   -0.7930   -0.6500 c3        1 V38      0.195400
     21 O3         -3.0130   -0.5140   -1.9440 oh        1 V38     -0.629800
     22 C17        -4.4380    0.2790   -0.1340 ca        1 V38     -0.176300
     23 C22        -4.1190    1.6270   -0.3330 ca        1 V38     -0.112500
     24 C21        -4.9710    2.6230    0.1390 ca        1 V38     -0.118500
     25 C20        -6.1450    2.2770    0.8120 ca        1 V38     -0.095000
     26 C19        -6.4650    0.9330    1.0100 ca        1 V38     -0.118500
     27 C18        -5.6150   -0.0660    0.5370 ca        1 V38     -0.112500
     28 H7          4.2290   -0.9570    0.9070 ha        1 V38      0.150000
     29 H3          4.7340    3.1110   -0.4900 ha        1 V38      0.150000
     30 H6          6.7110   -1.2420    0.9720 ha        1 V38      0.150000
     31 H5          8.2030    0.6440    0.3060 ha        1 V38      0.150000
     32 H4          7.2200    2.8200   -0.4250 ha        1 V38      0.150000
     33 H8          0.4940    1.3930    0.9770 h1        1 V38      0.097700
     34 H121       -0.7690    0.9430   -0.9170 hc        1 V38      0.092700
     35 H122        0.8700    0.6080   -1.5760 hc        1 V38      0.092700
     36 H91C        1.0790   -0.8970    2.3100 hc        1 V38      0.092700
     37 H92C       -0.6080   -0.2630    2.1840 hc        1 V38      0.092700
     38 H11        -0.8550   -1.1630   -2.2010 hx        1 V38      0.117700
     39 H131        0.8310   -2.9110   -1.9710 hc        1 V38      0.088200
     40 H132        1.8530   -1.4880   -1.5070 hc        1 V38      0.088200
     41 H141        1.0380   -3.7310    0.2330 hc        1 V38      0.088200
     42 H142        2.0070   -2.2660    0.6840 hc        1 V38      0.088200
     43 H10        -0.5820   -2.7190    1.7160 hx        1 V38      0.117700
     44 H231       -2.4390   -3.5050    0.1630 hx        1 V38      0.096700
     45 H232       -2.3330   -2.9040   -1.5730 hx        1 V38      0.096700
     46 H233       -0.9290   -3.8090   -0.8250 hx        1 V38      0.096700
     47 H151       -2.7110   -1.3520    1.2840 hx        1 V38      0.102700
     48 H152       -1.9340    0.1200    0.5190 hx        1 V38      0.102700
     49 H16        -4.0790   -1.7780   -0.7020 h1        1 V38      0.060700
     50 HA         -3.6790   -0.0070   -2.4280 ho        1 V38      0.446000
     51 H22        -3.1960    1.8960   -0.8700 ha        1 V38      0.136500
     52 H18        -5.8800   -1.1240    0.6880 ha        1 V38      0.136500
     53 H21        -4.7210    3.6830   -0.0220 ha        1 V38      0.152500
     54 H20        -6.8190    3.0650    1.1830 ha        1 V38      0.154000
     55 H19        -7.3930    0.6600    1.5360 ha        1 V38      0.152500
@<TRIPOS>BOND
     1    1    2 2   
     2    2    3 1   
     3    2    9 1   
     4    3    4 ar  
     5    3    8 ar  
     6    4    5 ar  
     7    4   28 1   
     8    5    6 ar  
     9    5   30 1   
    10    6    7 ar  
    11    6   31 1   
    12    7    8 ar  
    13    7   32 1   
    14    8   29 1   
    15    9   10 1   
    16   10   11 1   
    17   10   16 1   
    18   10   33 1   
    19   11   12 1   
    20   11   34 1   
    21   11   35 1   
    22   12   13 1   
    23   12   17 1   
    24   12   38 1   
    25   13   14 1   
    26   13   39 1   
    27   13   40 1   
    28   14   15 1   
    29   14   41 1   
    30   14   42 1   
    31   15   16 1   
    32   15   17 1   
    33   15   43 1   
    34   16   36 1   
    35   16   37 1   
    36   17   18 1   
    37   17   19 1   
    38   18   44 1   
    39   18   45 1   
    40   18   46 1   
    41   19   20 1   
    42   19   47 1   
    43   19   48 1   
    44   20   21 1   
    45   20   22 1   
    46   20   49 1   
    47   21   50 1   
    48   22   23 ar  
    49   22   27 ar  
    50   23   24 ar  
    51   23   51 1   
    52   24   25 ar  
    53   24   53 1   
    54   25   26 ar  
    55   25   54 1   
    56   26   27 ar  
    57   26   55 1   
    58   27   52 1   
@<TRIPOS>SUBSTRUCTURE
     1 V38         1 TEMP              0 ****  ****    0 ROOT
