@<TRIPOS>MOLECULE
V38
   55    58     1     0     0
SMALL
bcc


@<TRIPOS>ATOM
      1 O2         -0.1340    0.5680   -0.2380 o         1 V38     -0.533000
      2 C1          1.0170    0.2100    0.0190 c         1 V38      0.656700
      3 C2          1.6100   -0.1310    1.3140 ca        1 V38     -0.152600
      4 C7          2.9420   -0.5500    1.4270 ca        1 V38     -0.068500
      5 C6          3.4620   -0.8710    2.6780 ca        1 V38     -0.140000
      6 C5          2.6590   -0.7740    3.8170 ca        1 V38     -0.078000
      7 C4          1.3320   -0.3570    3.7050 ca        1 V38     -0.140000
      8 C3          0.8020   -0.0350    2.4570 ca        1 V38     -0.068500
      9 O1          1.8950    0.1240   -1.0460 os        1 V38     -0.461900
     10 C8          1.3550    0.3460   -2.3620 c3        1 V38      0.147100
     11 C12         1.2720    1.8500   -2.6380 c3        1 V38     -0.113400
     12 C11         2.5200    2.4360   -3.2950 c3        1 V38      0.149500
     13 C13         3.7340    2.2480   -2.3550 c3        1 V38     -0.100400
     14 C14         4.3060    0.8750   -2.7150 c3        1 V38     -0.100400
     15 C10         3.4210    0.3610   -3.8760 c3        1 V38      0.149500
     16 C9          2.2590   -0.4530   -3.3060 c3        1 V38     -0.113400
     17 N           2.8960    1.6350   -4.5500 n4        1 V38     -0.609800
     18 C23         3.9870    2.3220   -5.2900 c3        1 V38      0.091100
     19 C15         1.7690    1.3550   -5.4870 c3        1 V38      0.110800
     20 C16         1.3100    2.5460   -6.3630 c3        1 V38      0.195400
     21 O3          1.1520    3.6710   -5.5100 oh        1 V38     -0.629800
     22 C17         0.0450    2.1530   -7.0620 ca        1 V38     -0.176300
     23 C22        -1.1730    2.1680   -6.3730 ca        1 V38     -0.112500
     24 C21        -2.3500    1.8130   -7.0280 ca        1 V38     -0.118500
     25 C20        -2.3150    1.4390   -8.3730 ca        1 V38     -0.095000
     26 C19        -1.1020    1.4240   -9.0620 ca        1 V38     -0.118500
     27 C18         0.0780    1.7810   -8.4100 ca        1 V38     -0.112500
     28 H7          3.5690   -0.6280    0.5260 ha        1 V38      0.150000
     29 H3         -0.2460    0.2920    2.3570 ha        1 V38      0.150000
     30 H6          4.5080   -1.2020    2.7700 ha        1 V38      0.150000
     31 H5          3.0740   -1.0290    4.8050 ha        1 V38      0.150000
     32 H4          0.6990   -0.2830    4.6030 ha        1 V38      0.150000
     33 H8          0.3100   -0.0820   -2.4000 h1        1 V38      0.097700
     34 H121        0.3680    2.0700   -3.2670 hc        1 V38      0.092700
     35 H122        1.1140    2.3850   -1.6610 hc        1 V38      0.092700
     36 H91C        1.6370   -0.8840   -4.1340 hc        1 V38      0.092700
     37 H92C        2.7010   -1.3190   -2.7400 hc        1 V38      0.092700
     38 H11         2.3470    3.5080   -3.5900 hx        1 V38      0.117700
     39 H131        3.3970    2.2760   -1.2890 hc        1 V38      0.088200
     40 H132        4.4850    3.0620   -2.5040 hc        1 V38      0.088200
     41 H141        4.2330    0.1730   -1.8440 hc        1 V38      0.088200
     42 H142        5.3770    0.9390   -3.0240 hc        1 V38      0.088200
     43 H10         4.0010   -0.2360   -4.6290 hx        1 V38      0.117700
     44 H231        4.9050    2.3990   -4.6500 hx        1 V38      0.096700
     45 H232        4.2300    1.7390   -6.2170 hx        1 V38      0.096700
     46 H233        3.6440    3.3560   -5.5670 hx        1 V38      0.096700
     47 H151        2.1070    0.5320   -6.1800 hx        1 V38      0.102700
     48 H152        0.8800    0.9900   -4.9010 hx        1 V38      0.102700
     49 H16         2.1110    2.7940   -7.1200 h1        1 V38      0.060700
     50 HA          0.4750    4.2450   -5.8960 ho        1 V38      0.446000
     51 H22        -1.1970    2.4700   -5.3140 ha        1 V38      0.136500
     52 H18         1.0300    1.7780   -8.9630 ha        1 V38      0.136500
     53 H21        -3.3080    1.8300   -6.4850 ha        1 V38      0.152500
     54 H20        -3.2470    1.1600   -8.8900 ha        1 V38      0.154000
     55 H19        -1.0750    1.1340  -10.1240 ha        1 V38      0.152500
@<TRIPOS>BOND
     1    1    2 2   
     2    2    3 1   
     3    2    9 1   
     4    3    4 ar  
     5    3    8 ar  
     6    4    5 ar  
     7    4   28 1   
     8    5    6 ar  
     9    5   30 1   
    10    6    7 ar  
    11    6   31 1   
    12    7    8 ar  
    13    7   32 1   
    14    8   29 1   
    15    9   10 1   
    16   10   11 1   
    17   10   16 1   
    18   10   33 1   
    19   11   12 1   
    20   11   34 1   
    21   11   35 1   
    22   12   13 1   
    23   12   17 1   
    24   12   38 1   
    25   13   14 1   
    26   13   39 1   
    27   13   40 1   
    28   14   15 1   
    29   14   41 1   
    30   14   42 1   
    31   15   16 1   
    32   15   17 1   
    33   15   43 1   
    34   16   36 1   
    35   16   37 1   
    36   17   18 1   
    37   17   19 1   
    38   18   44 1   
    39   18   45 1   
    40   18   46 1   
    41   19   20 1   
    42   19   47 1   
    43   19   48 1   
    44   20   21 1   
    45   20   22 1   
    46   20   49 1   
    47   21   50 1   
    48   22   23 ar  
    49   22   27 ar  
    50   23   24 ar  
    51   23   51 1   
    52   24   25 ar  
    53   24   53 1   
    54   25   26 ar  
    55   25   54 1   
    56   26   27 ar  
    57   26   55 1   
    58   27   52 1   
@<TRIPOS>SUBSTRUCTURE
     1 V38         1 TEMP              0 ****  ****    0 ROOT
