@<TRIPOS>MOLECULE
V38
   55    58     1     0     0
SMALL
bcc


@<TRIPOS>ATOM
      1 O2         -0.1350    0.5700   -0.2380 o         1 V38     -0.533000
      2 C1          1.0160    0.2120    0.0200 c         1 V38      0.656700
      3 C2          1.6090   -0.1290    1.3140 ca        1 V38     -0.152600
      4 C7          2.9410   -0.5490    1.4270 ca        1 V38     -0.068500
      5 C6          3.4610   -0.8690    2.6780 ca        1 V38     -0.140000
      6 C5          2.6580   -0.7710    3.8170 ca        1 V38     -0.078000
      7 C4          1.3320   -0.3530    3.7060 ca        1 V38     -0.140000
      8 C3          0.8020   -0.0320    2.4580 ca        1 V38     -0.068500
      9 O1          1.8930    0.1250   -1.0460 os        1 V38     -0.461900
     10 C8          1.3530    0.3470   -2.3620 c3        1 V38      0.147100
     11 C12         1.2700    1.8500   -2.6390 c3        1 V38     -0.113400
     12 C11         2.5190    2.4360   -3.2960 c3        1 V38      0.149500
     13 C13         3.7330    2.2480   -2.3570 c3        1 V38     -0.100400
     14 C14         4.3040    0.8740   -2.7160 c3        1 V38     -0.100400
     15 C10         3.4190    0.3600   -3.8760 c3        1 V38      0.149500
     16 C9          2.2570   -0.4540   -3.3060 c3        1 V38     -0.113400
     17 N           2.8940    1.6340   -4.5510 n4        1 V38     -0.609800
     18 C23         3.9860    2.3190   -5.2920 c3        1 V38      0.091100
     19 C15         1.7670    1.3540   -5.4880 c3        1 V38      0.110800
     20 C16         1.3090    2.5440   -6.3640 c3        1 V38      0.195400
     21 O3          1.1510    3.6700   -5.5120 oh        1 V38     -0.629800
     22 C17         0.0430    2.1510   -7.0630 ca        1 V38     -0.176300
     23 C22        -1.1750    2.1680   -6.3730 ca        1 V38     -0.112500
     24 C21        -2.3520    1.8130   -7.0280 ca        1 V38     -0.118500
     25 C20        -2.3180    1.4380   -8.3720 ca        1 V38     -0.095000
     26 C19        -1.1050    1.4220   -9.0620 ca        1 V38     -0.118500
     27 C18         0.0760    1.7790   -8.4100 ca        1 V38     -0.112500
     28 H7          3.5680   -0.6280    0.5260 ha        1 V38      0.150000
     29 H3         -0.2460    0.2970    2.3580 ha        1 V38      0.150000
     30 H6          4.5060   -1.2010    2.7690 ha        1 V38      0.150000
     31 H5          3.0740   -1.0260    4.8050 ha        1 V38      0.150000
     32 H4          0.6990   -0.2780    4.6040 ha        1 V38      0.150000
     33 H8          0.3080   -0.0810   -2.4000 h1        1 V38      0.097700
     34 H121        1.1130    2.3860   -1.6620 hc        1 V38      0.092700
     35 H122        0.3670    2.0710   -3.2680 hc        1 V38      0.092700
     36 H91C        2.6980   -1.3200   -2.7390 hc        1 V38      0.092700
     37 H92C        1.6340   -0.8850   -4.1330 hc        1 V38      0.092700
     38 H11         2.3460    3.5070   -3.5910 hx        1 V38      0.117700
     39 H131        3.3960    2.2750   -1.2900 hc        1 V38      0.088200
     40 H132        4.4850    3.0610   -2.5070 hc        1 V38      0.088200
     41 H141        5.3760    0.9370   -3.0260 hc        1 V38      0.088200
     42 H142        4.2310    0.1730   -1.8450 hc        1 V38      0.088200
     43 H10         3.9980   -0.2380   -4.6290 hx        1 V38      0.117700
     44 H231        3.6430    3.3540   -5.5690 hx        1 V38      0.096700
     45 H232        4.9040    2.3960   -4.6520 hx        1 V38      0.096700
     46 H233        4.2280    1.7360   -6.2190 hx        1 V38      0.096700
     47 H151        0.8780    0.9900   -4.9010 hx        1 V38      0.102700
     48 H152        2.1040    0.5300   -6.1810 hx        1 V38      0.102700
     49 H16         2.1100    2.7920   -7.1210 h1        1 V38      0.060700
     50 HA          0.4750    4.2440   -5.8980 ho        1 V38      0.446000
     51 H22        -1.1990    2.4710   -5.3140 ha        1 V38      0.136500
     52 H18         1.0280    1.7740   -8.9630 ha        1 V38      0.136500
     53 H21        -3.3100    1.8320   -6.4850 ha        1 V38      0.152500
     54 H20        -3.2490    1.1590   -8.8900 ha        1 V38      0.154000
     55 H19        -1.0780    1.1310  -10.1230 ha        1 V38      0.152500
@<TRIPOS>BOND
     1    1    2 2   
     2    2    3 1   
     3    2    9 1   
     4    3    4 ar  
     5    3    8 ar  
     6    4    5 ar  
     7    4   28 1   
     8    5    6 ar  
     9    5   30 1   
    10    6    7 ar  
    11    6   31 1   
    12    7    8 ar  
    13    7   32 1   
    14    8   29 1   
    15    9   10 1   
    16   10   11 1   
    17   10   16 1   
    18   10   33 1   
    19   11   12 1   
    20   11   34 1   
    21   11   35 1   
    22   12   13 1   
    23   12   17 1   
    24   12   38 1   
    25   13   14 1   
    26   13   39 1   
    27   13   40 1   
    28   14   15 1   
    29   14   41 1   
    30   14   42 1   
    31   15   16 1   
    32   15   17 1   
    33   15   43 1   
    34   16   36 1   
    35   16   37 1   
    36   17   18 1   
    37   17   19 1   
    38   18   44 1   
    39   18   45 1   
    40   18   46 1   
    41   19   20 1   
    42   19   47 1   
    43   19   48 1   
    44   20   21 1   
    45   20   22 1   
    46   20   49 1   
    47   21   50 1   
    48   22   23 ar  
    49   22   27 ar  
    50   23   24 ar  
    51   23   51 1   
    52   24   25 ar  
    53   24   53 1   
    54   25   26 ar  
    55   25   54 1   
    56   26   27 ar  
    57   26   55 1   
    58   27   52 1   
@<TRIPOS>SUBSTRUCTURE
     1 V38         1 TEMP              0 ****  ****    0 ROOT
