@<TRIPOS>MOLECULE
V4E
   46    47     1     0     0
SMALL
bcc


@<TRIPOS>ATOM
      1 C01         0.0000    0.0000    0.0000 c3        1 V4E      0.070200
      2 C02         1.5070    0.0000    0.0000 cc        1 V4E     -0.266600
      3 C03         2.2300    0.0000    1.1250 cd        1 V4E     -0.096400
      4 C04         1.6850   -0.0000    2.5290 c3        1 V4E      0.072900
      5 C05         1.5000   -1.4420    3.0060 c3        1 V4E      0.307400
      6 O06         0.9840   -1.4420    4.3370 os        1 V4E     -0.517200
      7 P07         0.6660   -2.7920    5.1550 p5        1 V4E      0.977800
      8 O08         1.8770   -3.6410    5.1930 o         1 V4E     -0.681000
      9 O09        -0.5280   -3.5910    4.4280 o         1 V4E     -0.681000
     10 O10         0.2250   -2.4180    6.6570 os        1 V4E     -0.499800
     11 P11         0.1750   -3.2340    8.0440 p5        1 V4E      1.097800
     12 O12        -1.0770   -4.2480    8.0260 o         1 V4E     -0.497500
     13 O13         1.4290   -4.0030    8.2100 o         1 V4E     -0.497500
     14 O14         0.0110   -2.2030    9.2690 os        1 V4E     -0.485800
     15 P15         0.2950   -2.2910   10.8520 p5        1 V4E      0.880900
     16 O16        -0.1230   -3.6180   11.3540 o         1 V4E     -0.482500
     17 O17         1.8680   -2.0840   11.1270 o         1 V4E     -0.482500
     18 O18        -0.5390   -1.1420   11.6110 o         1 V4E     -0.482500
     19 S19         3.9330   -0.0010    0.6730 ss        1 V4E     -0.372800
     20 C20         3.5040   -0.0010   -0.9820 cc        1 V4E     -0.615400
     21 N21         2.2190   -0.0060   -1.1080 na        1 V4E      0.595900
     22 C22         1.5820   -0.0130   -2.4260 c3        1 V4E      0.004600
     23 C23         1.2520    1.4000   -2.8320 ca        1 V4E     -0.443900
     24 C24         2.2060    2.2080   -3.4540 ca        1 V4E      0.477200
     25 N25         3.4780    1.7230   -3.7110 nv        1 V4E     -0.637500
     26 N26         1.8750    3.4490   -3.7960 nb        1 V4E     -0.632000
     27 C27         0.6650    3.9130   -3.5540 ca        1 V4E      0.454300
     28 C28         0.3280    5.3250   -3.9560 c3        1 V4E     -0.001400
     29 N29        -0.2580    3.1760   -2.9690 nb        1 V4E     -0.643000
     30 C30        -0.0040    1.9270   -2.6040 ca        1 V4E      0.411200
     31 H011       -0.3610   -0.4360    0.9230 hc        1 V4E      0.010033
     32 H012       -0.3610    1.0180   -0.0840 hc        1 V4E      0.010033
     33 H013       -0.3610   -0.5810   -0.8400 hc        1 V4E      0.010033
     34 H041        2.3780    0.5110    3.1850 hc        1 V4E      0.004700
     35 H042        0.7290    0.5100    2.5450 hc        1 V4E      0.004700
     36 H051        0.8060   -1.9530    2.3490 h1        1 V4E     -0.019800
     37 H052        2.4560   -1.9530    2.9890 h1        1 V4E     -0.019800
     38 H20         4.2080   -0.0030   -1.8050 h5        1 V4E      0.166000
     39 H221        0.6710   -0.5990   -2.3840 h1        1 V4E      0.018200
     40 H222        2.2580   -0.4490   -3.1520 h1        1 V4E      0.018200
     41 H30        -0.8150    1.2790   -2.2920 h4        1 V4E     -0.024900
     42 H251        3.6290    1.0930   -4.4740 hn        1 V4E      0.260300
     43 H252        4.2540    2.0440   -3.1670 hn        1 V4E      0.260300
     44 H281       -0.7180    5.5190   -3.7530 hc        1 V4E     -0.010300
     45 H282        0.9400    6.0180   -3.3910 hc        1 V4E     -0.010300
     46 H283        0.5200    5.4550   -5.0150 hc        1 V4E     -0.010300
@<TRIPOS>BOND
     1    1    2 1   
     2    1   31 1   
     3    1   32 1   
     4    1   33 1   
     5    2    3 2   
     6    2   21 1   
     7    3    4 1   
     8    3   19 1   
     9    4    5 1   
    10    4   34 1   
    11    4   35 1   
    12    5    6 1   
    13    5   36 1   
    14    5   37 1   
    15    6    7 1   
    16    7    8 1   
    17    7    9 1   
    18    7   10 1   
    19   10   11 1   
    20   11   12 1   
    21   11   13 1   
    22   11   14 1   
    23   14   15 1   
    24   15   16 1   
    25   15   17 1   
    26   15   18 1   
    27   19   20 1   
    28   20   21 2   
    29   20   38 1   
    30   21   22 1   
    31   22   23 1   
    32   22   39 1   
    33   22   40 1   
    34   23   24 ar  
    35   23   30 ar  
    36   24   25 1   
    37   24   26 ar  
    38   25   42 1   
    39   25   43 1   
    40   26   27 ar  
    41   27   28 1   
    42   27   29 ar  
    43   28   44 1   
    44   28   45 1   
    45   28   46 1   
    46   29   30 ar  
    47   30   41 1   
@<TRIPOS>SUBSTRUCTURE
     1 V4E         1 TEMP              0 ****  ****    0 ROOT
