@<TRIPOS>MOLECULE
V4Z
   48    50     1     0     0
SMALL
bcc


@<TRIPOS>ATOM
      1 C1          0.8330    2.1410   -0.0880 c3        1 V4Z     -0.119100
      2 C2          2.1330    1.3620   -0.0500 c3        1 V4Z      0.151100
      3 C3          2.3630    0.6990    1.2880 c3        1 V4Z     -0.119100
      4 O1          1.9510    0.3390   -1.0840 os        1 V4Z     -0.413100
      5 C4          3.0490   -0.2550   -1.5900 cc        1 V4Z      0.586600
      6 C5          2.9230   -1.2250   -2.6690 cc        1 V4Z     -0.187300
      7 C6          4.2580   -1.5920   -2.9360 cd        1 V4Z     -0.156700
      8 N1          4.7150   -2.5700   -3.9020 n4        1 V4Z     -0.578100
      9 C7          4.9900   -3.8900   -3.2740 ca        1 V4Z      0.515200
     10 N2          3.9470   -4.7700   -3.2010 nb        1 V4Z     -0.653000
     11 C8          4.2110   -5.9590   -2.5840 ca        1 V4Z      0.759900
     12 N3          3.0890   -6.9280   -2.4620 n4        1 V4Z     -0.749700
     13 C9          2.9110   -7.7910   -3.7140 c3        1 V4Z      0.128200
     14 C10         3.9990   -8.8470   -3.8180 c3        1 V4Z     -0.133100
     15 C11         1.5460   -8.4480   -3.6700 ca        1 V4Z      0.267600
     16 C12         0.8140   -8.5580   -4.8640 ca        1 V4Z     -0.162300
     17 C13        -0.4020   -9.2470   -4.8470 ca        1 V4Z     -0.125000
     18 C14        -0.8480   -9.7950   -3.6320 ca        1 V4Z      0.087600
     19 F1         -2.0040  -10.4700   -3.5500 f         1 V4Z     -0.077900
     20 C15        -0.0430   -9.6150   -2.4620 ca        1 V4Z      0.391200
     21 N4          1.1200   -8.9640   -2.4830 nb        1 V4Z     -0.674000
     22 N5          5.4270   -6.3440   -2.0460 nb        1 V4Z     -0.607000
     23 C16         6.4270   -5.4670   -2.1450 ca        1 V4Z      0.505200
     24 C17         6.2770   -4.1840   -2.7620 ca        1 V4Z     -0.163200
     25 CL1         7.5670   -3.1320   -2.8520 cl        1 V4Z      0.076600
     26 N6          5.0880   -0.9390   -1.9790 na        1 V4Z      0.022400
     27 N7          4.3730   -0.0910   -1.2450 nd        1 V4Z     -0.483800
     28 H11C       -0.0310    1.4810    0.1660 hc        1 V4Z      0.064533
     29 H12C        0.6650    2.5750   -1.1030 hc        1 V4Z      0.064533
     30 H13C        0.8910    2.9700    0.6590 hc        1 V4Z      0.064533
     31 H2          2.9980    2.0190   -0.3380 h1        1 V4Z      0.075700
     32 H31C        1.5400   -0.0200    1.5170 hc        1 V4Z      0.064533
     33 H32C        2.3830    1.4830    2.0850 hc        1 V4Z      0.064533
     34 H33C        3.3350    0.1510    1.3070 hc        1 V4Z      0.064533
     35 H5          1.9960   -1.5550   -3.1300 ha        1 V4Z      0.208000
     36 H1          5.5800   -2.2430   -4.3640 hn        1 V4Z      0.494800
     37 H6          6.0590   -0.7300   -2.1110 hn        1 V4Z      0.338700
     38 H3          3.2720   -7.5590   -1.6590 hn        1 V4Z      0.496300
     39 H9          2.9560   -7.0860   -4.5970 hx        1 V4Z      0.103700
     40 H101        3.9970   -9.5340   -2.9350 hc        1 V4Z      0.090033
     41 H102        5.0110   -8.3900   -3.9290 hc        1 V4Z      0.090033
     42 H103        3.7900   -9.4660   -4.7300 hc        1 V4Z      0.090033
     43 H12         1.1870   -8.1270   -5.8050 ha        1 V4Z      0.162000
     44 H13        -1.0010   -9.3650   -5.7660 ha        1 V4Z      0.193000
     45 H15        -0.3710  -10.0300   -1.4870 h4        1 V4Z      0.073100
     46 H16         7.4070   -5.7820   -1.7110 h4        1 V4Z      0.119100
     47 H121        3.9670   -2.6600   -4.6160 hn        1 V4Z      0.494800
     48 H32         2.2110   -6.4180   -2.2830 hn        1 V4Z      0.496300
@<TRIPOS>BOND
     1    1    2 1   
     2    1   28 1   
     3    1   29 1   
     4    1   30 1   
     5    2    3 1   
     6    2    4 1   
     7    2   31 1   
     8    3   32 1   
     9    3   33 1   
    10    3   34 1   
    11    4    5 1   
    12    5    6 1   
    13    5   27 2   
    14    6    7 2   
    15    6   35 1   
    16    7    8 1   
    17    7   26 1   
    18    8    9 1   
    19    8   36 1   
    20    8   47 1   
    21    9   10 ar  
    22    9   24 ar  
    23   10   11 ar  
    24   11   12 1   
    25   11   22 ar  
    26   12   13 1   
    27   12   38 1   
    28   12   48 1   
    29   13   14 1   
    30   13   15 1   
    31   13   39 1   
    32   14   40 1   
    33   14   41 1   
    34   14   42 1   
    35   15   16 ar  
    36   15   21 ar  
    37   16   17 ar  
    38   16   43 1   
    39   17   18 ar  
    40   17   44 1   
    41   18   19 1   
    42   18   20 ar  
    43   20   21 ar  
    44   20   45 1   
    45   22   23 ar  
    46   23   24 ar  
    47   23   46 1   
    48   24   25 1   
    49   26   27 1   
    50   26   37 1   
@<TRIPOS>SUBSTRUCTURE
     1 V4Z         1 TEMP              0 ****  ****    0 ROOT
