@<TRIPOS>MOLECULE
V4Z
   46    48     1     0     0
SMALL
bcc


@<TRIPOS>ATOM
      1 C1          0.2080    0.0530    0.7300 c3        1 V4Z     -0.110600
      2 C2          1.5400    0.4340    0.1070 c3        1 V4Z      0.144100
      3 C3          2.3510    1.3230    1.0270 c3        1 V4Z     -0.110600
      4 O1          2.2200   -0.8290   -0.0920 os        1 V4Z     -0.426100
      5 C4          3.2410   -0.8470   -0.9970 cc        1 V4Z      0.551600
      6 C5          3.9670   -2.0860   -1.2440 cc        1 V4Z     -0.261300
      7 C6          4.9080   -1.7340   -2.2260 cd        1 V4Z      0.099300
      8 N1          5.9080   -2.5040   -2.8210 nu        1 V4Z     -0.700300
      9 C7          5.6590   -3.7740   -3.3630 ca        1 V4Z      0.727200
     10 N2          4.4960   -4.4260   -3.0780 nb        1 V4Z     -0.783000
     11 C8          4.3410   -5.7060   -3.5920 ca        1 V4Z      0.907900
     12 N3          3.0880   -6.2970   -3.3930 nu        1 V4Z     -0.818900
     13 C9          2.9150   -7.7330   -3.5320 c3        1 V4Z      0.178200
     14 C10         3.5370   -8.5610   -2.4050 c3        1 V4Z     -0.122100
     15 C11         1.4300   -8.0790   -3.6300 ca        1 V4Z      0.379600
     16 C12         0.9770   -8.7580   -4.7790 ca        1 V4Z     -0.204300
     17 C13        -0.3680   -9.1120   -4.8770 ca        1 V4Z     -0.130000
     18 C14        -1.2270   -8.7680   -3.8190 ca        1 V4Z      0.012600
     19 F1         -2.5390   -9.0820   -3.8540 f         1 V4Z     -0.127900
     20 C15        -0.6860   -8.0750   -2.7010 ca        1 V4Z      0.373200
     21 N4          0.6070   -7.7400   -2.6080 nb        1 V4Z     -0.644000
     22 N5          5.3060   -6.3840   -4.3370 nb        1 V4Z     -0.766000
     23 C16         6.4300   -5.7100   -4.5990 ca        1 V4Z      0.501200
     24 C17         6.6780   -4.3990   -4.1580 ca        1 V4Z     -0.342200
     25 Cl1         8.1270   -3.6260   -4.5530 cl        1 V4Z     -0.074400
     26 N6          4.6410   -0.3640   -2.5850 na        1 V4Z     -0.025600
     27 N7          3.7190    0.1730   -1.7680 nd        1 V4Z     -0.593800
     28 H11C       -0.3870    0.9780    0.9120 hc        1 V4Z      0.048033
     29 H12C       -0.3580   -0.6230    0.0470 hc        1 V4Z      0.048033
     30 H13C        0.3690   -0.4760    1.7000 hc        1 V4Z      0.048033
     31 H2          1.3720    0.9350   -0.8850 h1        1 V4Z      0.065700
     32 H31C        1.7730    2.2520    1.2510 hc        1 V4Z      0.048033
     33 H32C        3.3180    1.6080    0.5490 hc        1 V4Z      0.048033
     34 H33C        2.5700    0.7930    1.9850 hc        1 V4Z      0.048033
     35 H5          3.7860   -3.0460   -0.7790 ha        1 V4Z      0.190000
     36 H1          6.6510   -2.0030   -3.2640 hn        1 V4Z      0.444800
     37 H6          5.3670    0.2540   -2.8830 hn        1 V4Z      0.290700
     38 H3          2.5140   -5.8630   -2.6970 hn        1 V4Z      0.449800
     39 H9          3.3960   -8.0470   -4.5090 h1        1 V4Z      0.089700
     40 H101        4.6450   -8.4240   -2.3930 hc        1 V4Z      0.052367
     41 H102        3.3130   -9.6410   -2.5790 hc        1 V4Z      0.052367
     42 H103        3.1260   -8.2680   -1.4100 hc        1 V4Z      0.052367
     43 H12         1.6740   -9.0030   -5.5930 ha        1 V4Z      0.154000
     44 H13        -0.7560   -9.6430   -5.7580 ha        1 V4Z      0.157000
     45 H15        -1.3350   -7.7850   -1.8550 h4        1 V4Z      0.040100
     46 H16         7.1850   -6.2550   -5.2000 h4        1 V4Z      0.038100
@<TRIPOS>BOND
     1    1    2 1   
     2    1   28 1   
     3    1   29 1   
     4    1   30 1   
     5    2    3 1   
     6    2    4 1   
     7    2   31 1   
     8    3   32 1   
     9    3   33 1   
    10    3   34 1   
    11    4    5 1   
    12    5    6 1   
    13    5   27 2   
    14    6    7 2   
    15    6   35 1   
    16    7    8 1   
    17    7   26 1   
    18    8    9 1   
    19    8   36 1   
    20    9   10 ar  
    21    9   24 ar  
    22   10   11 ar  
    23   11   12 1   
    24   11   22 ar  
    25   12   13 1   
    26   12   38 1   
    27   13   14 1   
    28   13   15 1   
    29   13   39 1   
    30   14   40 1   
    31   14   41 1   
    32   14   42 1   
    33   15   16 ar  
    34   15   21 ar  
    35   16   17 ar  
    36   16   43 1   
    37   17   18 ar  
    38   17   44 1   
    39   18   19 1   
    40   18   20 ar  
    41   20   21 ar  
    42   20   45 1   
    43   22   23 ar  
    44   23   24 ar  
    45   23   46 1   
    46   24   25 1   
    47   26   27 1   
    48   26   37 1   
@<TRIPOS>SUBSTRUCTURE
     1 V4Z         1 TEMP              0 ****  ****    0 ROOT
