@<TRIPOS>MOLECULE
V4Z
   46    48     1     0     0
SMALL
bcc


@<TRIPOS>ATOM
      1 C1          3.2370    5.8710   -0.7940 c3        1 V4Z     -0.111100
      2 C2          3.6650    4.6450   -0.0060 c3        1 V4Z      0.145100
      3 C3          3.4000    4.8150    1.4760 c3        1 V4Z     -0.111100
      4 O1          2.8520    3.5720   -0.5390 os        1 V4Z     -0.426100
      5 C4          3.2780    2.2970   -0.3050 cc        1 V4Z      0.551600
      6 C5          2.4790    1.1710   -0.7690 cc        1 V4Z     -0.260300
      7 C6          3.2210    0.0460   -0.3730 cd        1 V4Z      0.098300
      8 N1          2.9700   -1.3100   -0.5860 nh        1 V4Z     -0.699300
      9 C7          1.7250   -1.8980   -0.3190 ca        1 V4Z      0.728200
     10 N2          0.6320   -1.1170   -0.0900 nb        1 V4Z     -0.783000
     11 C8         -0.5870   -1.7600    0.0760 ca        1 V4Z      0.906900
     12 N3         -1.7100   -0.9280    0.1710 nh        1 V4Z     -0.816900
     13 C9         -2.9580   -1.4300    0.7180 c3        1 V4Z      0.177200
     14 C10        -2.9450   -1.6550    2.2320 c3        1 V4Z     -0.122100
     15 C11        -4.1040   -0.4780    0.3760 ca        1 V4Z      0.380600
     16 C12        -5.1960   -0.9840   -0.3590 ca        1 V4Z     -0.204300
     17 C13        -6.2670   -0.1430   -0.6560 ca        1 V4Z     -0.130000
     18 C14        -6.2120    1.1900   -0.2120 ca        1 V4Z      0.012600
     19 F1         -7.2170    2.0540   -0.4690 f         1 V4Z     -0.127900
     20 C15        -5.0680    1.6180    0.5150 ca        1 V4Z      0.373200
     21 N4         -4.0420    0.8070    0.8030 nb        1 V4Z     -0.644000
     22 N5         -0.7590   -3.1440    0.0840 nb        1 V4Z     -0.766000
     23 C16         0.3390   -3.8760   -0.1300 ca        1 V4Z      0.500200
     24 C17         1.6160   -3.3290   -0.3410 ca        1 V4Z     -0.342200
     25 CL1         2.9450   -4.3400   -0.6030 cl        1 V4Z     -0.074400
     26 N6          4.3480    0.5360    0.3820 na        1 V4Z     -0.026600
     27 N7          4.4170    1.8770    0.3180 nd        1 V4Z     -0.594800
     28 H11C        3.8240    6.7530   -0.4450 hc        1 V4Z      0.048367
     29 H12C        3.4190    5.7130   -1.8830 hc        1 V4Z      0.048367
     30 H13C        2.1490    6.0720   -0.6420 hc        1 V4Z      0.048367
     31 H2          4.7510    4.4270   -0.1930 h1        1 V4Z      0.063700
     32 H31C        3.9640    5.7000    1.8560 hc        1 V4Z      0.048367
     33 H32C        2.3100    4.9740    1.6590 hc        1 V4Z      0.048367
     34 H33C        3.7260    3.9100    2.0410 hc        1 V4Z      0.048367
     35 H5          1.5260    1.2200   -1.2820 ha        1 V4Z      0.192000
     36 H1          3.7510   -1.9270   -0.4930 hn        1 V4Z      0.444800
     37 H6          5.2250    0.0580    0.3860 hn        1 V4Z      0.289700
     38 H3         -1.5140    0.0340    0.3690 hn        1 V4Z      0.448800
     39 H9         -3.1850   -2.4190    0.2150 h1        1 V4Z      0.089700
     40 H101       -2.6880   -0.7170    2.7800 hc        1 V4Z      0.052367
     41 H102       -3.9560   -1.9940    2.5590 hc        1 V4Z      0.052367
     42 H103       -2.2000   -2.4440    2.4960 hc        1 V4Z      0.052367
     43 H12        -5.2020   -2.0300   -0.6980 ha        1 V4Z      0.154000
     44 H13        -7.1350   -0.5040   -1.2250 ha        1 V4Z      0.157000
     45 H15        -4.9900    2.6600    0.8730 h4        1 V4Z      0.040100
     46 H16         0.1900   -4.9740   -0.1270 h4        1 V4Z      0.038100
@<TRIPOS>BOND
     1    1    2 1   
     2    1   28 1   
     3    1   29 1   
     4    1   30 1   
     5    2    3 1   
     6    2    4 1   
     7    2   31 1   
     8    3   32 1   
     9    3   33 1   
    10    3   34 1   
    11    4    5 1   
    12    5    6 1   
    13    5   27 2   
    14    6    7 2   
    15    6   35 1   
    16    7    8 1   
    17    7   26 1   
    18    8    9 1   
    19    8   36 1   
    20    9   10 ar  
    21    9   24 ar  
    22   10   11 ar  
    23   11   12 1   
    24   11   22 ar  
    25   12   13 1   
    26   12   38 1   
    27   13   14 1   
    28   13   15 1   
    29   13   39 1   
    30   14   40 1   
    31   14   41 1   
    32   14   42 1   
    33   15   16 ar  
    34   15   21 ar  
    35   16   17 ar  
    36   16   43 1   
    37   17   18 ar  
    38   17   44 1   
    39   18   19 1   
    40   18   20 ar  
    41   20   21 ar  
    42   20   45 1   
    43   22   23 ar  
    44   23   24 ar  
    45   23   46 1   
    46   24   25 1   
    47   26   27 1   
    48   26   37 1   
@<TRIPOS>SUBSTRUCTURE
     1 V4Z         1 TEMP              0 ****  ****    0 ROOT
