@<TRIPOS>MOLECULE
V4Z
   46    48     1     0     0
SMALL
bcc


@<TRIPOS>ATOM
      1 C1          0.2450    0.9790    0.0210 c3        1 V4Z     -0.111100
      2 C2          1.6920    0.5320    0.1270 c3        1 V4Z      0.145100
      3 C3          1.9550   -0.1980    1.4280 c3        1 V4Z     -0.111100
      4 O1          1.8760   -0.3650   -0.9950 os        1 V4Z     -0.426100
      5 C4          3.1600   -0.6170   -1.3820 cc        1 V4Z      0.551600
      6 C5          3.4170   -1.5510   -2.4710 cc        1 V4Z     -0.260300
      7 C6          4.8150   -1.5450   -2.5970 cd        1 V4Z      0.098300
      8 N1          5.6330   -2.2160   -3.5060 nh        1 V4Z     -0.699300
      9 C7          5.5040   -3.5880   -3.7680 ca        1 V4Z      0.728200
     10 N2          4.4020   -4.2670   -3.3420 nb        1 V4Z     -0.783000
     11 C8          4.2930   -5.6000   -3.7130 ca        1 V4Z      0.906900
     12 N3          3.0880   -6.2310   -3.3790 nh        1 V4Z     -0.816900
     13 C9          2.9920   -7.6800   -3.3600 c3        1 V4Z      0.177200
     14 C10         3.7160   -8.3510   -2.1910 c3        1 V4Z     -0.122100
     15 C11         1.5260   -8.1120   -3.3390 ca        1 V4Z      0.380600
     16 C12         1.0560   -8.9330   -4.3840 ca        1 V4Z     -0.204300
     17 C13        -0.2690   -9.3650   -4.3700 ca        1 V4Z     -0.130000
     18 C14        -1.0930   -8.9550   -3.3070 ca        1 V4Z      0.012600
     19 F1         -2.3850   -9.3390   -3.2370 f         1 V4Z     -0.127900
     20 C15        -0.5380   -8.1190   -2.3000 ca        1 V4Z      0.373200
     21 N4          0.7360   -7.7090   -2.3130 nb        1 V4Z     -0.644000
     22 N5          5.2550   -6.3030   -4.4380 nb        1 V4Z     -0.766000
     23 C16         6.3270   -5.6060   -4.8250 ca        1 V4Z      0.500200
     24 C17         6.5260   -4.2460   -4.5320 ca        1 V4Z     -0.342200
     25 CL1         7.9170   -3.4510   -5.0680 cl        1 V4Z     -0.074400
     26 N6          5.3240   -0.7090   -1.5370 na        1 V4Z     -0.026600
     27 N7          4.3190   -0.0860   -0.8970 nd        1 V4Z     -0.594800
     28 H11C        0.0180    1.6840    0.8550 hc        1 V4Z      0.048367
     29 H12C        0.0700    1.4920   -0.9550 hc        1 V4Z      0.048367
     30 H13C       -0.4400    0.1010    0.0860 hc        1 V4Z      0.048367
     31 H2          2.3770    1.4170    0.0220 h1        1 V4Z      0.063700
     32 H31C        3.0240   -0.5130    1.4940 hc        1 V4Z      0.048367
     33 H32C        1.7250    0.4770    2.2870 hc        1 V4Z      0.048367
     34 H33C        1.3120   -1.1070    1.5000 hc        1 V4Z      0.048367
     35 H5          2.6790   -2.1200   -3.0240 ha        1 V4Z      0.192000
     36 H1          6.5580   -1.8540   -3.6240 hn        1 V4Z      0.444800
     37 H6          6.1630   -0.1780   -1.6440 hn        1 V4Z      0.289700
     38 H3          2.5330   -5.7590   -2.6920 hn        1 V4Z      0.448800
     39 H9          3.4400   -8.0710   -4.3250 h1        1 V4Z      0.089700
     40 H101        4.8130   -8.1550   -2.2550 hc        1 V4Z      0.052367
     41 H102        3.5460   -9.4530   -2.2390 hc        1 V4Z      0.052367
     42 H103        3.3390   -7.9740   -1.2100 hc        1 V4Z      0.052367
     43 H12         1.7260   -9.2270   -5.2050 ha        1 V4Z      0.154000
     44 H13        -0.6680  -10.0070   -5.1680 ha        1 V4Z      0.157000
     45 H15        -1.1600   -7.7740   -1.4540 h4        1 V4Z      0.040100
     46 H16         7.0820   -6.1730   -5.4040 h4        1 V4Z      0.038100
@<TRIPOS>BOND
     1    1    2 1   
     2    1   28 1   
     3    1   29 1   
     4    1   30 1   
     5    2    3 1   
     6    2    4 1   
     7    2   31 1   
     8    3   32 1   
     9    3   33 1   
    10    3   34 1   
    11    4    5 1   
    12    5    6 1   
    13    5   27 2   
    14    6    7 2   
    15    6   35 1   
    16    7    8 1   
    17    7   26 1   
    18    8    9 1   
    19    8   36 1   
    20    9   10 ar  
    21    9   24 ar  
    22   10   11 ar  
    23   11   12 1   
    24   11   22 ar  
    25   12   13 1   
    26   12   38 1   
    27   13   14 1   
    28   13   15 1   
    29   13   39 1   
    30   14   40 1   
    31   14   41 1   
    32   14   42 1   
    33   15   16 ar  
    34   15   21 ar  
    35   16   17 ar  
    36   16   43 1   
    37   17   18 ar  
    38   17   44 1   
    39   18   19 1   
    40   18   20 ar  
    41   20   21 ar  
    42   20   45 1   
    43   22   23 ar  
    44   23   24 ar  
    45   23   46 1   
    46   24   25 1   
    47   26   27 1   
    48   26   37 1   
@<TRIPOS>SUBSTRUCTURE
     1 V4Z         1 TEMP              0 ****  ****    0 ROOT
