@<TRIPOS>MOLECULE
V50
   33    34     1     0     0
SMALL
bcc


@<TRIPOS>ATOM
      1 F13         0.5550   -0.9220   -0.0520 f         1 V50     -0.089900
      2 C4          1.8290   -0.6300    0.2970 ca        1 V50      0.258400
      3 C5          2.0430    0.3800    1.2860 ca        1 V50     -0.632500
      4 S7          0.8590    1.3320    1.8070 sy        1 V50      1.500200
      5 O9         -0.0650    1.7050    0.8590 o         1 V50     -0.555300
      6 N23        -0.1580   -0.0130    2.7230 n4        1 V50     -0.785500
      7 O8          1.1820    2.1600    2.8560 o         1 V50     -0.555300
      8 C6          3.4030    0.5340    1.6990 ca        1 V50      0.258400
      9 F11         3.6970    1.4030    2.6840 f         1 V50     -0.089900
     10 C1          4.4540   -0.1790    1.1010 ca        1 V50      0.050400
     11 F10         5.7130    0.0480    1.5480 f         1 V50     -0.088900
     12 C3          2.8700   -1.3450   -0.3080 ca        1 V50      0.050400
     13 F12         2.5450   -2.2730   -1.2370 f         1 V50     -0.088900
     14 C2          4.2380   -1.1230    0.0440 ca        1 V50     -0.002100
     15 S14         5.5830   -1.8070   -0.5860 ss        1 V50      0.213800
     16 C15         5.1030   -2.8690   -1.8800 ca        1 V50      0.604300
     17 N20         4.9850   -4.1880   -1.5640 nb        1 V50     -0.650500
     18 C19         4.7550   -5.0360   -2.6020 ca        1 V50      0.454600
     19 C21         4.6440   -6.5010   -2.3430 c3        1 V50     -0.163400
     20 C18         4.6310   -4.5490   -3.9240 ca        1 V50     -0.308600
     21 C17         4.7460   -3.1570   -4.1440 ca        1 V50      0.454600
     22 N16         4.9790   -2.3030   -3.1120 nb        1 V50     -0.650500
     23 C22         4.6210   -2.6150   -5.5300 c3        1 V50     -0.163400
     24 H1          0.2460   -0.9390    2.6160 hn        1 V50      0.456800
     25 H2         -1.1070   -0.0450    2.3540 hn        1 V50      0.456800
     26 H3          3.9920   -6.7080   -1.4580 hc        1 V50      0.072867
     27 H4          4.2150   -7.0190   -3.2360 hc        1 V50      0.072867
     28 H5          5.6600   -6.9240   -2.1350 hc        1 V50      0.072867
     29 H6          4.4480   -5.2370   -4.7610 ha        1 V50      0.174000
     30 H7          4.2640   -3.4140   -6.2250 hc        1 V50      0.072867
     31 H8          5.6170   -2.2460   -5.8850 hc        1 V50      0.072867
     32 H9          3.9000   -1.7600   -5.5620 hc        1 V50      0.072867
     33 H233       -0.2140    0.1940    3.7190 hn        1 V50      0.456800
@<TRIPOS>BOND
     1    1    2 1   
     2    2    3 ar  
     3    2   12 ar  
     4    3    4 1   
     5    3    8 ar  
     6    4    5 2   
     7    4    6 1   
     8    4    7 2   
     9    6   24 1   
    10    6   25 1   
    11    6   33 1   
    12    8    9 1   
    13    8   10 ar  
    14   10   11 1   
    15   10   14 ar  
    16   12   13 1   
    17   12   14 ar  
    18   14   15 1   
    19   15   16 1   
    20   16   17 ar  
    21   16   22 ar  
    22   17   18 ar  
    23   18   19 1   
    24   18   20 ar  
    25   19   26 1   
    26   19   27 1   
    27   19   28 1   
    28   20   21 ar  
    29   20   29 1   
    30   21   22 ar  
    31   21   23 1   
    32   23   30 1   
    33   23   31 1   
    34   23   32 1   
@<TRIPOS>SUBSTRUCTURE
     1 V50         1 TEMP              0 ****  ****    0 ROOT
