@<TRIPOS>MOLECULE
V50
   33    34     1     0     0
SMALL
bcc


@<TRIPOS>ATOM
      1 F13         0.5700   -0.9690    0.0430 f         1 V50     -0.089900
      2 C4          1.8500   -0.6460    0.3380 ca        1 V50      0.258400
      3 C5          2.0800    0.3810    1.3070 ca        1 V50     -0.632500
      4 S7          0.8980    1.3140    1.8640 sy        1 V50      1.500200
      5 O9         -0.0710    1.6550    0.9490 o         1 V50     -0.555300
      6 N23        -0.0520   -0.0420    2.8340 nz        1 V50     -0.785500
      7 O8          1.2440    2.1610    2.8890 o         1 V50     -0.555300
      8 C6          3.4530    0.5680    1.6630 ca        1 V50      0.258400
      9 F11         3.7670    1.4560    2.6250 f         1 V50     -0.089900
     10 C1          4.4940   -0.1300    1.0320 ca        1 V50      0.050400
     11 F10         5.7650    0.1290    1.4250 f         1 V50     -0.088900
     12 C3          2.8810   -1.3450   -0.3000 ca        1 V50      0.050400
     13 F12         2.5400   -2.2920   -1.2050 f         1 V50     -0.088900
     14 C2          4.2570   -1.0910   -0.0050 ca        1 V50     -0.002100
     15 S14         5.5910   -1.7540   -0.6800 ss        1 V50      0.213800
     16 C15         5.0820   -2.8420   -1.9420 ca        1 V50      0.604300
     17 N20         5.0060   -4.1590   -1.6060 nb        1 V50     -0.650500
     18 C19         4.7530   -5.0240   -2.6250 ca        1 V50      0.454600
     19 C21         4.6830   -6.4880   -2.3440 c3        1 V50     -0.163400
     20 C18         4.5660   -4.5560   -3.9460 ca        1 V50     -0.308600
     21 C17         4.6430   -3.1650   -4.1870 ca        1 V50      0.454600
     22 N16         4.8990   -2.2940   -3.1750 nb        1 V50     -0.650500
     23 C22         4.4520   -2.6430   -5.5730 c3        1 V50     -0.163400
     24 H1         -0.0730    0.1760    3.8290 hn        1 V50      0.456800
     25 H2          0.3670   -0.9600    2.7210 hn        1 V50      0.456800
     26 H3          4.0670   -6.6970   -1.4350 hc        1 V50      0.072867
     27 H4          4.2350   -7.0260   -3.2150 hc        1 V50      0.072867
     28 H5          5.7150   -6.8860   -2.1670 hc        1 V50      0.072867
     29 H6          4.3650   -5.2580   -4.7670 ha        1 V50      0.174000
     30 H7          4.0840   -3.4580   -6.2440 hc        1 V50      0.072867
     31 H8          5.4250   -2.2600   -5.9720 hc        1 V50      0.072867
     32 H9          3.7130   -1.8030   -5.5870 hc        1 V50      0.072867
     33 H233       -1.0150   -0.0990    2.5040 hn        1 V50      0.456800
@<TRIPOS>BOND
     1    1    2 1   
     2    2    3 ar  
     3    2   12 ar  
     4    3    4 1   
     5    3    8 ar  
     6    4    5 2   
     7    4    6 1   
     8    4    7 2   
     9    6   24 1   
    10    6   25 1   
    11    6   33 1   
    12    8    9 1   
    13    8   10 ar  
    14   10   11 1   
    15   10   14 ar  
    16   12   13 1   
    17   12   14 ar  
    18   14   15 1   
    19   15   16 1   
    20   16   17 ar  
    21   16   22 ar  
    22   17   18 ar  
    23   18   19 1   
    24   18   20 ar  
    25   19   26 1   
    26   19   27 1   
    27   19   28 1   
    28   20   21 ar  
    29   20   29 1   
    30   21   22 ar  
    31   21   23 1   
    32   23   30 1   
    33   23   31 1   
    34   23   32 1   
@<TRIPOS>SUBSTRUCTURE
     1 V50         1 TEMP              0 ****  ****    0 ROOT
