@<TRIPOS>MOLECULE
V50
   33    34     1     0     0
SMALL
bcc


@<TRIPOS>ATOM
      1 F13         0.5640   -0.9700    0.0290 f         1 V50     -0.089900
      2 C4          1.8430   -0.6440    0.3270 ca        1 V50      0.258400
      3 C5          2.0680    0.3870    1.2930 ca        1 V50     -0.632500
      4 S7          0.8820    1.3200    1.8430 sy        1 V50      1.500200
      5 O9         -0.0840    1.6560    0.9240 o         1 V50     -0.555300
      6 N23        -0.0690   -0.0350    2.8150 n4        1 V50     -0.785500
      7 O8          1.2230    2.1710    2.8670 o         1 V50     -0.555300
      8 C6          3.4390    0.5780    1.6540 ca        1 V50      0.258400
      9 F11         3.7480    1.4700    2.6140 f         1 V50     -0.089900
     10 C1          4.4840   -0.1200    1.0300 ca        1 V50      0.050400
     11 F10         5.7530    0.1420    1.4270 f         1 V50     -0.088900
     12 C3          2.8780   -1.3440   -0.3040 ca        1 V50      0.050400
     13 F12         2.5420   -2.2940   -1.2070 f         1 V50     -0.088900
     14 C2          4.2530   -1.0860   -0.0050 ca        1 V50     -0.002100
     15 S14         5.5900   -1.7490   -0.6730 ss        1 V50      0.213800
     16 C15         5.0880   -2.8420   -1.9320 ca        1 V50      0.604300
     17 N20         5.0120   -4.1580   -1.5920 nb        1 V50     -0.650500
     18 C19         4.7640   -5.0270   -2.6080 ca        1 V50      0.454600
     19 C21         4.6950   -6.4910   -2.3230 c3        1 V50     -0.163400
     20 C18         4.5820   -4.5640   -3.9320 ca        1 V50     -0.307600
     21 C17         4.6570   -3.1740   -4.1780 ca        1 V50      0.454600
     22 N16         4.9070   -2.2990   -3.1670 nb        1 V50     -0.650500
     23 C22         4.4700   -2.6580   -5.5660 c3        1 V50     -0.163400
     24 H1         -0.0950    0.1870    3.8080 hn        1 V50      0.456800
     25 H2         -1.0300   -0.0940    2.4810 hn        1 V50      0.456800
     26 H3          5.7260   -6.8850   -2.1290 hc        1 V50      0.072867
     27 H4          4.0670   -6.6980   -1.4210 hc        1 V50      0.072867
     28 H5          4.2610   -7.0340   -3.1980 hc        1 V50      0.072867
     29 H6          4.3850   -5.2700   -4.7520 ha        1 V50      0.174000
     30 H7          4.1040   -3.4750   -6.2350 hc        1 V50      0.072867
     31 H8          3.7320   -1.8180   -5.5850 hc        1 V50      0.072867
     32 H9          5.4450   -2.2750   -5.9630 hc        1 V50      0.072867
     33 H233        0.3520   -0.9520    2.7070 hn        1 V50      0.456800
@<TRIPOS>BOND
     1    1    2 1   
     2    2    3 ar  
     3    2   12 ar  
     4    3    4 1   
     5    3    8 ar  
     6    4    5 2   
     7    4    6 1   
     8    4    7 2   
     9    6   24 1   
    10    6   25 1   
    11    6   33 1   
    12    8    9 1   
    13    8   10 ar  
    14   10   11 1   
    15   10   14 ar  
    16   12   13 1   
    17   12   14 ar  
    18   14   15 1   
    19   15   16 1   
    20   16   17 ar  
    21   16   22 ar  
    22   17   18 ar  
    23   18   19 1   
    24   18   20 ar  
    25   19   26 1   
    26   19   27 1   
    27   19   28 1   
    28   20   21 ar  
    29   20   29 1   
    30   21   22 ar  
    31   21   23 1   
    32   23   30 1   
    33   23   31 1   
    34   23   32 1   
@<TRIPOS>SUBSTRUCTURE
     1 V50         1 TEMP              0 ****  ****    0 ROOT
