@<TRIPOS>MOLECULE
V50
   32    33     1     0     0
SMALL
bcc


@<TRIPOS>ATOM
      1 F13         2.0050    0.7510   -2.0590 f         1 V50     -0.100400
      2 C4          1.5990    0.0840   -0.9530 ca        1 V50      0.189900
      3 C5          2.5110   -0.1950    0.0820 ca        1 V50     -0.347500
      4 S7          4.1930    0.2490   -0.0530 sy        1 V50      1.522200
      5 O9          4.7000   -0.4260   -1.1700 o         1 V50     -0.633300
      6 N23         4.1050    1.8130   -0.3300 n3        1 V50     -1.027700
      7 O8          4.8000    0.0160    1.1900 o         1 V50     -0.633300
      8 C6          2.0120   -0.8800    1.2030 ca        1 V50      0.189900
      9 F11         2.8140   -1.1870    2.2440 f         1 V50     -0.100400
     10 C1          0.6430   -1.2690    1.2900 ca        1 V50      0.128900
     11 F10         0.2430   -1.9030    2.4150 f         1 V50     -0.099400
     12 C3          0.2390   -0.3230   -0.8890 ca        1 V50      0.128900
     13 F12        -0.5530   -0.0470   -1.9470 f         1 V50     -0.099400
     14 C2         -0.2610   -1.0010    0.2430 ca        1 V50     -0.035100
     15 S14        -1.8510   -1.6090    0.3560 ss        1 V50     -0.071200
     16 C15        -2.9000   -0.2400    0.1810 ca        1 V50      0.713300
     17 N20        -2.3700    1.0170    0.1790 nb        1 V50     -0.703000
     18 C19        -3.2510    2.0450    0.0740 ca        1 V50      0.466600
     19 C21        -2.7360    3.4470    0.0590 c3        1 V50     -0.156900
     20 C18        -4.6390    1.8140   -0.0230 ca        1 V50     -0.374600
     21 C17        -5.0920    0.4750   -0.0110 ca        1 V50      0.466600
     22 N16        -4.2260   -0.5640    0.0860 nb        1 V50     -0.703000
     23 C22        -6.5560    0.1950   -0.1130 c3        1 V50     -0.156900
     24 H1          3.9230    2.2030   -1.2220 hn        1 V50      0.457300
     25 H2          4.2180    2.5020    0.3730 hn        1 V50      0.457300
     26 H3         -2.1030    3.6160   -0.8480 hc        1 V50      0.061200
     27 H4         -3.5880    4.1700    0.0430 hc        1 V50      0.061200
     28 H5         -2.1120    3.6470    0.9660 hc        1 V50      0.061200
     29 H6         -5.3460    2.6470   -0.1050 ha        1 V50      0.155000
     30 H7         -6.7710   -0.4300   -1.0160 hc        1 V50      0.061200
     31 H8         -6.9080   -0.3630    0.7900 hc        1 V50      0.061200
     32 H9         -7.1270    1.1510   -0.1920 hc        1 V50      0.061200
@<TRIPOS>BOND
     1    1    2 1   
     2    2    3 ar  
     3    2   12 ar  
     4    3    4 1   
     5    3    8 ar  
     6    4    5 2   
     7    4    6 1   
     8    4    7 2   
     9    6   24 1   
    10    6   25 1   
    11    8    9 1   
    12    8   10 ar  
    13   10   11 1   
    14   10   14 ar  
    15   12   13 1   
    16   12   14 ar  
    17   14   15 1   
    18   15   16 1   
    19   16   17 ar  
    20   16   22 ar  
    21   17   18 ar  
    22   18   19 1   
    23   18   20 ar  
    24   19   26 1   
    25   19   27 1   
    26   19   28 1   
    27   20   21 ar  
    28   20   29 1   
    29   21   22 ar  
    30   21   23 1   
    31   23   30 1   
    32   23   31 1   
    33   23   32 1   
@<TRIPOS>SUBSTRUCTURE
     1 V50         1 TEMP              0 ****  ****    0 ROOT
