@<TRIPOS>MOLECULE
V55
   19    19     1     0     0
SMALL
bcc


@<TRIPOS>ATOM
      1 CAI        -0.0680   -0.0050   -0.0040 ca        1 V55     -0.201600
      2 CAG         1.3340   -0.0030   -0.0750 ca        1 V55     -0.137000
      3 CAK         2.0900   -0.0660    1.0930 ca        1 V55      0.087100
      4 CAJ         1.4330   -0.1320    2.3520 ca        1 V55      0.136100
      5 CAF         0.0370   -0.1330    2.4110 ca        1 V55     -0.209000
      6 OAB        -2.0840    0.0660   -1.2800 o         1 V55     -0.531100
      7 CAE        -0.7080   -0.0690    1.2350 ca        1 V55     -0.058000
      8 CAD        -0.8510    0.0620   -1.2470 c         1 V55      0.579500
      9 CAA         4.1420   -0.0060   -0.1040 c3        1 V55      0.109700
     10 OAH         3.4690   -0.0710    1.1490 os        1 V55     -0.302900
     11 OAC         2.2320   -0.1920    3.4650 oh        1 V55     -0.469100
     12 HAG         1.8280    0.0480   -1.0570 ha        1 V55      0.142000
     13 HAD        -0.2490    0.1110   -2.1830 h4        1 V55     -0.003800
     14 HAE        -1.8100   -0.0700    1.2740 ha        1 V55      0.158000
     15 HAF        -0.4710   -0.1830    3.3850 ha        1 V55      0.142000
     16 HAC         1.6530   -0.2320    4.2430 ho        1 V55      0.420000
     17 HAA1        3.8920    0.9420   -0.6390 h1        1 V55      0.046033
     18 HAA2        3.8890   -0.8910   -0.7360 h1        1 V55      0.046033
     19 HAA3        5.2240   -0.0230    0.1850 h1        1 V55      0.046033
@<TRIPOS>BOND
     1    1    2 ar  
     2    1    7 ar  
     3    1    8 1   
     4    2    3 ar  
     5    2   12 1   
     6    3    4 ar  
     7    3   10 1   
     8    4    5 ar  
     9    4   11 1   
    10    5    7 ar  
    11    5   15 1   
    12    6    8 2   
    13    7   14 1   
    14    8   13 1   
    15    9   10 1   
    16    9   17 1   
    17    9   18 1   
    18    9   19 1   
    19   11   16 1   
@<TRIPOS>SUBSTRUCTURE
     1 V55         1 TEMP              0 ****  ****    0 ROOT
