@<TRIPOS>MOLECULE
V55
   19    19     1     0     0
SMALL
bcc


@<TRIPOS>ATOM
      1 CAI        -1.4440   -0.1300    0.0080 ca        1 V55     -0.205600
      2 CAG        -0.2690   -0.8950   -0.0210 ca        1 V55     -0.120000
      3 CAK         0.9660   -0.2550   -0.0690 ca        1 V55      0.026100
      4 CAJ         1.0360    1.1610   -0.0900 ca        1 V55      0.146100
      5 CAF        -0.1430    1.9170   -0.0610 ca        1 V55     -0.157000
      6 OAB        -3.8280   -0.2180    0.0870 o         1 V55     -0.530100
      7 CAE        -1.3730    1.2670   -0.0120 ca        1 V55     -0.060000
      8 CAD        -2.7460   -0.8100    0.0590 c         1 V55      0.579500
      9 CAA         2.1630   -2.3150   -0.0790 c3        1 V55      0.120700
     10 OAH         2.1960   -0.8920   -0.1020 os        1 V55     -0.347900
     11 OAC         2.2220    1.8450   -0.1370 oh        1 V55     -0.488100
     12 HAG        -0.3320   -1.9940   -0.0050 ha        1 V55      0.141000
     13 HAD        -2.6980   -1.9230    0.0710 h4        1 V55     -0.005800
     14 HAE        -2.3080    1.8520    0.0110 ha        1 V55      0.159000
     15 HAF        -0.0780    3.0140   -0.0770 ha        1 V55      0.160000
     16 HAC         2.9470    1.2000   -0.1520 ho        1 V55      0.441000
     17 HAA1        3.2460   -2.5990   -0.1100 h1        1 V55      0.047367
     18 HAA2        1.6850   -2.6820    0.8610 h1        1 V55      0.047367
     19 HAA3        1.6250   -2.7090   -0.9750 h1        1 V55      0.047367
@<TRIPOS>BOND
     1    1    2 ar  
     2    1    7 ar  
     3    1    8 1   
     4    2    3 ar  
     5    2   12 1   
     6    3    4 ar  
     7    3   10 1   
     8    4    5 ar  
     9    4   11 1   
    10    5    7 ar  
    11    5   15 1   
    12    6    8 2   
    13    7   14 1   
    14    8   13 1   
    15    9   10 1   
    16    9   17 1   
    17    9   18 1   
    18    9   19 1   
    19   11   16 1   
@<TRIPOS>SUBSTRUCTURE
     1 V55         1 TEMP              0 ****  ****    0 ROOT
