@<TRIPOS>MOLECULE
V5X
   87    77     1     0     0
SMALL
bcc


@<TRIPOS>ATOM
      1 CBI         2.5360   -2.8010    1.3680 c3        1 V5X     -0.178000
      2 CBJ         1.7860   -4.1190    1.6550 c2        1 V5X      0.017000
      3 NBQ         2.8010   -5.0130    1.9260 n2        1 V5X     -0.212000
      4 CBR         2.2280   -6.2680    2.1360 c1        1 V5X     -0.026000
      5 CBS         2.8130   -7.5590    2.4180 c1        1 V5X     -0.128700
      6 CBT         1.9970   -8.6820    2.5460 c1        1 V5X     -0.128700
      7 CBN         0.6090   -8.5590    2.4010 c1        1 V5X      0.062000
      8 OBO        -0.3420   -9.5870    2.2820 os        1 V5X     -0.211000
      9 CBP        -0.5320  -10.3510    3.4850 c3        1 V5X     -0.075000
     10 CBM         0.0360   -7.2970    2.1260 c1        1 V5X     -0.139000
     11 CBL         0.8720   -6.1470    1.9950 c1        1 V5X     -0.048000
     12 CBK         0.5890   -4.8080    1.6950 c1        1 V5X     -0.184000
     13 CBH        -0.6940   -4.3020    1.0800 c2        1 V5X     -0.104000
     14 CBF        -1.0870   -2.9270    1.7440 c2        1 V5X      0.308000
     15 OBG        -0.5500   -2.5770    2.7870 o         1 V5X     -0.403000
     16 N          -2.0940   -2.0570    1.1060 n         1 V5X     -0.370000
     17 CA         -1.8980   -0.6680    1.0690 c3        1 V5X      0.014000
     18 CB         -3.2190    0.0350    1.2800 c3        1 V5X     -0.161000
     19 CAV        -3.0890    1.0200    2.4510 c3        1 V5X     -0.159000
     20 CAW        -4.1890    2.1200    2.3370 c3        1 V5X     -0.156000
     21 CAX        -3.6610    3.4730    2.9900 c3        1 V5X     -0.154000
     22 CAY        -4.5920    4.6870    2.5270 c3        1 V5X     -0.186000
     23 CAZ        -3.8080    6.0280    2.6790 c2        1 V5X      0.235000
     24 OBE        -2.6820    6.0220    3.1470 o         1 V5X     -0.324000
     25 NBA        -4.3430    7.2180    2.1610 n         1 V5X     -0.196000
     26 OBB        -3.5510    8.3170    2.0360 oh        1 V5X     -0.243000
     27 C          -1.3120   -0.2700   -0.3030 c2        1 V5X      0.280000
     28 O          -1.6880   -0.8680   -1.3390 o         1 V5X     -0.385000
     29 NAR        -0.3470    0.8460   -0.4050 n         1 V5X     -0.369000
     30 CAQ         0.1430    1.2430   -1.6950 c3        1 V5X     -0.029000
     31 CAP         0.7290    2.6250   -1.6020 c3        1 V5X     -0.119000
     32 CAL         1.2060    3.0980   -3.0160 c2        1 V5X     -0.119000
     33 CAM         0.4020    3.5150   -4.0770 c1        1 V5X     -0.086000
     34 CAN        -1.0050    3.6390   -4.2120 c1        1 V5X     -0.128700
     35 CAO        -1.5520    4.0890   -5.4110 c1        1 V5X     -0.128700
     36 CAK        -0.7190    4.4160   -6.4750 c1        1 V5X     -0.128700
     37 CAJ         0.6610    4.2940   -6.3410 c1        1 V5X     -0.128700
     38 CAI         1.2180    3.8370   -5.1240 c1        1 V5X      0.007000
     39 NAH         2.5340    3.6250   -4.7230 n1        1 V5X     -0.210000
     40 CAG         2.5170    3.1700   -3.4240 c2        1 V5X      0.004000
     41 CAF         3.8560    2.9780   -3.0110 c1        1 V5X     -0.029000
     42 CAE         4.4400    3.8660   -2.1310 c1        1 V5X     -0.128700
     43 CAD         5.7520    3.6460   -1.6800 c1        1 V5X     -0.128700
     44 CAA         6.4610    2.5350   -2.1210 c1        1 V5X     -0.128700
     45 CAB         5.8740    1.6440   -3.0050 c1        1 V5X     -0.128700
     46 CAC         4.5690    1.8620   -3.4530 c1        1 V5X     -0.121000
     47 HBI1        3.0880   -2.5680    2.1320 hc        1 V5X      0.099667
     48 HBI2        1.8880   -2.0850    1.2040 hc        1 V5X      0.099667
     49 HBI3        3.1120   -2.9160    0.5670 hc        1 V5X      0.099667
     50 HBQ         3.6580   -4.8200    1.9890 DU        1 V5X      0.249000
     51 HBS         3.8090   -7.6480    2.5200 ha        1 V5X      0.136800
     52 HBT         2.3930   -9.5560    2.7620 ha        1 V5X      0.136800
     53 HBM        -0.9710   -7.2070    2.0220 ha        1 V5X      0.153000
     54 HBP1       -1.3780  -10.8690    3.4170 h1        1 V5X      0.082667
     55 HBP2       -0.5830   -9.7230    4.2820 h1        1 V5X      0.082667
     56 HBP3        0.1960  -10.9470    3.5980 h1        1 V5X      0.082667
     57 HBH1       -0.5680   -4.1770    0.1160 ha        1 V5X      0.120500
     58 HBH2       -1.3910   -4.9370    1.2290 ha        1 V5X      0.120500
     59 H          -2.8320   -2.4010    0.7920 hn        1 V5X      0.246000
     60 HA         -1.3160   -0.4250    1.7340 h1        1 V5X      0.123000
     61 HBC1       -3.9210   -0.6320    1.4900 hc        1 V5X      0.100000
     62 HBC2       -3.4640    0.5250    0.4630 hc        1 V5X      0.100000
     63 HAV1       -2.1970    1.4420    2.4290 hc        1 V5X      0.090500
     64 HAV2       -3.1970    0.5490    3.2740 hc        1 V5X      0.090500
     65 HAW1       -4.9970    1.8240    2.8080 hc        1 V5X      0.083000
     66 HAW2       -4.3920    2.2710    1.4140 hc        1 V5X      0.083000
     67 HAX1       -3.6850    3.4010    3.9650 hc        1 V5X      0.091500
     68 HAX2       -2.7360    3.6370    2.6980 hc        1 V5X      0.091500
     69 HAY1       -4.8470    4.5650    1.6100 hc        1 V5X      0.113000
     70 HAY2       -5.4220    4.7140    3.1060 hc        1 V5X      0.113000
     71 HBA        -5.2590    7.2790    1.9750 hn        1 V5X      0.212000
     72 HBB        -3.8420    8.8070    1.4010 ho        1 V5X      0.234000
     73 HAR         0.0220    1.2230    0.3740 hn        1 V5X      0.248000
     74 HAQ1       -0.5940    1.2420   -2.3390 h1        1 V5X      0.104500
     75 HAQ2        0.8220    0.6270   -1.9840 h1        1 V5X      0.104500
     76 HAP1        1.5340    2.6110   -0.9570 hc        1 V5X      0.092000
     77 HAP2        0.0820    3.2150   -1.2820 hc        1 V5X      0.092000
     78 HAN        -1.5800    3.4120   -3.4770 ha        1 V5X      0.136800
     79 HAO        -2.5430    4.1800   -5.5050 ha        1 V5X      0.136800
     80 HAK        -1.0970    4.7260   -7.3050 ha        1 V5X      0.136800
     81 HAJ         1.2390    4.5230   -7.0810 ha        1 V5X      0.136800
     82 HAH         3.2880    3.7650   -5.2390 DU        1 V5X      0.249000
     83 HAE         3.9410    4.6460   -1.8210 ha        1 V5X      0.136800
     84 HAC         4.1430    1.2150   -4.0940 ha        1 V5X      0.136000
     85 HAD         6.1640    4.2700   -1.0610 ha        1 V5X      0.136800
     86 HAA         7.3990    2.3780   -1.7980 ha        1 V5X      0.136800
     87 HAB         6.3620    0.8800   -3.3070 ha        1 V5X      0.136800
@<TRIPOS>BOND
     1    1    2 1   
     2    1   47 1   
     3    1   48 1   
     4    1   49 1   
     5    2    3 1   
     6    2   12 1   
     7    3    4 1   
     8    4   11 1   
     9    5    6 1   
    10    5   51 1   
    11    6   52 1   
    12    7    8 1   
    13    7   10 1   
    14    8    9 1   
    15    9   54 1   
    16    9   55 1   
    17    9   56 1   
    18   10   53 1   
    19   13   14 1   
    20   13   57 1   
    21   13   58 1   
    22   14   15 1   
    23   14   16 1   
    24   16   17 1   
    25   16   59 1   
    26   17   18 1   
    27   17   27 1   
    28   17   60 1   
    29   18   19 1   
    30   18   61 1   
    31   18   62 1   
    32   19   20 1   
    33   19   63 1   
    34   19   64 1   
    35   20   21 1   
    36   20   65 1   
    37   20   66 1   
    38   21   22 1   
    39   21   67 1   
    40   21   68 1   
    41   22   23 1   
    42   22   69 1   
    43   22   70 1   
    44   23   24 1   
    45   23   25 1   
    46   25   26 1   
    47   25   71 1   
    48   26   72 1   
    49   27   28 1   
    50   27   29 1   
    51   29   30 1   
    52   29   73 1   
    53   30   31 1   
    54   30   74 1   
    55   30   75 1   
    56   31   32 1   
    57   31   76 1   
    58   31   77 1   
    59   32   33 1   
    60   32   40 1   
    61   33   38 1   
    62   34   35 1   
    63   34   78 1   
    64   35   79 1   
    65   36   37 1   
    66   36   80 1   
    67   37   81 1   
    68   39   40 1   
    69   40   41 1   
    70   41   46 1   
    71   42   43 1   
    72   42   83 1   
    73   43   85 1   
    74   44   45 1   
    75   44   86 1   
    76   45   87 1   
    77   46   84 1   
@<TRIPOS>SUBSTRUCTURE
     1 V5X         1 TEMP              0 ****  ****    0 ROOT
