@<TRIPOS>MOLECULE
V5X
   87    91     1     0     0
SMALL
bcc


@<TRIPOS>ATOM
      1 CBI         1.5350   -4.2860    2.8650 c3        1 V5X     -0.052900
      2 CBJ         2.5520   -3.2990    2.4500 cc        1 V5X     -0.014300
      3 NBQ         3.4410   -2.7110    3.3580 na        1 V5X     -0.187400
      4 CBR         4.2590   -1.8120    2.6660 ca        1 V5X     -0.072200
      5 CBS         5.2910   -0.9780    3.1150 ca        1 V5X     -0.106000
      6 CBT         5.9270   -0.1640    2.1890 ca        1 V5X     -0.177000
      7 CBN         5.5450   -0.1810    0.8300 ca        1 V5X      0.107100
      8 OBO         6.1200    0.6240   -0.1390 os        1 V5X     -0.337900
      9 CBP         7.1510    1.5030    0.2950 c3        1 V5X      0.105700
     10 CBM         4.5300   -1.0200    0.3570 ca        1 V5X     -0.141000
     11 CBL         3.8740   -1.8390    1.2730 ca        1 V5X     -0.062800
     12 CBK         2.7870   -2.7900    1.1640 cd        1 V5X     -0.181400
     13 CBH         2.1050   -3.1660   -0.0770 c3        1 V5X     -0.067200
     14 CBF         1.0790   -2.1670   -0.5920 c         1 V5X      0.664100
     15 OBG         0.1650   -2.5450   -1.3590 o         1 V5X     -0.646100
     16 N           1.2020   -0.8450   -0.2330 n         1 V5X     -0.558900
     17 CA          0.3880    0.1980   -0.8010 c3        1 V5X      0.041700
     18 CB          1.0970    1.5600   -0.8250 c3        1 V5X     -0.083400
     19 CAV         2.3770    1.5250   -1.6280 c3        1 V5X     -0.084400
     20 CAW         3.0120    2.8980   -1.7010 c3        1 V5X     -0.075400
     21 CAX         4.4020    2.8100   -2.2960 c3        1 V5X     -0.087400
     22 CAY         5.0750    4.1670   -2.3070 c3        1 V5X     -0.158400
     23 CAZ         6.5060    4.0310   -2.7770 c         1 V5X      0.596100
     24 OBE         7.4670    4.0130   -1.9900 o         1 V5X     -0.574100
     25 NBA         6.7310    4.0530   -4.1880 n         1 V5X     -0.354400
     26 OBB         7.9120    3.5660   -4.5770 oh        1 V5X     -0.438100
     27 C          -0.9610    0.3730   -0.0510 c         1 V5X      0.634100
     28 O          -1.2630    1.4620    0.4780 o         1 V5X     -0.625100
     29 NAR        -1.7860   -0.7260    0.0090 n         1 V5X     -0.557900
     30 CAQ        -3.1010   -0.6520    0.5820 c3        1 V5X      0.087000
     31 CAP        -4.2130   -0.2770   -0.4110 c3        1 V5X     -0.037200
     32 CAL        -5.4200    0.1620    0.3010 cc        1 V5X     -0.110400
     33 CAM        -5.5060    1.3450    1.1340 ca        1 V5X     -0.098800
     34 CAN        -4.5960    2.3420    1.4950 ca        1 V5X     -0.079000
     35 CAO        -5.0260    3.3670    2.3250 ca        1 V5X     -0.162000
     36 CAK        -6.3470    3.4150    2.8070 ca        1 V5X     -0.109000
     37 CAJ        -7.2780    2.4430    2.4780 ca        1 V5X     -0.154000
     38 CAI        -6.8590    1.3990    1.6360 ca        1 V5X     -0.038200
     39 NAH        -7.5460    0.2810    1.1610 na        1 V5X     -0.187400
     40 CAG        -6.6820   -0.4470    0.3190 cd        1 V5X     -0.012300
     41 CAF        -7.1310   -1.6520   -0.3640 ca        1 V5X     -0.040800
     42 CAE        -7.8340   -2.6440    0.3350 ca        1 V5X     -0.115500
     43 CAD        -8.2560   -3.7970   -0.3220 ca        1 V5X     -0.131500
     44 CAA        -7.9840   -3.9710   -1.6790 ca        1 V5X     -0.124000
     45 CAB        -7.2900   -2.9860   -2.3800 ca        1 V5X     -0.131500
     46 CAC        -6.8660   -1.8280   -1.7300 ca        1 V5X     -0.115500
     47 HBI1        0.5840   -3.7610    3.1360 hc        1 V5X      0.059033
     48 HBI2        1.3230   -4.9880    2.0200 hc        1 V5X      0.059033
     49 HBI3        1.8710   -4.8870    3.7460 hc        1 V5X      0.059033
     50 HBQ         3.4810   -2.8980    4.3230 hn        1 V5X      0.301700
     51 HBS         5.5910   -0.9630    4.1710 ha        1 V5X      0.136000
     52 HBT         6.7390    0.4960    2.5260 ha        1 V5X      0.141000
     53 HBM         4.2680   -1.0310   -0.7100 ha        1 V5X      0.151000
     54 HBP1        7.4130    2.0780   -0.6320 h1        1 V5X      0.051033
     55 HBP2        6.7750    2.1960    1.0870 h1        1 V5X      0.051033
     56 HBP3        8.0300    0.9230    0.6660 h1        1 V5X      0.051033
     57 HBH1        2.8630   -3.2900   -0.9020 hc        1 V5X      0.081700
     58 HBH2        1.5710   -4.1480    0.0440 hc        1 V5X      0.081700
     59 H           1.8990   -0.5770    0.4240 hn        1 V5X      0.335500
     60 HA          0.1320   -0.0980   -1.8660 h1        1 V5X      0.082700
     61 HBC1        0.3820    2.3020   -1.2700 hc        1 V5X      0.067700
     62 HBC2        1.3040    1.8970    0.2250 hc        1 V5X      0.067700
     63 HAV1        3.1100    0.8130   -1.1580 hc        1 V5X      0.046200
     64 HAV2        2.1680    1.1500   -2.6640 hc        1 V5X      0.046200
     65 HAW1        2.3730    3.5820   -2.3190 hc        1 V5X      0.044700
     66 HAW2        3.0730    3.3400   -0.6710 hc        1 V5X      0.044700
     67 HAX1        5.0240    2.0910   -1.6910 hc        1 V5X      0.056200
     68 HAX2        4.3390    2.4050   -3.3400 hc        1 V5X      0.056200
     69 HAY1        4.5080    4.8800   -2.9610 hc        1 V5X      0.075700
     70 HAY2        5.0920    4.5950   -1.2690 hc        1 V5X      0.075700
     71 HBA         6.0100    3.5590   -4.7030 hn        1 V5X      0.299500
     72 HBB         8.5750    4.2380   -4.3200 ho        1 V5X      0.434000
     73 HAR        -1.5650   -1.5240   -0.5460 hn        1 V5X      0.335500
     74 HAQ1       -3.3400   -1.6580    1.0300 h1        1 V5X      0.064200
     75 HAQ2       -3.0870    0.1130    1.4130 h1        1 V5X      0.064200
     76 HAP1       -3.8630    0.5620   -1.0740 hc        1 V5X      0.053700
     77 HAP2       -4.4410   -1.1580   -1.0680 hc        1 V5X      0.053700
     78 HAN        -3.5580    2.3050    1.1230 ha        1 V5X      0.163000
     79 HAO        -4.3230    4.1600    2.6180 ha        1 V5X      0.131000
     80 HAK        -6.6450    4.2470    3.4620 ha        1 V5X      0.127000
     81 HAJ        -8.3060    2.4860    2.8590 ha        1 V5X      0.130000
     82 HAH        -8.5200    0.1410    1.2170 hn        1 V5X      0.296700
     83 HAE        -8.0400   -2.5170    1.4090 ha        1 V5X      0.139500
     84 HAC        -6.3260   -1.0470   -2.2860 ha        1 V5X      0.139500
     85 HAD        -8.8030   -4.5740    0.2330 ha        1 V5X      0.134000
     86 HAA        -8.3170   -4.8830   -2.1950 ha        1 V5X      0.133000
     87 HAB        -7.0760   -3.1190   -3.4510 ha        1 V5X      0.134000
@<TRIPOS>BOND
     1    1    2 1   
     2    1   47 1   
     3    1   48 1   
     4    1   49 1   
     5    2    3 1   
     6    2   12 2   
     7    3    4 1   
     8    3   50 1   
     9    4    5 ar  
    10    4   11 ar  
    11    5    6 ar  
    12    5   51 1   
    13    6    7 ar  
    14    6   52 1   
    15    7    8 1   
    16    7   10 ar  
    17    8    9 1   
    18    9   54 1   
    19    9   55 1   
    20    9   56 1   
    21   10   11 ar  
    22   10   53 1   
    23   11   12 1   
    24   12   13 1   
    25   13   14 1   
    26   13   57 1   
    27   13   58 1   
    28   14   15 2   
    29   14   16 1   
    30   16   17 1   
    31   16   59 1   
    32   17   18 1   
    33   17   27 1   
    34   17   60 1   
    35   18   19 1   
    36   18   61 1   
    37   18   62 1   
    38   19   20 1   
    39   19   63 1   
    40   19   64 1   
    41   20   21 1   
    42   20   65 1   
    43   20   66 1   
    44   21   22 1   
    45   21   67 1   
    46   21   68 1   
    47   22   23 1   
    48   22   69 1   
    49   22   70 1   
    50   23   24 2   
    51   23   25 1   
    52   25   26 1   
    53   25   71 1   
    54   26   72 1   
    55   27   28 2   
    56   27   29 1   
    57   29   30 1   
    58   29   73 1   
    59   30   31 1   
    60   30   74 1   
    61   30   75 1   
    62   31   32 1   
    63   31   76 1   
    64   31   77 1   
    65   32   33 1   
    66   32   40 2   
    67   33   34 ar  
    68   33   38 ar  
    69   34   35 ar  
    70   34   78 1   
    71   35   36 ar  
    72   35   79 1   
    73   36   37 ar  
    74   36   80 1   
    75   37   38 ar  
    76   37   81 1   
    77   38   39 1   
    78   39   40 1   
    79   39   82 1   
    80   40   41 1   
    81   41   42 ar  
    82   41   46 ar  
    83   42   43 ar  
    84   42   83 1   
    85   43   44 ar  
    86   43   85 1   
    87   44   45 ar  
    88   44   86 1   
    89   45   46 ar  
    90   45   87 1   
    91   46   84 1   
@<TRIPOS>SUBSTRUCTURE
     1 V5X         1 TEMP              0 ****  ****    0 ROOT
