@<TRIPOS>MOLECULE
V5X
   90    94     1     0     0
SMALL
bcc


@<TRIPOS>ATOM
      1 CBI         1.5550   -0.3010    1.3450 c3        1 V5X     -0.085900
      2 CBJ         2.4050    0.2870    0.2900 cc        1 V5X      0.079700
      3 NBQ         3.4180    1.1970    0.5430 na        1 V5X     -0.145400
      4 CBR         4.0640    1.5090   -0.6620 ca        1 V5X     -0.071200
      5 CBS         5.1680    2.3360   -0.9190 ca        1 V5X     -0.049000
      6 CBT         5.6100    2.4490   -2.2290 ca        1 V5X     -0.161000
      7 CBN         4.9740    1.7310   -3.2640 ca        1 V5X      0.115100
      8 OBO         5.3450    1.8670   -4.5920 os        1 V5X     -0.426900
      9 CBP         6.7500    2.0360   -4.8330 c3        1 V5X      0.119700
     10 CBM         3.8850    0.8860   -3.0290 ca        1 V5X     -0.241000
     11 CBL         3.4090    0.7780   -1.7230 ca        1 V5X     -0.046800
     12 CBK         2.3500    0.0190   -1.1020 cd        1 V5X     -0.300400
     13 CBH         1.4880   -0.9590   -1.7560 c3        1 V5X     -0.025200
     14 CBF         0.2340   -0.2830   -2.2680 c         1 V5X      0.563100
     15 OBG        -0.7730    0.0540   -1.6770 o         1 V5X     -0.399100
     16 N           0.1940    0.0360   -3.7850 ny        1 V5X     -0.702800
     17 CA          0.8250    1.3560   -4.1260 c3        1 V5X      0.064500
     18 CB         -0.2100    2.4550   -4.4210 c3        1 V5X     -0.113400
     19 CAV        -1.1090    2.7770   -3.2430 c3        1 V5X     -0.092400
     20 CAW        -2.0990    3.8690   -3.6130 c3        1 V5X     -0.080400
     21 CAX        -3.0030    4.1850   -2.4370 c3        1 V5X     -0.086400
     22 CAY        -4.0630    5.2040   -2.8270 c3        1 V5X     -0.136400
     23 CAZ        -4.9660    5.4730   -1.6670 c         1 V5X      0.584100
     24 OBE        -4.9560    5.0620   -0.5250 o         1 V5X     -0.373100
     25 NBA        -6.1520    6.4550   -1.9340 ny        1 V5X     -0.473300
     26 OBB        -6.5380    6.3030   -3.2190 oh        1 V5X     -0.368300
     27 C           1.7350    1.1970   -5.3620 c         1 V5X      0.510100
     28 O           1.6610    0.2510   -6.1380 o         1 V5X     -0.397100
     29 NAR         2.7590    2.2380   -5.6160 ny        1 V5X     -0.655800
     30 CAQ         2.3510    3.1640   -6.7330 c3        1 V5X      0.101800
     31 CAP         3.2340    4.4190   -6.8070 c3        1 V5X      0.007800
     32 CAL         2.5430    5.3980   -7.6460 cc        1 V5X     -0.244400
     33 CAM         1.3420    6.1170   -7.2820 ca        1 V5X     -0.080800
     34 CAN         0.5210    6.1400   -6.1540 ca        1 V5X     -0.138000
     35 CAO        -0.5800    6.9820   -6.1410 ca        1 V5X     -0.140000
     36 CAK        -0.8830    7.8090   -7.2370 ca        1 V5X     -0.115000
     37 CAJ        -0.0920    7.8210   -8.3770 ca        1 V5X     -0.096000
     38 CAI         1.0260    6.9730   -8.4030 ca        1 V5X     -0.038200
     39 NAH         1.9930    6.7690   -9.3930 na        1 V5X     -0.154400
     40 CAG         2.9180    5.8330   -8.9340 cd        1 V5X      0.108700
     41 CAF         4.0640    5.4240   -9.7360 ca        1 V5X     -0.112800
     42 CAE         3.8810    4.9760  -11.0510 ca        1 V5X     -0.110500
     43 CAD         4.9830    4.6020  -11.8190 ca        1 V5X     -0.122500
     44 CAA         6.2700    4.6830  -11.2840 ca        1 V5X     -0.089000
     45 CAB         6.4550    5.1370   -9.9770 ca        1 V5X     -0.122500
     46 CAC         5.3580    5.5080   -9.2020 ca        1 V5X     -0.110500
     47 HBI1        0.5210   -0.4690    0.9510 hc        1 V5X      0.086700
     48 HBI2        1.4870    0.3540    2.2510 hc        1 V5X      0.086700
     49 HBI3        1.9830   -1.2890    1.6630 hc        1 V5X      0.086700
     50 HBQ         3.7120    1.4990    1.4420 hn        1 V5X      0.337700
     51 HBS         5.6810    2.8740   -0.1050 ha        1 V5X      0.178000
     52 HBT         6.4820    3.0830   -2.4580 ha        1 V5X      0.175000
     53 HBM         3.5010    0.2350   -3.8250 ha        1 V5X      0.110000
     54 HBP1        7.0340    3.0960   -4.6270 h1        1 V5X      0.070700
     55 HBP2        7.3480    1.3320   -4.2060 h1        1 V5X      0.070700
     56 HBP3        6.8610    1.7940   -5.9200 h1        1 V5X      0.070700
     57 HBH1        2.0350   -1.4890   -2.5830 hc        1 V5X      0.119700
     58 HBH2        1.1310   -1.7410   -1.0180 hc        1 V5X      0.119700
     59 H           0.6730   -0.7260   -4.2850 hn        1 V5X      0.468800
     60 HA          1.4700    1.6510   -3.2330 hx        1 V5X      0.163700
     61 HBC1       -0.8350    2.1630   -5.3090 hc        1 V5X      0.092200
     62 HBC2        0.3540    3.3890   -4.6970 hc        1 V5X      0.092200
     63 HAV1       -1.6780    1.8670   -2.9140 hc        1 V5X      0.067200
     64 HAV2       -0.4870    3.1140   -2.3710 hc        1 V5X      0.067200
     65 HAW1       -2.7190    3.5330   -4.4880 hc        1 V5X      0.065200
     66 HAW2       -1.5460    4.7940   -3.9300 hc        1 V5X      0.065200
     67 HAX1       -2.3930    4.5850   -1.5840 hc        1 V5X      0.076700
     68 HAX2       -3.5040    3.2460   -2.0770 hc        1 V5X      0.076700
     69 HAY1       -3.5860    6.1680   -3.1560 hc        1 V5X      0.120700
     70 HAY2       -4.6840    4.8220   -3.6890 hc        1 V5X      0.120700
     71 HBA        -5.8300    7.4260   -1.7650 hn        1 V5X      0.475800
     72 HBB        -7.3800    6.7970   -3.3690 ho        1 V5X      0.491000
     73 HAR         2.9570    2.7720   -4.7580 hn        1 V5X      0.491300
     74 HAQ1        2.4170    2.5830   -7.6970 hx        1 V5X      0.112700
     75 HAQ2        1.2800    3.4720   -6.5600 hx        1 V5X      0.112700
     76 HAP1        3.3960    4.8460   -5.7790 hc        1 V5X      0.073700
     77 HAP2        4.2360    4.1580   -7.2440 hc        1 V5X      0.073700
     78 HAN         0.7660    5.5230   -5.2790 ha        1 V5X      0.087000
     79 HAO        -1.2240    7.0240   -5.2500 ha        1 V5X      0.109000
     80 HAK        -1.7610    8.4730   -7.1850 ha        1 V5X      0.148000
     81 HAJ        -0.3290    8.4790   -9.2260 ha        1 V5X      0.164000
     82 HAH         2.0640    7.2720  -10.2430 hn        1 V5X      0.330700
     83 HAE         2.8700    4.9180  -11.4820 ha        1 V5X      0.138000
     84 HAC         5.5090    5.8970   -8.1840 ha        1 V5X      0.138000
     85 HAD         4.8370    4.2530  -12.8540 ha        1 V5X      0.156500
     86 HAA         7.1400    4.4010  -11.8990 ha        1 V5X      0.162000
     87 HAB         7.4720    5.2210   -9.5640 ha        1 V5X      0.156500
     88 H2         -0.7880    0.0490   -4.0970 hn        1 V5X      0.468800
     89 HBA2       -6.9230    6.2370   -1.2720 hn        1 V5X      0.475800
     90 HAR2        3.6530    1.7730   -5.8840 hn        1 V5X      0.491300
@<TRIPOS>BOND
     1    1    2 1   
     2    1   47 1   
     3    1   48 1   
     4    1   49 1   
     5    2    3 1   
     6    2   12 2   
     7    3    4 1   
     8    3   50 1   
     9    4    5 ar  
    10    4   11 ar  
    11    5    6 ar  
    12    5   51 1   
    13    6    7 ar  
    14    6   52 1   
    15    7    8 1   
    16    7   10 ar  
    17    8    9 1   
    18    9   54 1   
    19    9   55 1   
    20    9   56 1   
    21   10   11 ar  
    22   10   53 1   
    23   11   12 1   
    24   12   13 1   
    25   13   14 1   
    26   13   57 1   
    27   13   58 1   
    28   14   15 2   
    29   14   16 1   
    30   16   17 1   
    31   16   59 1   
    32   16   88 1   
    33   17   18 1   
    34   17   27 1   
    35   17   60 1   
    36   18   19 1   
    37   18   61 1   
    38   18   62 1   
    39   19   20 1   
    40   19   63 1   
    41   19   64 1   
    42   20   21 1   
    43   20   65 1   
    44   20   66 1   
    45   21   22 1   
    46   21   67 1   
    47   21   68 1   
    48   22   23 1   
    49   22   69 1   
    50   22   70 1   
    51   23   24 2   
    52   23   25 1   
    53   25   26 1   
    54   25   71 1   
    55   25   89 1   
    56   26   72 1   
    57   27   28 2   
    58   27   29 1   
    59   29   30 1   
    60   29   73 1   
    61   29   90 1   
    62   30   31 1   
    63   30   74 1   
    64   30   75 1   
    65   31   32 1   
    66   31   76 1   
    67   31   77 1   
    68   32   33 1   
    69   32   40 2   
    70   33   34 ar  
    71   33   38 ar  
    72   34   35 ar  
    73   34   78 1   
    74   35   36 ar  
    75   35   79 1   
    76   36   37 ar  
    77   36   80 1   
    78   37   38 ar  
    79   37   81 1   
    80   38   39 1   
    81   39   40 1   
    82   39   82 1   
    83   40   41 1   
    84   41   42 ar  
    85   41   46 ar  
    86   42   43 ar  
    87   42   83 1   
    88   43   44 ar  
    89   43   85 1   
    90   44   45 ar  
    91   44   86 1   
    92   45   46 ar  
    93   45   87 1   
    94   46   84 1   
@<TRIPOS>SUBSTRUCTURE
     1 V5X         1 TEMP              0 ****  ****    0 ROOT
