@<TRIPOS>MOLECULE
V5X
   90    94     1     0     0
SMALL
bcc


@<TRIPOS>ATOM
      1 CBI         1.5270   -0.2600    1.3630 c3        1 V5X     -0.085900
      2 CBJ         2.3830    0.3200    0.3080 cc        1 V5X      0.079700
      3 NBQ         3.3940    1.2320    0.5610 na        1 V5X     -0.145400
      4 CBR         4.0470    1.5360   -0.6440 ca        1 V5X     -0.071200
      5 CBS         5.1510    2.3620   -0.9000 ca        1 V5X     -0.049000
      6 CBT         5.6010    2.4650   -2.2080 ca        1 V5X     -0.161000
      7 CBN         4.9710    1.7390   -3.2410 ca        1 V5X      0.115100
      8 OBO         5.3500    1.8650   -4.5690 os        1 V5X     -0.426900
      9 CBP         6.7570    2.0320   -4.8030 c3        1 V5X      0.119700
     10 CBM         3.8810    0.8950   -3.0070 ca        1 V5X     -0.241000
     11 CBL         3.3980    0.7970   -1.7020 ca        1 V5X     -0.046800
     12 CBK         2.3360    0.0420   -1.0820 cd        1 V5X     -0.300400
     13 CBH         1.4800   -0.9430   -1.7330 c3        1 V5X     -0.025200
     14 CBF         0.2260   -0.2730   -2.2560 c         1 V5X      0.563100
     15 OBG        -0.7840    0.0650   -1.6740 o         1 V5X     -0.399100
     16 N           0.1960    0.0370   -3.7760 n4        1 V5X     -0.701800
     17 CA          0.8260    1.3570   -4.1200 c3        1 V5X      0.064500
     18 CB         -0.2100    2.4520   -4.4260 c3        1 V5X     -0.113400
     19 CAV        -1.1190    2.7750   -3.2560 c3        1 V5X     -0.092400
     20 CAW        -2.1080    3.8650   -3.6370 c3        1 V5X     -0.079400
     21 CAX        -3.0260    4.1780   -2.4710 c3        1 V5X     -0.086400
     22 CAY        -4.0830    5.1940   -2.8720 c3        1 V5X     -0.136400
     23 CAZ        -5.0010    5.4590   -1.7220 c         1 V5X      0.584100
     24 OBE        -5.0040    5.0450   -0.5820 o         1 V5X     -0.373100
     25 NBA        -6.1860    6.4390   -2.0020 n4        1 V5X     -0.473300
     26 OBB        -6.5540    6.2910   -3.2920 oh        1 V5X     -0.368300
     27 C           1.7420    1.1930   -5.3510 c         1 V5X      0.510100
     28 O           1.6710    0.2450   -6.1250 o         1 V5X     -0.397100
     29 NAR         2.7680    2.2330   -5.6040 n4        1 V5X     -0.655800
     30 CAQ         2.3650    3.1570   -6.7240 c3        1 V5X      0.101800
     31 CAP         3.2540    4.4070   -6.8030 c3        1 V5X      0.007800
     32 CAL         2.5650    5.3890   -7.6410 cc        1 V5X     -0.244400
     33 CAM         1.3700    6.1140   -7.2730 ca        1 V5X     -0.080800
     34 CAN         0.5520    6.1420   -6.1420 ca        1 V5X     -0.138000
     35 CAO        -0.5440    6.9910   -6.1250 ca        1 V5X     -0.140000
     36 CAK        -0.8460    7.8190   -7.2210 ca        1 V5X     -0.115000
     37 CAJ        -0.0590    7.8270   -8.3630 ca        1 V5X     -0.096000
     38 CAI         1.0550    6.9730   -8.3930 ca        1 V5X     -0.038200
     39 NAH         2.0170    6.7630   -9.3860 na        1 V5X     -0.154400
     40 CAG         2.9380    5.8210   -8.9300 cd        1 V5X      0.108700
     41 CAF         4.0800    5.4060   -9.7350 ca        1 V5X     -0.112800
     42 CAE         3.8900    4.9590  -11.0500 ca        1 V5X     -0.110500
     43 CAD         4.9870    4.5790  -11.8210 ca        1 V5X     -0.122500
     44 CAA         6.2760    4.6530  -11.2910 ca        1 V5X     -0.089000
     45 CAB         6.4680    5.1050   -9.9850 ca        1 V5X     -0.122500
     46 CAC         5.3760    5.4820   -9.2050 ca        1 V5X     -0.110500
     47 HBI1        1.9550   -1.2450    1.6920 hc        1 V5X      0.086700
     48 HBI2        1.4520    0.4020    2.2630 hc        1 V5X      0.086700
     49 HBI3        0.4960   -0.4350    0.9640 hc        1 V5X      0.086700
     50 HBQ         3.6820    1.5420    1.4590 hn        1 V5X      0.337700
     51 HBS         5.6590    2.9070   -0.0870 ha        1 V5X      0.178000
     52 HBT         6.4740    3.0980   -2.4380 ha        1 V5X      0.175000
     53 HBM         3.5020    0.2380   -3.8000 ha        1 V5X      0.110000
     54 HBP1        7.0390    3.0940   -4.6020 h1        1 V5X      0.070700
     55 HBP2        6.8730    1.7830   -5.8880 h1        1 V5X      0.070700
     56 HBP3        7.3500    1.3320   -4.1670 h1        1 V5X      0.070700
     57 HBH1        2.0320   -1.4780   -2.5530 hc        1 V5X      0.119700
     58 HBH2        1.1200   -1.7200   -0.9920 hc        1 V5X      0.119700
     59 H          -0.7840    0.0460   -4.0940 hn        1 V5X      0.468800
     60 HA          1.4660    1.6580   -3.2250 hx        1 V5X      0.163700
     61 HBC1        0.3550    3.3880   -4.7000 hc        1 V5X      0.092700
     62 HBC2       -0.8270    2.1570   -5.3180 hc        1 V5X      0.092700
     63 HAV1       -1.6900    1.8640   -2.9310 hc        1 V5X      0.067200
     64 HAV2       -0.5050    3.1140   -2.3790 hc        1 V5X      0.067200
     65 HAW1       -2.7160    3.5290   -4.5190 hc        1 V5X      0.065200
     66 HAW2       -1.5530    4.7910   -3.9460 hc        1 V5X      0.065200
     67 HAX1       -2.4260    4.5780   -1.6100 hc        1 V5X      0.076700
     68 HAX2       -3.5280    3.2380   -2.1180 hc        1 V5X      0.076700
     69 HAY1       -3.6050    6.1610   -3.1940 hc        1 V5X      0.120700
     70 HAY2       -4.6920    4.8130   -3.7420 hc        1 V5X      0.120700
     71 HBA        -5.8690    7.4110   -1.8250 hn        1 V5X      0.475800
     72 HBB        -7.3960    6.7830   -3.4510 ho        1 V5X      0.491000
     73 HAR         3.6630    1.7670   -5.8670 hn        1 V5X      0.491300
     74 HAQ1        1.2960    3.4710   -6.5530 hx        1 V5X      0.112700
     75 HAQ2        2.4290    2.5720   -7.6870 hx        1 V5X      0.112700
     76 HAP1        3.4220    4.8340   -5.7760 hc        1 V5X      0.073700
     77 HAP2        4.2540    4.1410   -7.2430 hc        1 V5X      0.073700
     78 HAN         0.7970    5.5240   -5.2680 ha        1 V5X      0.087000
     79 HAO        -1.1850    7.0360   -5.2330 ha        1 V5X      0.110000
     80 HAK        -1.7190    8.4880   -7.1660 ha        1 V5X      0.148000
     81 HAJ        -0.2940    8.4860   -9.2120 ha        1 V5X      0.164000
     82 HAH         2.0880    7.2650  -10.2370 hn        1 V5X      0.330700
     83 HAE         2.8770    4.9070  -11.4770 ha        1 V5X      0.138000
     84 HAC         5.5330    5.8700   -8.1880 ha        1 V5X      0.138000
     85 HAD         4.8360    4.2310  -12.8560 ha        1 V5X      0.156500
     86 HAA         7.1430    4.3650  -11.9080 ha        1 V5X      0.162000
     87 HAB         7.4870    5.1840   -9.5750 ha        1 V5X      0.156500
     88 H2          0.6800   -0.7270   -4.2690 hn        1 V5X      0.468800
     89 HBA2       -6.9650    6.2170   -1.3500 hn        1 V5X      0.475800
     90 HAR2        2.9620    2.7690   -4.7460 hn        1 V5X      0.491300
@<TRIPOS>BOND
     1    1    2 1   
     2    1   47 1   
     3    1   48 1   
     4    1   49 1   
     5    2    3 1   
     6    2   12 2   
     7    3    4 1   
     8    3   50 1   
     9    4    5 ar  
    10    4   11 ar  
    11    5    6 ar  
    12    5   51 1   
    13    6    7 ar  
    14    6   52 1   
    15    7    8 1   
    16    7   10 ar  
    17    8    9 1   
    18    9   54 1   
    19    9   55 1   
    20    9   56 1   
    21   10   11 ar  
    22   10   53 1   
    23   11   12 1   
    24   12   13 1   
    25   13   14 1   
    26   13   57 1   
    27   13   58 1   
    28   14   15 2   
    29   14   16 1   
    30   16   17 1   
    31   16   59 1   
    32   16   88 1   
    33   17   18 1   
    34   17   27 1   
    35   17   60 1   
    36   18   19 1   
    37   18   61 1   
    38   18   62 1   
    39   19   20 1   
    40   19   63 1   
    41   19   64 1   
    42   20   21 1   
    43   20   65 1   
    44   20   66 1   
    45   21   22 1   
    46   21   67 1   
    47   21   68 1   
    48   22   23 1   
    49   22   69 1   
    50   22   70 1   
    51   23   24 2   
    52   23   25 1   
    53   25   26 1   
    54   25   71 1   
    55   25   89 1   
    56   26   72 1   
    57   27   28 2   
    58   27   29 1   
    59   29   30 1   
    60   29   73 1   
    61   29   90 1   
    62   30   31 1   
    63   30   74 1   
    64   30   75 1   
    65   31   32 1   
    66   31   76 1   
    67   31   77 1   
    68   32   33 1   
    69   32   40 2   
    70   33   34 ar  
    71   33   38 ar  
    72   34   35 ar  
    73   34   78 1   
    74   35   36 ar  
    75   35   79 1   
    76   36   37 ar  
    77   36   80 1   
    78   37   38 ar  
    79   37   81 1   
    80   38   39 1   
    81   39   40 1   
    82   39   82 1   
    83   40   41 1   
    84   41   42 ar  
    85   41   46 ar  
    86   42   43 ar  
    87   42   83 1   
    88   43   44 ar  
    89   43   85 1   
    90   44   45 ar  
    91   44   86 1   
    92   45   46 ar  
    93   45   87 1   
    94   46   84 1   
@<TRIPOS>SUBSTRUCTURE
     1 V5X         1 TEMP              0 ****  ****    0 ROOT
