@<TRIPOS>MOLECULE
V5X
   90    94     1     0     0
SMALL
bcc


@<TRIPOS>ATOM
      1 CBI         1.4840   -0.5030    1.2150 c3        1 V5X     -0.085900
      2 CBJ         2.3450    0.0920    0.1730 cc        1 V5X      0.079700
      3 NBQ         3.3870    0.9630    0.4480 na        1 V5X     -0.145400
      4 CBR         4.0340    1.2950   -0.7520 ca        1 V5X     -0.071200
      5 CBS         5.1600    2.0960   -0.9900 ca        1 V5X     -0.049000
      6 CBT         5.5960    2.2380   -2.2990 ca        1 V5X     -0.161000
      7 CBN         4.9320    1.5740   -3.3520 ca        1 V5X      0.115100
      8 OBO         5.2980    1.7420   -4.6780 os        1 V5X     -0.426900
      9 CBP         6.7060    1.8750   -4.9250 c3        1 V5X      0.119700
     10 CBM         3.8190    0.7550   -3.1360 ca        1 V5X     -0.241000
     11 CBL         3.3490    0.6190   -1.8310 ca        1 V5X     -0.046800
     12 CBK         2.2720   -0.1280   -1.2260 cd        1 V5X     -0.300400
     13 CBH         1.3770   -1.0580   -1.9050 c3        1 V5X     -0.025200
     14 CBF         0.1390   -0.3290   -2.3840 c         1 V5X      0.563100
     15 OBG        -0.8530    0.0170   -1.7750 o         1 V5X     -0.399100
     16 N           0.0990    0.0420   -3.8900 n4        1 V5X     -0.702800
     17 CA          0.7660    1.3530   -4.1910 c3        1 V5X      0.064500
     18 CB         -0.2370    2.4920   -4.4410 c3        1 V5X     -0.113400
     19 CAV        -1.1180    2.8000   -3.2450 c3        1 V5X     -0.092400
     20 CAW        -2.0780    3.9330   -3.5710 c3        1 V5X     -0.080400
     21 CAX        -2.9650    4.2340   -2.3790 c3        1 V5X     -0.086400
     22 CAY        -3.9960    5.2970   -2.7260 c3        1 V5X     -0.136400
     23 CAZ        -4.8840    5.5520   -1.5510 c         1 V5X      0.584100
     24 OBE        -4.8800    5.1010   -0.4250 o         1 V5X     -0.373100
     25 NBA        -6.0420    6.5780   -1.7760 n4        1 V5X     -0.473300
     26 OBB        -6.4380    6.4840   -3.0630 oh        1 V5X     -0.368300
     27 C           1.6630    1.2090   -5.4390 c         1 V5X      0.510100
     28 O           1.5540    0.2930   -6.2470 o         1 V5X     -0.397100
     29 NAR         2.7160    2.2270   -5.6670 n4        1 V5X     -0.655800
     30 CAQ         2.3290    3.2030   -6.7470 c3        1 V5X      0.101800
     31 CAP         3.2500    4.4310   -6.7860 c3        1 V5X      0.007800
     32 CAL         2.5830    5.4610   -7.5830 cc        1 V5X     -0.244400
     33 CAM         1.4100    6.2040   -7.1810 ca        1 V5X     -0.080800
     34 CAN         0.6010    6.2130   -6.0440 ca        1 V5X     -0.138000
     35 CAO        -0.4730    7.0890   -5.9890 ca        1 V5X     -0.140000
     36 CAK        -0.7590    7.9630   -7.0530 ca        1 V5X     -0.115000
     37 CAJ         0.0200    7.9910   -8.2000 ca        1 V5X     -0.096000
     38 CAI         1.1110    7.1100   -8.2680 ca        1 V5X     -0.038200
     39 NAH         2.0610    6.9100   -9.2740 na        1 V5X     -0.154400
     40 CAG         2.9600    5.9290   -8.8590 cd        1 V5X      0.108700
     41 CAF         4.0850    5.5130   -9.6860 ca        1 V5X     -0.112800
     42 CAE         3.8750    5.1180  -11.0150 ca        1 V5X     -0.110500
     43 CAD         4.9570    4.7370  -11.8070 ca        1 V5X     -0.122500
     44 CAA         6.2500    4.7580  -11.2840 ca        1 V5X     -0.089000
     45 CAB         6.4630    5.1590   -9.9630 ca        1 V5X     -0.122500
     46 CAC         5.3860    5.5360   -9.1640 ca        1 V5X     -0.110500
     47 HBI1        1.4420    0.1230    2.1420 hc        1 V5X      0.086700
     48 HBI2        1.8850   -1.5130    1.4980 hc        1 V5X      0.086700
     49 HBI3        0.4440   -0.6290    0.8240 hc        1 V5X      0.086700
     50 HBQ         3.6960    1.2270    1.3530 hn        1 V5X      0.337700
     51 HBS         5.6950    2.5920   -0.1630 ha        1 V5X      0.178000
     52 HBT         6.4850    2.8530   -2.5150 ha        1 V5X      0.175000
     53 HBM         3.4100    0.1420   -3.9500 ha        1 V5X      0.110000
     54 HBP1        6.8010    1.6660   -6.0200 h1        1 V5X      0.070700
     55 HBP2        7.0230    2.9190   -4.6860 h1        1 V5X      0.070700
     56 HBP3        7.2850    1.1330   -4.3250 h1        1 V5X      0.070700
     57 HBH1        1.0020   -1.8530   -1.1900 hc        1 V5X      0.119700
     58 HBH2        1.9020   -1.5760   -2.7530 hc        1 V5X      0.119700
     59 H          -0.8840    0.0940   -4.1930 hn        1 V5X      0.468800
     60 HA          1.4270    1.5990   -3.2940 hx        1 V5X      0.163700
     61 HBC1        0.3530    3.4180   -4.6890 hc        1 V5X      0.092200
     62 HBC2       -0.8760    2.2490   -5.3330 hc        1 V5X      0.092200
     63 HAV1       -1.7130    1.8960   -2.9440 hc        1 V5X      0.067200
     64 HAV2       -0.4810    3.0870   -2.3670 hc        1 V5X      0.067200
     65 HAW1       -2.7120    3.6470   -4.4530 hc        1 V5X      0.065200
     66 HAW2       -1.4980    4.8510   -3.8580 hc        1 V5X      0.065200
     67 HAX1       -2.3380    4.5850   -1.5160 hc        1 V5X      0.076700
     68 HAX2       -3.4920    3.2990   -2.0490 hc        1 V5X      0.076700
     69 HAY1       -4.6330    4.9650   -3.5960 hc        1 V5X      0.120700
     70 HAY2       -3.4920    6.2580   -3.0240 hc        1 V5X      0.120700
     71 HBA        -6.8160    6.3600   -1.1160 hn        1 V5X      0.475800
     72 HBB        -7.2660    7.0080   -3.1900 ho        1 V5X      0.491000
     73 HAR         2.9370    2.7240   -4.7920 hn        1 V5X      0.491300
     74 HAQ1        1.2700    3.5390   -6.5530 hx        1 V5X      0.112700
     75 HAQ2        2.3690    2.6540   -7.7310 hx        1 V5X      0.112700
     76 HAP1        3.4360    4.8160   -5.7460 hc        1 V5X      0.073700
     77 HAP2        4.2400    4.1540   -7.2420 hc        1 V5X      0.073700
     78 HAN         0.8340    5.5580   -5.1940 ha        1 V5X      0.087000
     79 HAO        -1.1070    7.1190   -5.0910 ha        1 V5X      0.110000
     80 HAK        -1.6150    8.6520   -6.9680 ha        1 V5X      0.148000
     81 HAJ        -0.2030    8.6860   -9.0230 ha        1 V5X      0.164000
     82 HAH         2.1400    7.4410  -10.1070 hn        1 V5X      0.330700
     83 HAE         2.8580    5.1070  -11.4360 ha        1 V5X      0.138000
     84 HAC         5.5590    5.8840   -8.1340 ha        1 V5X      0.138000
     85 HAD         4.7900    4.4300  -12.8520 ha        1 V5X      0.156500
     86 HAA         7.1060    4.4710  -11.9170 ha        1 V5X      0.162000
     87 HAB         7.4860    5.1960   -9.5590 ha        1 V5X      0.156500
     88 H2          0.5510   -0.7170   -4.4190 hn        1 V5X      0.468800
     89 HBA2       -5.6900    7.5330   -1.5740 hn        1 V5X      0.475800
     90 HAR2        3.5940    1.7440   -5.9570 hn        1 V5X      0.491300
@<TRIPOS>BOND
     1    1    2 1   
     2    1   47 1   
     3    1   48 1   
     4    1   49 1   
     5    2    3 1   
     6    2   12 2   
     7    3    4 1   
     8    3   50 1   
     9    4    5 ar  
    10    4   11 ar  
    11    5    6 ar  
    12    5   51 1   
    13    6    7 ar  
    14    6   52 1   
    15    7    8 1   
    16    7   10 ar  
    17    8    9 1   
    18    9   54 1   
    19    9   55 1   
    20    9   56 1   
    21   10   11 ar  
    22   10   53 1   
    23   11   12 1   
    24   12   13 1   
    25   13   14 1   
    26   13   57 1   
    27   13   58 1   
    28   14   15 2   
    29   14   16 1   
    30   16   17 1   
    31   16   59 1   
    32   16   88 1   
    33   17   18 1   
    34   17   27 1   
    35   17   60 1   
    36   18   19 1   
    37   18   61 1   
    38   18   62 1   
    39   19   20 1   
    40   19   63 1   
    41   19   64 1   
    42   20   21 1   
    43   20   65 1   
    44   20   66 1   
    45   21   22 1   
    46   21   67 1   
    47   21   68 1   
    48   22   23 1   
    49   22   69 1   
    50   22   70 1   
    51   23   24 2   
    52   23   25 1   
    53   25   26 1   
    54   25   71 1   
    55   25   89 1   
    56   26   72 1   
    57   27   28 2   
    58   27   29 1   
    59   29   30 1   
    60   29   73 1   
    61   29   90 1   
    62   30   31 1   
    63   30   74 1   
    64   30   75 1   
    65   31   32 1   
    66   31   76 1   
    67   31   77 1   
    68   32   33 1   
    69   32   40 2   
    70   33   34 ar  
    71   33   38 ar  
    72   34   35 ar  
    73   34   78 1   
    74   35   36 ar  
    75   35   79 1   
    76   36   37 ar  
    77   36   80 1   
    78   37   38 ar  
    79   37   81 1   
    80   38   39 1   
    81   39   40 1   
    82   39   82 1   
    83   40   41 1   
    84   41   42 ar  
    85   41   46 ar  
    86   42   43 ar  
    87   42   83 1   
    88   43   44 ar  
    89   43   85 1   
    90   44   45 ar  
    91   44   86 1   
    92   45   46 ar  
    93   45   87 1   
    94   46   84 1   
@<TRIPOS>SUBSTRUCTURE
     1 V5X         1 TEMP              0 ****  ****    0 ROOT
