@<TRIPOS>MOLECULE
V63
   34    28     1     0     0
SMALL
bcc


@<TRIPOS>ATOM
      1 C3          0.4740    0.8840    0.5050 c1        1 V63     -0.131000
      2 C11         1.6050   -0.4160    2.5890 c2        1 V63     -0.464000
      3 C1          0.1700   -0.4120    2.4650 c2        1 V63      0.046000
      4 C13        -1.3600   -2.0480    4.7750 c1        1 V63     -0.093000
      5 C10        -5.6010    0.6770   -0.1030 c2        1 V63      0.126000
      6 C7          2.4510    0.1790    1.7480 c1        1 V63      0.216000
      7 C8         -6.1610   -0.6390    2.0600 c1        1 V63      0.156000
      8 C6         -6.4510   -2.8640    4.6320 c2        1 V63     -0.289000
      9 C2          1.3480    1.3680   -0.1640 c1        1 V63     -0.137000
     10 C4         -5.3260   -2.3020    6.7660 c1        1 V63     -0.241000
     11 C14        -0.3960    0.2470    1.4100 c2        1 V63     -0.114000
     12 C80        -5.8810    0.0190    1.0020 c1        1 V63     -0.567000
     13 O15        -2.4490    0.8330    0.2310 o         1 V63     -0.390000
     14 N          -5.9890   -2.5550    5.7840 n2        1 V63      0.002000
     15 O17        -2.6140   -0.2740    2.1310 oh        1 V63     -0.330000
     16 H1         -0.4310   -0.9480    3.2380 ha        1 V63      0.215000
     17 H11         2.0220   -0.9660    3.4580 ha        1 V63      0.199000
     18 H2          4.5710    1.5820   -0.2500 ha        1 V63      0.003750
     19 H3          4.1490    1.2780    0.1850 ha        1 V63      0.003750
     20 H7          2.0980    1.8070   -0.7740 ha        1 V63      0.238000
     21 H4         -2.9040   -0.7660    4.3980 hc        1 V63      0.126333
     22 H101       -4.5770    1.0300   -0.3360 ha        1 V63      0.139000
     23 H102       -6.3720    0.9050   -0.8600 ha        1 V63      0.139000
     24 H          -5.5160   -1.9540    7.7710 ha        1 V63      0.199000
     25 H6         -6.9020    0.7170    3.8100 ha        1 V63      0.003750
     26 H81C       -6.7310    1.2310    3.4000 ha        1 V63      0.003750
     27 H82C       -6.7540   -3.9000    4.4230 h4        1 V63      0.163000
     28 H131       -6.5390   -2.0980    3.8400 h4        1 V63      0.163000
     29 H132       -1.5180   -3.1320    4.8740 ha        1 V63      0.047000
     30 H80        -3.5530   -0.1960    1.8780 ho        1 V63      0.251000
     31 C5         -1.8350    0.3160    1.1740 c2        1 V63      0.382000
     32 C12        -2.3730   -1.1810    5.3090 c3        1 V63     -0.319000
     33 H121       -3.1390   -1.6390    5.9880 hc        1 V63      0.126333
     34 H122       -1.8970   -0.3070    5.8270 hc        1 V63      0.126333
@<TRIPOS>BOND
     1    1    9 1   
     2    1   11 1   
     3    2    3 1   
     4    2    6 1   
     5    2   17 1   
     6    3   11 1   
     7    3   16 1   
     8    4   29 1   
     9    4   32 1   
    10    5   12 1   
    11    5   22 1   
    12    5   23 1   
    13    7   12 1   
    14    8   14 1   
    15    8   27 1   
    16    8   28 1   
    17    9   20 1   
    18   10   14 1   
    19   10   24 1   
    20   11   31 1   
    21   13   31 1   
    22   15   30 1   
    23   15   31 1   
    24   18   19 1   
    25   21   32 1   
    26   25   26 1   
    27   32   33 1   
    28   32   34 1   
@<TRIPOS>SUBSTRUCTURE
     1 V63         1 TEMP              0 ****  ****    0 ROOT
