@<TRIPOS>MOLECULE
V63
   34    32     1     0     0
SMALL
bcc


@<TRIPOS>ATOM
      1 C3         -0.4220    0.2430   -0.9610 c1        1 V63     -0.052000
      2 C11         1.3990   -0.5920    3.1770 c1        1 V63     -0.577000
      3 C1          0.3450   -0.6650    3.9600 c2        1 V63      0.123000
      4 C13        -2.6430   -2.2650    5.6630 c3        1 V63     -0.180500
      5 C10        -5.0670    2.7440    1.2230 c1        1 V63     -0.175000
      6 C7          2.4250   -0.5210    2.4180 c1        1 V63      0.188000
      7 C8         -4.3910    0.3010    0.5080 c3        1 V63      0.091000
      8 C6         -3.2690   -2.3300    4.2570 c3        1 V63     -0.092000
      9 C2         -0.1270    0.4540   -2.2050 c2        1 V63     -0.170000
     10 C4         -4.6180   -0.8370    5.4890 c3        1 V63     -0.092000
     11 C14        -0.6860    0.0270    0.2990 c2        1 V63     -0.173000
     12 C80        -4.7470    1.6390    0.8970 c1        1 V63     -0.200000
     13 O15        -3.0490    0.2350   -0.0000 os        1 V63     -0.261000
     14 N          -4.3180   -1.3200    4.1430 n3        1 V63     -0.281000
     15 O17        -2.3100   -0.1670    2.0760 o         1 V63     -0.392000
     16 H1         -0.6910   -0.6270    3.5660 ha        1 V63      0.133000
     17 H11         0.4340   -0.7670    5.0560 ha        1 V63      0.133000
     18 H2          0.0770    1.4630   -2.5960 ha        1 V63      0.151000
     19 H3          0.1200   -0.1720    1.0360 ha        1 V63      0.186000
     20 H7         -0.0640   -0.3630   -2.9400 ha        1 V63      0.151000
     21 H4         -4.7130    0.2810    5.5130 h1        1 V63      0.085250
     22 H101       -5.3550    3.7230    1.5130 ha        1 V63      0.224000
     23 H102       -5.6120   -1.2720    5.7870 h1        1 V63      0.085250
     24 H          -4.0000   -0.5620    3.5640 hn        1 V63      0.160000
     25 H6         -2.4860   -2.1890    3.4630 h1        1 V63      0.085250
     26 H81C       -5.0070   -0.0350   -0.3750 h1        1 V63      0.128500
     27 H82C       -3.7480   -3.3350    4.0990 h1        1 V63      0.085250
     28 H131       -2.6110   -3.2800    6.1260 hc        1 V63      0.081000
     29 H132       -1.5940   -1.8820    5.6040 hc        1 V63      0.081000
     30 H80        -4.5190   -0.4130    1.3700 h1        1 V63      0.128500
     31 C5         -2.0300    0.0250    0.8860 c2        1 V63      0.364000
     32 C12        -3.5260   -1.3160    6.4640 c3        1 V63     -0.180500
     33 H121       -3.9860   -1.8330    7.3400 hc        1 V63      0.081000
     34 H122       -2.9370   -0.4490    6.8510 hc        1 V63      0.081000
@<TRIPOS>BOND
     1    1    9 1   
     2    1   11 1   
     3    2    3 1   
     4    2    6 1   
     5    3   16 1   
     6    3   17 1   
     7    4    8 1   
     8    4   28 1   
     9    4   29 1   
    10    4   32 1   
    11    5   12 1   
    12    5   22 1   
    13    7   12 1   
    14    7   13 1   
    15    7   26 1   
    16    7   30 1   
    17    8   14 1   
    18    8   25 1   
    19    8   27 1   
    20    9   18 1   
    21    9   20 1   
    22   10   14 1   
    23   10   21 1   
    24   10   23 1   
    25   10   32 1   
    26   11   19 1   
    27   11   31 1   
    28   13   31 1   
    29   14   24 1   
    30   15   31 1   
    31   32   33 1   
    32   32   34 1   
@<TRIPOS>SUBSTRUCTURE
     1 V63         1 TEMP              0 ****  ****    0 ROOT
