@<TRIPOS>MOLECULE
V63
   34    36     1     0     0
SMALL
bcc


@<TRIPOS>ATOM
      1 C3          3.3390    1.1840   -0.1760 ca        1 V63     -0.073000
      2 C11         3.4590   -1.5540    0.3740 ca        1 V63     -0.147500
      3 C1          2.2260   -0.9040    0.3690 ca        1 V63     -0.073000
      4 C13        -2.0050   -1.4280   -1.2500 c3        1 V63     -0.110900
      5 C10        -2.3080    0.2550    1.4740 c3        1 V63     -0.072900
      6 C7          4.6280   -0.8410    0.1060 ca        1 V63     -0.098000
      7 C8         -2.0740    1.0780   -0.9700 c3        1 V63     -0.072900
      8 C6         -2.9100   -0.1640   -1.3080 c3        1 V63      0.144500
      9 C2          4.5680    0.5260   -0.1690 ca        1 V63     -0.147500
     10 C4         -3.1140   -0.8910    0.8480 c3        1 V63      0.144500
     11 C14         2.1650    0.4680    0.0940 ca        1 V63     -0.135600
     12 C80        -1.4970    1.0490    0.4460 c3        1 V63      0.161100
     13 O15         0.6950    2.3770   -0.2060 o         1 V63     -0.549000
     14 N          -3.9320   -0.3390   -0.2530 n3        1 V63     -0.772200
     15 O17        -0.1920    0.4190    0.4270 os        1 V63     -0.447900
     16 H1          1.2980   -1.4590    0.5790 ha        1 V63      0.155500
     17 H11         3.5090   -2.6310    0.5900 ha        1 V63      0.138500
     18 H2          5.4900    1.0870   -0.3800 ha        1 V63      0.138500
     19 H3          3.2760    2.2630   -0.3930 ha        1 V63      0.155500
     20 H7          5.6000   -1.3570    0.1120 ha        1 V63      0.136000
     21 H4         -3.7600   -1.3730    1.6260 h1        1 V63      0.064200
     22 H101       -3.0100    0.9660    1.9820 hc        1 V63      0.060450
     23 H102       -1.6160   -0.1690    2.2470 hc        1 V63      0.060450
     24 H          -4.6080   -1.0210   -0.5470 hn        1 V63      0.347800
     25 H6         -3.3890   -0.0410   -2.3130 h1        1 V63      0.064200
     26 H81C       -1.2350    1.1680   -1.7060 hc        1 V63      0.060450
     27 H82C       -2.7190    1.9900   -1.0670 hc        1 V63      0.060450
     28 H131       -2.3630   -2.2000   -1.9720 hc        1 V63      0.050200
     29 H132       -0.9490   -1.1720   -1.4990 hc        1 V63      0.050200
     30 H80        -1.3690    2.1090    0.8080 h1        1 V63      0.070700
     31 C5          0.8830    1.1900    0.0780 c         1 V63      0.646700
     32 C12        -2.1350   -1.9110    0.1970 c3        1 V63     -0.110900
     33 H121       -2.5540   -2.9430    0.2470 hc        1 V63      0.050200
     34 H122       -1.1470   -1.9000    0.7160 hc        1 V63      0.050200
@<TRIPOS>BOND
     1    1    9 ar  
     2    1   11 ar  
     3    1   19 1   
     4    2    3 ar  
     5    2    6 ar  
     6    2   17 1   
     7    3   11 ar  
     8    3   16 1   
     9    4    8 1   
    10    4   28 1   
    11    4   29 1   
    12    4   32 1   
    13    5   10 1   
    14    5   12 1   
    15    5   22 1   
    16    5   23 1   
    17    6    9 ar  
    18    6   20 1   
    19    7    8 1   
    20    7   12 1   
    21    7   26 1   
    22    7   27 1   
    23    8   14 1   
    24    8   25 1   
    25    9   18 1   
    26   10   14 1   
    27   10   21 1   
    28   10   32 1   
    29   11   31 1   
    30   12   15 1   
    31   12   30 1   
    32   13   31 2   
    33   14   24 1   
    34   15   31 1   
    35   32   33 1   
    36   32   34 1   
@<TRIPOS>SUBSTRUCTURE
     1 V63         1 TEMP              0 ****  ****    0 ROOT
