@<TRIPOS>MOLECULE
V65
   58    61     1     0     0
SMALL
bcc


@<TRIPOS>ATOM
      1 C1          0.2530    0.2110   -0.1190 c         1 V65      0.474600
      2 N2          1.5790   -0.5210   -0.1530 nz        1 V65     -0.752400
      3 C4         -0.5130    0.0480    1.1710 ca        1 V65      0.662500
      4 N5         -1.8500    0.0160    1.0320 nb        1 V65     -0.755000
      5 C6         -2.5560   -0.0950    2.2580 ca        1 V65      0.960900
      6 N10        -3.9330   -0.1960    2.2220 nh        1 V65     -0.715300
      7 C14        -4.7160   -0.0640    0.9890 c3        1 V65      0.227500
      8 C15        -4.5130   -1.2130   -0.0120 c3        1 V65     -0.090900
      9 C16        -5.5680   -1.1150   -1.0980 c3        1 V65     -0.079400
     10 C17        -5.5160    0.2230   -1.8050 c3        1 V65     -0.082400
     11 C18        -5.6270    1.3730   -0.8260 c3        1 V65     -0.079400
     12 C19        -4.5720    1.2820    0.2610 c3        1 V65     -0.090900
     13 C12        -4.6920   -0.2150    3.4700 c3        1 V65      0.260100
     14 C22        -4.9680    1.1350    4.0640 ca        1 V65     -0.131300
     15 C23        -5.9170    1.9830    3.4840 ca        1 V65     -0.101000
     16 C24        -6.2070    3.2180    4.0590 ca        1 V65     -0.126000
     17 C25        -5.5410    3.6090    5.2260 ca        1 V65      0.032400
     18 Cl         -5.8890    5.1110    5.9310 cl        1 V65     -0.067400
     19 C26        -4.5930    2.7670    5.8150 ca        1 V65     -0.126000
     20 C27        -4.3090    1.5340    5.2310 ca        1 V65     -0.101000
     21 N7         -1.9090   -0.1510    3.4870 nb        1 V65     -0.817000
     22 C8         -0.5250   -0.1030    3.4820 ca        1 V65      0.957900
     23 N29         0.1440   -0.0650    4.7050 nh        1 V65     -0.720300
     24 C30         1.5880   -0.2310    4.7270 c3        1 V65      0.172300
     25 C31         2.2200    0.1040    6.0870 c3        1 V65      0.113900
     26 O32         1.5290   -0.5240    7.1550 os        1 V65     -0.391600
     27 C33         0.1720   -0.1060    7.2060 c3        1 V65      0.113900
     28 C34        -0.5780   -0.4460    5.9110 c3        1 V65      0.172300
     29 N9          0.2390   -0.0330    2.3010 nb        1 V65     -0.872000
     30 OXT        -0.0320    0.8430   -1.1160 o         1 V65     -0.360100
     31 H21N        2.2100   -0.1070    0.5460 hn        1 V65      0.474133
     32 H22N        2.0070   -0.4490   -1.0830 hn        1 V65      0.474133
     33 H14        -5.8020   -0.1260    1.3240 h1        1 V65      0.069700
     34 H121       -5.6780   -0.7250    3.2550 h1        1 V65      0.080200
     35 H122       -4.1530   -0.8590    4.2250 h1        1 V65      0.080200
     36 H151       -4.6010   -2.2000    0.5100 hc        1 V65      0.055700
     37 H152       -3.5000   -1.1590   -0.4840 hc        1 V65      0.055700
     38 H191       -4.7070    2.1260    0.9880 hc        1 V65      0.055700
     39 H192       -3.5610    1.3840   -0.2050 hc        1 V65      0.055700
     40 H161       -5.4050   -1.9400   -1.8410 hc        1 V65      0.050450
     41 H162       -6.5860   -1.2660   -0.6510 hc        1 V65      0.050450
     42 H171       -4.5520    0.3080   -2.3720 hc        1 V65      0.049700
     43 H172       -6.3510    0.2850   -2.5500 hc        1 V65      0.049700
     44 H181       -6.6490    1.3760   -0.3620 hc        1 V65      0.050450
     45 H182       -5.5050    2.3450   -1.3720 hc        1 V65      0.050450
     46 H23        -6.4450    1.6740    2.5680 ha        1 V65      0.137500
     47 H27        -3.5630    0.8700    5.6950 ha        1 V65      0.137500
     48 H24        -6.9580    3.8790    3.5990 ha        1 V65      0.156000
     49 H26        -4.0750    3.0730    6.7370 ha        1 V65      0.156000
     50 H301        2.0570    0.4550    3.9670 h1        1 V65      0.064700
     51 H302        1.8470   -1.2960    4.4600 h1        1 V65      0.064700
     52 H341       -1.5650    0.0960    5.9440 h1        1 V65      0.064700
     53 H342       -0.7800   -1.5560    5.8860 h1        1 V65      0.064700
     54 H311        3.2590   -0.3180    6.1310 h1        1 V65      0.072200
     55 H312        2.2460    1.2150    6.2460 h1        1 V65      0.072200
     56 H331       -0.2710   -0.6860    8.0590 h1        1 V65      0.072200
     57 H332        0.1190    0.9950    7.4180 h1        1 V65      0.072200
     58 H231        1.4350   -1.5060    0.0870 hn        1 V65      0.474133
@<TRIPOS>BOND
     1    1    2 1   
     2    1    3 1   
     3    1   30 2   
     4    2   31 1   
     5    2   32 1   
     6    2   58 1   
     7    3    4 ar  
     8    3   29 ar  
     9    4    5 ar  
    10    5    6 1   
    11    5   21 ar  
    12    6    7 1   
    13    6   13 1   
    14    7    8 1   
    15    7   12 1   
    16    7   33 1   
    17    8    9 1   
    18    8   36 1   
    19    8   37 1   
    20    9   10 1   
    21    9   40 1   
    22    9   41 1   
    23   10   11 1   
    24   10   42 1   
    25   10   43 1   
    26   11   12 1   
    27   11   44 1   
    28   11   45 1   
    29   12   38 1   
    30   12   39 1   
    31   13   14 1   
    32   13   34 1   
    33   13   35 1   
    34   14   15 ar  
    35   14   20 ar  
    36   15   16 ar  
    37   15   46 1   
    38   16   17 ar  
    39   16   48 1   
    40   17   18 1   
    41   17   19 ar  
    42   19   20 ar  
    43   19   49 1   
    44   20   47 1   
    45   21   22 ar  
    46   22   23 1   
    47   22   29 ar  
    48   23   24 1   
    49   23   28 1   
    50   24   25 1   
    51   24   50 1   
    52   24   51 1   
    53   25   26 1   
    54   25   54 1   
    55   25   55 1   
    56   26   27 1   
    57   27   28 1   
    58   27   56 1   
    59   27   57 1   
    60   28   52 1   
    61   28   53 1   
@<TRIPOS>SUBSTRUCTURE
     1 V65         1 TEMP              0 ****  ****    0 ROOT
