@<TRIPOS>MOLECULE
V65
   57    60     1     0     0
SMALL
bcc


@<TRIPOS>ATOM
      1 C1         -2.8680   -2.6120    1.9410 c         1 V65      0.593600
      2 N2         -4.0400   -3.1960    1.5450 n         1 V65     -0.656000
      3 C4         -2.2900   -1.5590    0.9920 ca        1 V65      0.677500
      4 N5         -1.1400   -1.8890    0.3590 nb        1 V65     -0.771000
      5 C6         -0.6190   -0.8880   -0.4700 ca        1 V65      0.938900
      6 N10         0.5220   -1.1710   -1.2310 nh        1 V65     -0.745300
      7 C14         1.3270   -2.3720   -1.0070 c3        1 V65      0.242500
      8 C15         0.6290   -3.6790   -1.4170 c3        1 V65     -0.095400
      9 C16         1.6420   -4.8080   -1.4100 c3        1 V65     -0.074900
     10 C17         2.2860   -4.9620   -0.0470 c3        1 V65     -0.080400
     11 C18         2.9120   -3.6640    0.4190 c3        1 V65     -0.074900
     12 C19         1.9060   -2.5290    0.4080 c3        1 V65     -0.095400
     13 C12         1.1660   -0.1030   -1.9760 c3        1 V65      0.264100
     14 C22         2.0890    0.7860   -1.1900 ca        1 V65     -0.118300
     15 C23         3.3880    0.3620   -0.8860 ca        1 V65     -0.102000
     16 C24         4.2630    1.1980   -0.1970 ca        1 V65     -0.129500
     17 C25         3.8330    2.4710    0.1950 ca        1 V65      0.025400
     18 CL          4.8960    3.4980    1.0340 cl        1 V65     -0.092400
     19 C26         2.5370    2.9030   -0.1000 ca        1 V65     -0.129500
     20 C27         1.6700    2.0580   -0.7910 ca        1 V65     -0.102000
     21 N7         -1.2190    0.3550   -0.6260 nb        1 V65     -0.838000
     22 C8         -2.3910    0.5660    0.0800 ca        1 V65      0.918900
     23 N29        -2.9750    1.8530    0.0280 nh        1 V65     -0.726300
     24 C30        -4.3360    1.9920    0.5250 c3        1 V65      0.168300
     25 C31        -4.7930    3.4550    0.6040 c3        1 V65      0.117400
     26 O32        -4.5540    4.1540   -0.6110 os        1 V65     -0.409600
     27 C33        -3.1780    4.1290   -0.9650 c3        1 V65      0.117400
     28 C34        -2.6480    2.6960   -1.1110 c3        1 V65      0.168300
     29 N9         -2.9870   -0.3970    0.8960 nb        1 V65     -0.805000
     30 OXT        -2.2810   -2.9150    2.9910 o         1 V65     -0.573100
     31 H21N       -4.5470   -2.8390    0.7760 hn        1 V65      0.317500
     32 H22N       -4.4870   -3.8370    2.1530 hn        1 V65      0.317500
     33 H14         2.2200   -2.2630   -1.7040 h1        1 V65      0.046700
     34 H121        1.7610   -0.5880   -2.8070 h1        1 V65      0.069700
     35 H122        0.3760    0.5310   -2.4730 h1        1 V65      0.069700
     36 H151       -0.2000   -3.9300   -0.7090 hc        1 V65      0.062200
     37 H152        0.1890   -3.5750   -2.4420 hc        1 V65      0.062200
     38 H191        2.4110   -1.5770    0.7190 hc        1 V65      0.062200
     39 H192        1.0960   -2.7490    1.1490 hc        1 V65      0.062200
     40 H161        1.1270   -5.7640   -1.6920 hc        1 V65      0.038950
     41 H162        2.4340   -4.6150   -2.1810 hc        1 V65      0.038950
     42 H171        1.5110   -5.2880    0.6950 hc        1 V65      0.045200
     43 H172        3.0700   -5.7630   -0.0910 hc        1 V65      0.045200
     44 H181        3.3090   -3.7920    1.4590 hc        1 V65      0.038950
     45 H182        3.7800   -3.4060   -0.2430 hc        1 V65      0.038950
     46 H23         3.7230   -0.6410   -1.1910 ha        1 V65      0.142500
     47 H27         0.6460    2.3950   -1.0170 ha        1 V65      0.142500
     48 H24         5.2820    0.8580    0.0380 ha        1 V65      0.148000
     49 H26         2.1990    3.9020    0.2140 ha        1 V65      0.148000
     50 H301       -5.0520    1.4240   -0.1360 h1        1 V65      0.062950
     51 H302       -4.3950    1.5640    1.5650 h1        1 V65      0.062950
     52 H341       -1.5280    2.7620   -1.2160 h1        1 V65      0.062950
     53 H342       -3.0660    2.2500   -2.0590 h1        1 V65      0.062950
     54 H311       -5.9050    3.4940    0.7390 h1        1 V65      0.060200
     55 H312       -4.2810    3.9850    1.4510 h1        1 V65      0.060200
     56 H331       -3.1310    4.6510   -1.9560 h1        1 V65      0.060200
     57 H332       -2.5820    4.6950   -0.2010 h1        1 V65      0.060200
@<TRIPOS>BOND
     1    1    2 1   
     2    1    3 1   
     3    1   30 2   
     4    2   31 1   
     5    2   32 1   
     6    3    4 ar  
     7    3   29 ar  
     8    4    5 ar  
     9    5    6 1   
    10    5   21 ar  
    11    6    7 1   
    12    6   13 1   
    13    7    8 1   
    14    7   12 1   
    15    7   33 1   
    16    8    9 1   
    17    8   36 1   
    18    8   37 1   
    19    9   10 1   
    20    9   40 1   
    21    9   41 1   
    22   10   11 1   
    23   10   42 1   
    24   10   43 1   
    25   11   12 1   
    26   11   44 1   
    27   11   45 1   
    28   12   38 1   
    29   12   39 1   
    30   13   14 1   
    31   13   34 1   
    32   13   35 1   
    33   14   15 ar  
    34   14   20 ar  
    35   15   16 ar  
    36   15   46 1   
    37   16   17 ar  
    38   16   48 1   
    39   17   18 1   
    40   17   19 ar  
    41   19   20 ar  
    42   19   49 1   
    43   20   47 1   
    44   21   22 ar  
    45   22   23 1   
    46   22   29 ar  
    47   23   24 1   
    48   23   28 1   
    49   24   25 1   
    50   24   50 1   
    51   24   51 1   
    52   25   26 1   
    53   25   54 1   
    54   25   55 1   
    55   26   27 1   
    56   27   28 1   
    57   27   56 1   
    58   27   57 1   
    59   28   52 1   
    60   28   53 1   
@<TRIPOS>SUBSTRUCTURE
     1 V65         1 TEMP              0 ****  ****    0 ROOT
