@<TRIPOS>MOLECULE
V65
   59    62     1     0     0
SMALL
bcc


@<TRIPOS>ATOM
      1 C1          0.2970   -2.2040    0.0180 c         1 V65      0.459600
      2 N2          1.5720   -2.8910    0.4190 n4        1 V65     -0.743400
      3 C4         -0.4810   -1.5590    1.1470 ca        1 V65      0.680500
      4 N5         -1.8360   -1.5990    1.0030 nb        1 V65     -0.747000
      5 C6         -2.5150   -0.9370    2.0230 ca        1 V65      0.833900
      6 N10        -4.0100   -0.9620    1.8970 n4        1 V65     -0.686100
      7 C14        -4.5350    0.2650    1.1570 c3        1 V65      0.136500
      8 C15        -4.4920    0.0480   -0.3620 c3        1 V65     -0.094900
      9 C16        -5.1920    1.2080   -1.0470 c3        1 V65     -0.079900
     10 C17        -4.5690    2.5350   -0.6730 c3        1 V65     -0.091400
     11 C18        -4.5340    2.7240    0.8290 c3        1 V65     -0.079900
     12 C19        -3.8270    1.5700    1.5170 c3        1 V65     -0.094900
     13 C12        -4.7160   -1.2690    3.2090 c3        1 V65      0.199100
     14 C22        -5.3720   -0.1300    3.9000 ca        1 V65     -0.182300
     15 C23        -6.7390    0.1080    3.6880 ca        1 V65     -0.088000
     16 C24        -7.4020    1.1000    4.4030 ca        1 V65     -0.124000
     17 C25        -6.7010    1.8660    5.3450 ca        1 V65      0.062400
     18 CL         -7.4980    3.0690    6.2150 cl        1 V65     -0.008400
     19 C26        -5.3380    1.6270    5.5680 ca        1 V65     -0.124000
     20 C27        -4.6810    0.6320    4.8500 ca        1 V65     -0.088000
     21 N7         -1.9530   -0.3090    3.0770 nb        1 V65     -0.729000
     22 C8         -0.5330   -0.3240    3.1250 ca        1 V65      0.937900
     23 N29         0.0980    0.3500    4.1310 nh        1 V65     -0.658300
     24 C30         1.5460    0.2420    4.2920 c3        1 V65      0.156300
     25 C31         2.1620    1.3330    5.1830 c3        1 V65      0.110900
     26 O32         1.4010    1.5230    6.3640 os        1 V65     -0.369600
     27 C33         0.0910    1.9690    6.0590 c3        1 V65      0.110900
     28 C34        -0.6770    0.9310    5.2260 c3        1 V65      0.156300
     29 N9          0.2340   -0.9940    2.1430 nb        1 V65     -0.791000
     30 OXT         0.0070   -2.2100   -1.1610 o         1 V65     -0.319100
     31 H21N        1.9920   -3.3600   -0.3980 hn        1 V65      0.486800
     32 H22N        1.3870   -3.5870    1.1510 hn        1 V65      0.486800
     33 H14        -5.6210    0.3440    1.4780 hx        1 V65      0.122700
     34 H121       -5.5050   -2.0340    2.9340 hx        1 V65      0.105700
     35 H122       -3.9730   -1.7610    3.9000 hx        1 V65      0.105700
     36 H151       -5.0090   -0.9080   -0.6440 hc        1 V65      0.062200
     37 H152       -3.4310   -0.0120   -0.7180 hc        1 V65      0.062200
     38 H191       -2.7600    1.5390    1.1740 hc        1 V65      0.062200
     39 H192       -3.8450    1.7280    2.6290 hc        1 V65      0.062200
     40 H161       -5.1280    1.0590   -2.1580 hc        1 V65      0.071450
     41 H162       -6.2800    1.2080   -0.7730 hc        1 V65      0.071450
     42 H171       -3.5280    2.5950   -1.0870 hc        1 V65      0.068700
     43 H172       -5.1610    3.3680   -1.1390 hc        1 V65      0.068700
     44 H181       -3.9930    3.6760    1.0780 hc        1 V65      0.071450
     45 H182       -5.5790    2.8200    1.2260 hc        1 V65      0.071450
     46 H23        -7.3070   -0.5040    2.9680 ha        1 V65      0.141000
     47 H27        -3.6160    0.4360    5.0520 ha        1 V65      0.141000
     48 H24        -8.4790    1.2740    4.2380 ha        1 V65      0.174000
     49 H26        -4.7910    2.2170    6.3220 ha        1 V65      0.174000
     50 H301        1.7660   -0.7680    4.7460 h1        1 V65      0.082200
     51 H302        2.0500    0.3110    3.2870 h1        1 V65      0.082200
     52 H341       -1.0060    0.0870    5.8990 h1        1 V65      0.082200
     53 H342       -1.5920    1.4470    4.8150 h1        1 V65      0.082200
     54 H311        2.2560    2.2980    4.6180 h1        1 V65      0.089700
     55 H312        3.1710    0.9930    5.5420 h1        1 V65      0.089700
     56 H331        0.1280    2.9550    5.5250 h1        1 V65      0.089700
     57 H332       -0.4110    2.0870    7.0580 h1        1 V65      0.089700
     58 H231        2.2400   -2.1990    0.7860 hn        1 V65      0.486800
     59 H101       -4.2210   -1.7660    1.2760 hn        1 V65      0.468800
@<TRIPOS>BOND
     1    1    2 1   
     2    1    3 1   
     3    1   30 2   
     4    2   31 1   
     5    2   32 1   
     6    2   58 1   
     7    3    4 ar  
     8    3   29 ar  
     9    4    5 ar  
    10    5    6 1   
    11    5   21 ar  
    12    6    7 1   
    13    6   13 1   
    14    6   59 1   
    15    7    8 1   
    16    7   12 1   
    17    7   33 1   
    18    8    9 1   
    19    8   36 1   
    20    8   37 1   
    21    9   10 1   
    22    9   40 1   
    23    9   41 1   
    24   10   11 1   
    25   10   42 1   
    26   10   43 1   
    27   11   12 1   
    28   11   44 1   
    29   11   45 1   
    30   12   38 1   
    31   12   39 1   
    32   13   14 1   
    33   13   34 1   
    34   13   35 1   
    35   14   15 ar  
    36   14   20 ar  
    37   15   16 ar  
    38   15   46 1   
    39   16   17 ar  
    40   16   48 1   
    41   17   18 1   
    42   17   19 ar  
    43   19   20 ar  
    44   19   49 1   
    45   20   47 1   
    46   21   22 ar  
    47   22   23 1   
    48   22   29 ar  
    49   23   24 1   
    50   23   28 1   
    51   24   25 1   
    52   24   50 1   
    53   24   51 1   
    54   25   26 1   
    55   25   54 1   
    56   25   55 1   
    57   26   27 1   
    58   27   28 1   
    59   27   56 1   
    60   27   57 1   
    61   28   52 1   
    62   28   53 1   
@<TRIPOS>SUBSTRUCTURE
     1 V65         1 TEMP              0 ****  ****    0 ROOT
