@<TRIPOS>MOLECULE
V65
   57    55     1     0     0
SMALL
bcc


@<TRIPOS>ATOM
      1 C1          2.7340    2.5130   -0.7330 c1        1 V65      0.380000
      2 N2          4.0790    2.4980   -0.8730 n2        1 V65     -0.418000
      3 C4          1.9920    1.2550   -0.1100 c2        1 V65      0.063000
      4 N5          0.6420    1.1910   -0.1500 n1        1 V65     -0.276000
      5 C6          0.0080    0.0370    0.1630 c1        1 V65      0.227000
      6 N10        -1.4500   -0.0090    0.1850 n3        1 V65     -0.249000
      7 C14        -2.0920    0.0420   -0.8890 c3        1 V65      0.050000
      8 C15        -1.9170   -1.2550   -1.7370 c3        1 V65     -0.166000
      9 C16        -2.6620   -1.2030   -3.0810 c3        1 V65     -0.154500
     10 C17        -2.9560    0.0780   -3.4360 c3        1 V65     -0.158000
     11 C18        -2.1380    1.1440   -3.2660 c3        1 V65     -0.154500
     12 C19        -1.3980    1.0710   -1.9680 c3        1 V65     -0.166000
     13 C12        -2.1810   -0.2260    1.4920 c3        1 V65      0.024000
     14 C22        -2.8800    1.0800    1.9210 c2        1 V65     -0.111000
     15 C23        -4.1890    1.3660    1.4540 c2        1 V65     -0.113000
     16 C24        -4.8810    2.4700    1.9510 c1        1 V65     -0.129000
     17 C25        -4.2660    3.3200    2.9410 c1        1 V65     -0.055000
     18 CL         -5.1620    4.7190    3.6030 cl        1 V65     -0.014000
     19 C26        -2.9800    3.0400    3.4010 c1        1 V65     -0.129000
     20 C27        -2.2760    1.9240    2.9000 c1        1 V65     -0.098000
     21 N7          0.7470   -1.0860    0.5290 n1        1 V65     -0.328000
     22 C8          2.0960   -1.0230    0.5700 c1        1 V65      0.217000
     23 N29         2.8560   -2.1390    1.0390 n3        1 V65     -0.248000
     24 C30         4.1530   -1.6130    1.7270 c3        1 V65     -0.051500
     25 C31         5.0930   -2.7250    2.1420 c3        1 V65     -0.037000
     26 O32         4.8470   -3.7940    1.5110 os        1 V65     -0.277000
     27 C33         4.5310   -3.9100    0.2680 c3        1 V65     -0.037000
     28 C34         3.5800   -2.8080   -0.1600 c3        1 V65     -0.051500
     29 N9          2.7290    0.1320    0.2550 n2        1 V65     -0.258000
     30 OXT         2.1270    3.3500   -1.2090 o         1 V65     -0.336000
     31 H21N        4.5620    1.7020   -0.7030 hn        1 V65      0.231500
     32 H22N        4.5130    3.2510   -1.0290 hn        1 V65      0.231500
     33 H14        -3.0500    0.2530   -0.7410 h1        1 V65      0.092000
     34 H121       -2.8480   -0.9250    1.3770 h1        1 V65      0.109000
     35 H122       -1.5110   -0.5080    2.2160 h1        1 V65      0.109000
     36 H151       -1.0070   -1.3850   -1.9030 hc        1 V65      0.094750
     37 H152       -2.2720   -2.0520   -1.1950 hc        1 V65      0.094750
     38 H191       -0.4180    0.7490   -2.1600 hc        1 V65      0.094750
     39 H192       -1.3620    2.0120   -1.5530 hc        1 V65      0.094750
     40 H161       -3.5800   -1.7720   -2.9990 hc        1 V65      0.082000
     41 H162       -2.0980   -1.6000   -3.7690 hc        1 V65      0.082000
     42 H171       -3.1750    0.0470   -4.4310 hc        1 V65      0.078000
     43 H172       -3.8080    0.3060   -2.9610 hc        1 V65      0.078000
     44 H181       -2.6940    2.0020   -3.2860 hc        1 V65      0.082000
     45 H182       -1.5050    1.1680   -3.9820 hc        1 V65      0.082000
     46 H23        -4.6080    0.7870    0.7820 ha        1 V65      0.135000
     47 H27        -1.4090    1.7360    3.2130 ha        1 V65      0.156000
     48 H24        -5.7760    2.6660    1.6320 ha        1 V65      0.148000
     49 H26        -2.6140    3.5530    3.9940 ha        1 V65      0.149000
     50 H301        4.6660   -0.9680    1.0460 h1        1 V65      0.110000
     51 H302        3.8950   -1.0810    2.5460 h1        1 V65      0.110000
     52 H341        2.8770   -3.2080   -0.7890 h1        1 V65      0.110000
     53 H342        4.0630   -2.1530   -0.6250 h1        1 V65      0.110000
     54 H311        5.9620   -2.4660    1.9730 h1        1 V65      0.096500
     55 H312        4.9930   -2.8840    3.0600 h1        1 V65      0.096500
     56 H331        5.3360   -3.8580   -0.2700 h1        1 V65      0.096500
     57 H332        4.0850   -4.8130    0.1180 h1        1 V65      0.096500
@<TRIPOS>BOND
     1    1    3 1   
     2    1   30 1   
     3    2   31 1   
     4    2   32 1   
     5    3    4 1   
     6    3   29 1   
     7    5    6 1   
     8    5   21 1   
     9    6    7 1   
    10    6   13 1   
    11    7    8 1   
    12    7   12 1   
    13    7   33 1   
    14    8    9 1   
    15    8   36 1   
    16    8   37 1   
    17    9   10 1   
    18    9   40 1   
    19    9   41 1   
    20   10   11 1   
    21   10   42 1   
    22   10   43 1   
    23   11   12 1   
    24   11   44 1   
    25   11   45 1   
    26   12   38 1   
    27   12   39 1   
    28   13   14 1   
    29   13   34 1   
    30   13   35 1   
    31   14   15 1   
    32   14   20 1   
    33   15   16 1   
    34   15   46 1   
    35   16   48 1   
    36   17   18 1   
    37   17   19 1   
    38   19   49 1   
    39   20   47 1   
    40   22   23 1   
    41   22   29 1   
    42   23   24 1   
    43   23   28 1   
    44   24   25 1   
    45   24   50 1   
    46   24   51 1   
    47   25   26 1   
    48   25   54 1   
    49   25   55 1   
    50   26   27 1   
    51   27   28 1   
    52   27   56 1   
    53   27   57 1   
    54   28   52 1   
    55   28   53 1   
@<TRIPOS>SUBSTRUCTURE
     1 V65         1 TEMP              0 ****  ****    0 ROOT
