@<TRIPOS>MOLECULE
V65
   58    61     1     0     0
SMALL
bcc


@<TRIPOS>ATOM
      1 C1          0.2620    0.2240   -0.1110 c         1 V65      0.474600
      2 N2          1.5900   -0.5040   -0.1420 n4        1 V65     -0.752400
      3 C4         -0.5080    0.0560    1.1770 ca        1 V65      0.662500
      4 N5         -1.8440    0.0210    1.0330 nb        1 V65     -0.755000
      5 C6         -2.5540   -0.0940    2.2560 ca        1 V65      0.960900
      6 N10        -3.9300   -0.1990    2.2160 nh        1 V65     -0.715300
      7 C14        -4.7100   -0.0660    0.9810 c3        1 V65      0.227500
      8 C15        -4.5010   -1.2120   -0.0220 c3        1 V65     -0.090900
      9 C16        -5.5530   -1.1150   -1.1110 c3        1 V65     -0.079400
     10 C17        -5.5020    0.2260   -1.8150 c3        1 V65     -0.082400
     11 C18        -5.6190    1.3730   -0.8340 c3        1 V65     -0.079400
     12 C19        -4.5670    1.2820    0.2560 c3        1 V65     -0.090900
     13 C12        -4.6930   -0.2240    3.4620 c3        1 V65      0.260100
     14 C22        -4.9730    1.1240    4.0590 ca        1 V65     -0.131300
     15 C23        -5.9210    1.9730    3.4780 ca        1 V65     -0.101000
     16 C24        -6.2150    3.2050    4.0560 ca        1 V65     -0.126000
     17 C25        -5.5560    3.5930    5.2280 ca        1 V65      0.032400
     18 CL         -5.9080    5.0920    5.9360 cl        1 V65     -0.067400
     19 C26        -4.6090    2.7500    5.8180 ca        1 V65     -0.126000
     20 C27        -4.3200    1.5200    5.2300 ca        1 V65     -0.101000
     21 N7         -1.9110   -0.1510    3.4870 nb        1 V65     -0.817000
     22 C8         -0.5270   -0.0990    3.4870 ca        1 V65      0.957900
     23 N29         0.1390   -0.0620    4.7120 nh        1 V65     -0.720300
     24 C30         1.5830   -0.2230    4.7390 c3        1 V65      0.172300
     25 C31         2.2090    0.1120    6.1010 c3        1 V65      0.113900
     26 O32         1.5170   -0.5200    7.1650 os        1 V65     -0.391600
     27 C33         0.1590   -0.1060    7.2130 c3        1 V65      0.113900
     28 C34        -0.5860   -0.4470    5.9150 c3        1 V65      0.172300
     29 N9          0.2410   -0.0240    2.3080 nb        1 V65     -0.872000
     30 OXT        -0.0220    0.8570   -1.1070 o         1 V65     -0.360100
     31 H21N        1.4470   -1.4900    0.0950 hn        1 V65      0.474133
     32 H22N        2.2170   -0.0900    0.5600 hn        1 V65      0.474133
     33 H14        -5.7970   -0.1310    1.3120 h1        1 V65      0.069700
     34 H121       -5.6770   -0.7350    3.2420 h1        1 V65      0.080200
     35 H122       -4.1550   -0.8690    4.2160 h1        1 V65      0.080200
     36 H151       -4.5880   -2.2010    0.4970 hc        1 V65      0.055700
     37 H152       -3.4870   -1.1550   -0.4900 hc        1 V65      0.055700
     38 H191       -3.5540    1.3870   -0.2060 hc        1 V65      0.055700
     39 H192       -4.7050    2.1240    0.9840 hc        1 V65      0.055700
     40 H161       -5.3850   -1.9370   -1.8550 hc        1 V65      0.050450
     41 H162       -6.5720   -1.2680   -0.6680 hc        1 V65      0.050450
     42 H171       -6.3350    0.2870   -2.5630 hc        1 V65      0.049700
     43 H172       -4.5360    0.3140   -2.3790 hc        1 V65      0.049700
     44 H181       -5.4970    2.3470   -1.3770 hc        1 V65      0.050450
     45 H182       -6.6420    1.3730   -0.3730 hc        1 V65      0.050450
     46 H23        -6.4450    1.6660    2.5580 ha        1 V65      0.137500
     47 H27        -3.5760    0.8560    5.6950 ha        1 V65      0.137500
     48 H24        -6.9650    3.8670    3.5950 ha        1 V65      0.156000
     49 H26        -4.0960    3.0530    6.7440 ha        1 V65      0.156000
     50 H301        1.8450   -1.2870    4.4710 h1        1 V65      0.064700
     51 H302        2.0520    0.4650    3.9810 h1        1 V65      0.064700
     52 H341       -0.7850   -1.5570    5.8880 h1        1 V65      0.064700
     53 H342       -1.5760    0.0920    5.9460 h1        1 V65      0.064700
     54 H311        3.2500   -0.3070    6.1480 h1        1 V65      0.072200
     55 H312        2.2310    1.2220    6.2620 h1        1 V65      0.072200
     56 H331       -0.2860   -0.6890    8.0640 h1        1 V65      0.072200
     57 H332        0.1010    0.9940    7.4260 h1        1 V65      0.072200
     58 H231        2.0210   -0.4290   -1.0700 hn        1 V65      0.474133
@<TRIPOS>BOND
     1    1    2 1   
     2    1    3 1   
     3    1   30 2   
     4    2   31 1   
     5    2   32 1   
     6    2   58 1   
     7    3    4 ar  
     8    3   29 ar  
     9    4    5 ar  
    10    5    6 1   
    11    5   21 ar  
    12    6    7 1   
    13    6   13 1   
    14    7    8 1   
    15    7   12 1   
    16    7   33 1   
    17    8    9 1   
    18    8   36 1   
    19    8   37 1   
    20    9   10 1   
    21    9   40 1   
    22    9   41 1   
    23   10   11 1   
    24   10   42 1   
    25   10   43 1   
    26   11   12 1   
    27   11   44 1   
    28   11   45 1   
    29   12   38 1   
    30   12   39 1   
    31   13   14 1   
    32   13   34 1   
    33   13   35 1   
    34   14   15 ar  
    35   14   20 ar  
    36   15   16 ar  
    37   15   46 1   
    38   16   17 ar  
    39   16   48 1   
    40   17   18 1   
    41   17   19 ar  
    42   19   20 ar  
    43   19   49 1   
    44   20   47 1   
    45   21   22 ar  
    46   22   23 1   
    47   22   29 ar  
    48   23   24 1   
    49   23   28 1   
    50   24   25 1   
    51   24   50 1   
    52   24   51 1   
    53   25   26 1   
    54   25   54 1   
    55   25   55 1   
    56   26   27 1   
    57   27   28 1   
    58   27   56 1   
    59   27   57 1   
    60   28   52 1   
    61   28   53 1   
@<TRIPOS>SUBSTRUCTURE
     1 V65         1 TEMP              0 ****  ****    0 ROOT
