@<TRIPOS>MOLECULE
V68
   65    69     1     0     0
SMALL
bcc


@<TRIPOS>ATOM
      1 CAL         0.1030    0.1500    0.0680 c3        1 V68     -0.075900
      2 CAN         1.6220    0.1590    0.2200 c3        1 V68      0.169800
      3 NBF         2.0650    0.0110    1.6000 n3        1 V68     -0.732600
      4 CAC         3.5060    0.0270    1.7190 c3        1 V68      0.158100
      5 CAO         1.4700   -1.1400    2.2650 c3        1 V68      0.169800
      6 CAM        -0.0530   -1.1750    2.1640 c3        1 V68     -0.075900
      7 CBE        -0.5000   -1.0850    0.7120 c3        1 V68     -0.087700
      8 CAQ        -2.0340   -1.0520    0.6750 c3        1 V68      0.065300
      9 NBG        -2.6200   -1.2690   -0.6360 na        1 V68      0.002200
     10 NAT        -2.9090   -0.2840   -1.5110 nc        1 V68     -0.501100
     11 C4         -2.7830   -2.5370   -1.2300 ca        1 V68      0.469800
     12 N3         -2.5800   -3.7900   -0.7170 nb        1 V68     -0.739000
     13 C2         -2.8660   -4.7690   -1.6040 ca        1 V68      0.693900
     14 N1         -3.3040   -4.6860   -2.8890 nb        1 V68     -0.799000
     15 C6         -3.5210   -3.4270   -3.4010 ca        1 V68      0.757200
     16 NAD        -4.0200   -3.2710   -4.6740 nv        1 V68     -0.955500
     17 C5         -3.2640   -2.2870   -2.5790 ca        1 V68     -0.495500
     18 CAY        -3.3220   -0.8400   -2.6790 cd        1 V68      0.422500
     19 CAW        -3.7500   -0.0670   -3.8380 ca        1 V68     -0.112900
     20 CAK        -5.0040   -0.2450   -4.3830 ca        1 V68     -0.098000
     21 CAF        -2.8600    0.8910   -4.4000 ca        1 V68     -0.096000
     22 CAH        -3.2330    1.6260   -5.4960 ca        1 V68     -0.129000
     23 CAZ        -4.5170    1.4510   -6.0870 ca        1 V68      0.002000
     24 CAJ        -4.9170    2.2000   -7.2190 ca        1 V68     -0.165000
     25 CBA        -5.4110    0.5060   -5.5180 ca        1 V68     -0.076000
     26 CAG        -6.6970    0.3380   -6.0960 ca        1 V68     -0.082000
     27 CAE        -7.0810    1.0680   -7.1940 ca        1 V68     -0.186000
     28 CAV        -6.1790    2.0090   -7.7610 ca        1 V68      0.134100
     29 OAU        -6.4680    2.7840   -8.8650 os        1 V68     -0.329900
     30 CAP        -7.7830    2.6350   -9.4160 c3        1 V68      0.130400
     31 CBD        -7.8620    3.6070  -10.5920 c3        1 V68     -0.070700
     32 CAB        -7.0570    3.0950  -11.7660 c3        1 V68     -0.092100
     33 CAA        -9.3120    3.8130  -10.9760 c3        1 V68     -0.092100
     34 H1         -0.1390    0.1770   -1.0260 hc        1 V68      0.052200
     35 H2         -0.3310    1.0710    0.5370 hc        1 V68      0.052200
     36 H3          2.0160    1.1460   -0.1540 h1        1 V68      0.030700
     37 H4          2.0530   -0.6520   -0.4400 h1        1 V68      0.030700
     38 H6          3.8940    0.9780    1.2700 h1        1 V68      0.031033
     39 H7          4.0060   -0.8400    1.2060 h1        1 V68      0.031033
     40 H8          3.7800    0.0030    2.8060 h1        1 V68      0.031033
     41 H9          1.8770   -2.1120    1.8550 h1        1 V68      0.030700
     42 H10         1.7560   -1.0850    3.3540 h1        1 V68      0.030700
     43 H11        -0.4930   -0.3250    2.7480 hc        1 V68      0.052200
     44 H12        -0.4160   -2.1320    2.6190 hc        1 V68      0.052200
     45 H13        -0.1330   -2.0000    0.1670 hc        1 V68      0.066700
     46 H14        -2.3920   -0.0570    1.0660 h1        1 V68      0.076700
     47 H15        -2.4320   -1.8700    1.3420 h1        1 V68      0.076700
     48 H16        -2.7130   -5.8070   -1.2340 h5        1 V68      0.051100
     49 H17        -3.9820   -2.3640   -5.0730 hn        1 V68      0.440300
     50 H18        -4.0680   -4.0540   -5.2800 hn        1 V68      0.440300
     51 H19        -5.7130   -0.9620   -3.9400 ha        1 V68      0.145000
     52 H20        -1.8720    1.0340   -3.9350 ha        1 V68      0.145000
     53 H21        -2.5490    2.3680   -5.9350 ha        1 V68      0.139000
     54 H22        -4.2280    2.9320   -7.6640 ha        1 V68      0.152000
     55 H23        -7.3870   -0.3920   -5.6450 ha        1 V68      0.137000
     56 H24        -8.0810    0.9270   -7.6280 ha        1 V68      0.140000
     57 H25        -8.5460    2.8930   -8.6350 h1        1 V68      0.040700
     58 H26        -7.9300    1.5780   -9.7590 h1        1 V68      0.040700
     59 H27        -7.4260    4.5910  -10.2590 hc        1 V68      0.067700
     60 H28        -7.4890    2.1420  -12.1560 hc        1 V68      0.038700
     61 H29        -6.0030    2.9050  -11.4490 hc        1 V68      0.038700
     62 H30        -7.0560    3.8470  -12.5910 hc        1 V68      0.038700
     63 H31        -9.8860    4.2530  -10.1250 hc        1 V68      0.038700
     64 H32        -9.7850    2.8430  -11.2610 hc        1 V68      0.038700
     65 H33        -9.3790    4.5090  -11.8470 hc        1 V68      0.038700
@<TRIPOS>BOND
     1    1    2 1   
     2    1    7 1   
     3    1   34 1   
     4    1   35 1   
     5    2    3 1   
     6    2   36 1   
     7    2   37 1   
     8    3    4 1   
     9    3    5 1   
    10    4   38 1   
    11    4   39 1   
    12    4   40 1   
    13    5    6 1   
    14    5   41 1   
    15    5   42 1   
    16    6    7 1   
    17    6   43 1   
    18    6   44 1   
    19    7    8 1   
    20    7   45 1   
    21    8    9 1   
    22    8   46 1   
    23    8   47 1   
    24    9   10 1   
    25    9   11 1   
    26   10   18 2   
    27   11   12 ar  
    28   11   17 ar  
    29   12   13 ar  
    30   13   14 ar  
    31   13   48 1   
    32   14   15 ar  
    33   15   16 1   
    34   15   17 ar  
    35   16   49 1   
    36   16   50 1   
    37   17   18 1   
    38   18   19 1   
    39   19   20 ar  
    40   19   21 ar  
    41   20   25 ar  
    42   20   51 1   
    43   21   22 ar  
    44   21   52 1   
    45   22   23 ar  
    46   22   53 1   
    47   23   24 ar  
    48   23   25 ar  
    49   24   28 ar  
    50   24   54 1   
    51   25   26 ar  
    52   26   27 ar  
    53   26   55 1   
    54   27   28 ar  
    55   27   56 1   
    56   28   29 1   
    57   29   30 1   
    58   30   31 1   
    59   30   57 1   
    60   30   58 1   
    61   31   32 1   
    62   31   33 1   
    63   31   59 1   
    64   32   60 1   
    65   32   61 1   
    66   32   62 1   
    67   33   63 1   
    68   33   64 1   
    69   33   65 1   
@<TRIPOS>SUBSTRUCTURE
     1 V68         1 TEMP              0 ****  ****    0 ROOT
