@<TRIPOS>MOLECULE
V68
   66    70     1     0     0
SMALL
bcc


@<TRIPOS>ATOM
      1 CAL         0.1150    0.1410    0.1160 c3        1 V68     -0.077400
      2 CAN         1.6230    0.1860    0.3570 c3        1 V68      0.170800
      3 NBF         1.9780    0.0780    1.7640 n3        1 V68     -0.733600
      4 CAC         3.4030    0.1710    1.9860 c3        1 V68      0.156100
      5 CAO         1.3870   -1.0890    2.4030 c3        1 V68      0.170800
      6 CAM        -0.1270   -1.1670    2.2210 c3        1 V68     -0.077400
      7 CBE        -0.4960   -1.0990    0.7450 c3        1 V68     -0.084700
      8 CAQ        -2.0250   -1.0950    0.6390 c3        1 V68      0.050300
      9 NBG        -2.5420   -1.3090   -0.7140 na        1 V68      0.039200
     10 NAT        -2.8530   -0.3230   -1.5720 nc        1 V68     -0.415100
     11 C4         -2.6870   -2.5700   -1.3150 ca        1 V68      0.456800
     12 N3         -2.4840   -3.8340   -0.8420 nb        1 V68     -0.622000
     13 C2         -2.7520   -4.8080   -1.7360 ca        1 V68      0.680900
     14 N1         -3.1920   -4.6880   -3.0330 nb        1 V68     -0.698000
     15 C6         -3.3890   -3.4290   -3.4830 ca        1 V68      0.557200
     16 NAD        -3.8520   -3.2310   -4.8730 n4        1 V68     -0.833300
     17 C5         -3.1640   -2.3010   -2.6820 ca        1 V68     -0.433500
     18 CAY        -3.2440   -0.8550   -2.7580 cd        1 V68      0.406500
     19 CAW        -3.6730   -0.1140   -3.9360 ca        1 V68     -0.161900
     20 CAK        -4.9900   -0.1600   -4.3500 ca        1 V68     -0.123000
     21 CAF        -2.7220    0.6620   -4.6530 ca        1 V68     -0.114000
     22 CAH        -3.1000    1.3410   -5.7830 ca        1 V68     -0.103000
     23 CAZ        -4.4450    1.2890   -6.2510 ca        1 V68      0.008000
     24 CAJ        -4.8450    1.9860   -7.4130 ca        1 V68     -0.172000
     25 CBA        -5.4000    0.5340   -5.5170 ca        1 V68     -0.093000
     26 CAG        -6.7510    0.5150   -5.9580 ca        1 V68     -0.091000
     27 CAE        -7.1370    1.2000   -7.0830 ca        1 V68     -0.169000
     28 CAV        -6.1730    1.9410   -7.8230 ca        1 V68      0.163100
     29 OAU        -6.4570    2.6400   -8.9690 os        1 V68     -0.317900
     30 CAP        -7.8410    2.7180   -9.3520 c3        1 V68      0.126400
     31 CBD        -7.8840    3.6120  -10.5880 c3        1 V68     -0.069700
     32 CAB        -7.3610    2.8760  -11.8020 c3        1 V68     -0.094100
     33 CAA        -9.3030    4.0880  -10.8100 c3        1 V68     -0.094100
     34 H1         -0.0630    0.1470   -0.9900 hc        1 V68      0.053950
     35 H2         -0.3650    1.0580    0.5470 hc        1 V68      0.053950
     36 H3          2.1080   -0.6290   -0.2590 h1        1 V68      0.037200
     37 H4          2.0150    1.1740   -0.0160 h1        1 V68      0.037200
     38 H6          3.5960    0.1750    3.0910 h1        1 V68      0.038367
     39 H7          3.7730    1.1370    1.5530 h1        1 V68      0.038367
     40 H8          3.9820   -0.6750    1.5240 h1        1 V68      0.038367
     41 H9          1.6110   -1.0220    3.5060 h1        1 V68      0.037200
     42 H10         1.8430   -2.0500    2.0190 h1        1 V68      0.037200
     43 H11        -0.6190   -0.3240    2.7730 hc        1 V68      0.053950
     44 H12        -0.4880   -2.1300    2.6650 hc        1 V68      0.053950
     45 H13        -0.0840   -2.0130    0.2320 hc        1 V68      0.060700
     46 H14        -2.4240   -0.1080    1.0130 h1        1 V68      0.094200
     47 H15        -2.4470   -1.9270    1.2730 h1        1 V68      0.094200
     48 H16        -2.5990   -5.8580   -1.3900 h5        1 V68      0.098100
     49 H17        -4.1300   -2.2390   -4.9890 hn        1 V68      0.478133
     50 H18        -4.6490   -3.8450   -5.0770 hn        1 V68      0.478133
     51 H19        -5.7510   -0.6910   -3.7570 ha        1 V68      0.139000
     52 H20        -1.6890    0.7220   -4.2770 ha        1 V68      0.153000
     53 H21        -2.3720    1.9540   -6.3400 ha        1 V68      0.158000
     54 H22        -4.1110    2.5720   -7.9870 ha        1 V68      0.166000
     55 H23        -7.4930   -0.0490   -5.3710 ha        1 V68      0.139000
     56 H24        -8.1880    1.1830   -7.4080 ha        1 V68      0.155000
     57 H25        -8.4330    3.1670   -8.5110 h1        1 V68      0.045200
     58 H26        -8.2180    1.6880   -9.5840 h1        1 V68      0.045200
     59 H27        -7.2220    4.5050  -10.3960 hc        1 V68      0.071700
     60 H28        -6.3300    2.4960  -11.6040 hc        1 V68      0.042700
     61 H29        -7.3290    3.5620  -12.6830 hc        1 V68      0.042700
     62 H30        -8.0190    2.0100  -12.0530 hc        1 V68      0.042700
     63 H31        -9.9920    3.2210  -10.9540 hc        1 V68      0.042700
     64 H32        -9.3490    4.7300  -11.7230 hc        1 V68      0.042700
     65 H33        -9.6600    4.6870   -9.9380 hc        1 V68      0.042700
     66 HAD3       -3.0870   -3.4530   -5.5220 hn        1 V68      0.478133
@<TRIPOS>BOND
     1    1    2 1   
     2    1    7 1   
     3    1   34 1   
     4    1   35 1   
     5    2    3 1   
     6    2   36 1   
     7    2   37 1   
     8    3    4 1   
     9    3    5 1   
    10    4   38 1   
    11    4   39 1   
    12    4   40 1   
    13    5    6 1   
    14    5   41 1   
    15    5   42 1   
    16    6    7 1   
    17    6   43 1   
    18    6   44 1   
    19    7    8 1   
    20    7   45 1   
    21    8    9 1   
    22    8   46 1   
    23    8   47 1   
    24    9   10 1   
    25    9   11 1   
    26   10   18 2   
    27   11   12 ar  
    28   11   17 ar  
    29   12   13 ar  
    30   13   14 ar  
    31   13   48 1   
    32   14   15 ar  
    33   15   16 1   
    34   15   17 ar  
    35   16   49 1   
    36   16   50 1   
    37   16   66 1   
    38   17   18 1   
    39   18   19 1   
    40   19   20 ar  
    41   19   21 ar  
    42   20   25 ar  
    43   20   51 1   
    44   21   22 ar  
    45   21   52 1   
    46   22   23 ar  
    47   22   53 1   
    48   23   24 ar  
    49   23   25 ar  
    50   24   28 ar  
    51   24   54 1   
    52   25   26 ar  
    53   26   27 ar  
    54   26   55 1   
    55   27   28 ar  
    56   27   56 1   
    57   28   29 1   
    58   29   30 1   
    59   30   31 1   
    60   30   57 1   
    61   30   58 1   
    62   31   32 1   
    63   31   33 1   
    64   31   59 1   
    65   32   60 1   
    66   32   61 1   
    67   32   62 1   
    68   33   63 1   
    69   33   64 1   
    70   33   65 1   
@<TRIPOS>SUBSTRUCTURE
     1 V68         1 TEMP              0 ****  ****    0 ROOT
