@<TRIPOS>MOLECULE
V68
   65    69     1     0     0
SMALL
bcc


@<TRIPOS>ATOM
      1 CAL         0.1020    0.1520    0.0700 c3        1 V68     -0.075400
      2 CAN         1.6210    0.1590    0.2230 c3        1 V68      0.169800
      3 NBF         2.0640    0.0110    1.6030 n3        1 V68     -0.732600
      4 CAC         3.5040    0.0260    1.7210 c3        1 V68      0.158100
      5 CAO         1.4670   -1.1390    2.2680 c3        1 V68      0.169800
      6 CAM        -0.0560   -1.1720    2.1670 c3        1 V68     -0.075400
      7 CBE        -0.5030   -1.0830    0.7150 c3        1 V68     -0.087700
      8 CAQ        -2.0370   -1.0480    0.6780 c3        1 V68      0.065300
      9 NBG        -2.6230   -1.2660   -0.6330 na        1 V68      0.002200
     10 NAT        -2.9110   -0.2810   -1.5080 nc        1 V68     -0.501100
     11 C4         -2.7860   -2.5330   -1.2270 ca        1 V68      0.469800
     12 N3         -2.5830   -3.7860   -0.7130 nb        1 V68     -0.739000
     13 C2         -2.8690   -4.7650   -1.6000 ca        1 V68      0.693900
     14 N1         -3.3080   -4.6820   -2.8860 nb        1 V68     -0.799000
     15 C6         -3.5250   -3.4230   -3.3980 ca        1 V68      0.757200
     16 NAD        -4.0240   -3.2670   -4.6700 nh        1 V68     -0.955500
     17 C5         -3.2680   -2.2830   -2.5760 ca        1 V68     -0.495500
     18 CAY        -3.3250   -0.8360   -2.6760 cd        1 V68      0.422500
     19 CAW        -3.7520   -0.0630   -3.8360 ca        1 V68     -0.112900
     20 CAK        -5.0060   -0.2400   -4.3800 ca        1 V68     -0.098000
     21 CAF        -2.8620    0.8940   -4.3980 ca        1 V68     -0.096000
     22 CAH        -3.2350    1.6290   -5.4940 ca        1 V68     -0.129000
     23 CAZ        -4.5180    1.4540   -6.0850 ca        1 V68      0.002000
     24 CAJ        -4.9180    2.2040   -7.2170 ca        1 V68     -0.165000
     25 CBA        -5.4130    0.5100   -5.5150 ca        1 V68     -0.076000
     26 CAG        -6.6990    0.3430   -6.0930 ca        1 V68     -0.082000
     27 CAE        -7.0830    1.0730   -7.1910 ca        1 V68     -0.186000
     28 CAV        -6.1810    2.0120   -7.7580 ca        1 V68      0.134100
     29 OAU        -6.4700    2.7880   -8.8630 os        1 V68     -0.329900
     30 CAP        -7.7840    2.6380   -9.4150 c3        1 V68      0.130400
     31 CBD        -7.8620    3.6090  -10.5920 c3        1 V68     -0.070700
     32 CAB        -7.0570    3.0940  -11.7640 c3        1 V68     -0.092100
     33 CAA        -9.3110    3.8150  -10.9760 c3        1 V68     -0.092100
     34 H1         -0.1400    0.1780   -1.0240 hc        1 V68      0.052200
     35 H2         -0.3320    1.0730    0.5390 hc        1 V68      0.052200
     36 H3          2.0510   -0.6530   -0.4370 h1        1 V68      0.030700
     37 H4          2.0160    1.1450   -0.1530 h1        1 V68      0.030700
     38 H6          3.7780    0.0030    2.8080 h1        1 V68      0.031033
     39 H7          4.0040   -0.8420    1.2080 h1        1 V68      0.031033
     40 H8          3.8940    0.9770    1.2720 h1        1 V68      0.031033
     41 H9          1.7540   -1.0840    3.3570 h1        1 V68      0.030700
     42 H10         1.8730   -2.1110    1.8580 h1        1 V68      0.030700
     43 H11        -0.4950   -0.3220    2.7500 hc        1 V68      0.052200
     44 H12        -0.4190   -2.1290    2.6230 hc        1 V68      0.052200
     45 H13        -0.1360   -1.9980    0.1700 hc        1 V68      0.066700
     46 H14        -2.4350   -1.8660    1.3450 h1        1 V68      0.076700
     47 H15        -2.3940   -0.0530    1.0680 h1        1 V68      0.076700
     48 H16        -2.7170   -5.8030   -1.2310 h5        1 V68      0.051100
     49 H17        -4.0720   -4.0500   -5.2760 hn        1 V68      0.440300
     50 H18        -3.9860   -2.3600   -5.0700 hn        1 V68      0.440300
     51 H19        -5.7160   -0.9570   -3.9370 ha        1 V68      0.145000
     52 H20        -1.8740    1.0360   -3.9330 ha        1 V68      0.145000
     53 H21        -2.5500    2.3700   -5.9330 ha        1 V68      0.139000
     54 H22        -4.2290    2.9350   -7.6620 ha        1 V68      0.152000
     55 H23        -7.3900   -0.3860   -5.6410 ha        1 V68      0.137000
     56 H24        -8.0830    0.9320   -7.6250 ha        1 V68      0.140000
     57 H25        -7.9310    1.5800   -9.7560 h1        1 V68      0.040700
     58 H26        -8.5470    2.8980   -8.6340 h1        1 V68      0.040700
     59 H27        -7.4250    4.5930  -10.2600 hc        1 V68      0.067700
     60 H28        -7.4890    2.1410  -12.1530 hc        1 V68      0.038700
     61 H29        -7.0550    3.8450  -12.5910 hc        1 V68      0.038700
     62 H30        -6.0030    2.9040  -11.4470 hc        1 V68      0.038700
     63 H31        -9.7860    2.8450  -11.2600 hc        1 V68      0.038700
     64 H32        -9.3780    4.5090  -11.8490 hc        1 V68      0.038700
     65 H33        -9.8860    4.2560  -10.1270 hc        1 V68      0.038700
@<TRIPOS>BOND
     1    1    2 1   
     2    1    7 1   
     3    1   34 1   
     4    1   35 1   
     5    2    3 1   
     6    2   36 1   
     7    2   37 1   
     8    3    4 1   
     9    3    5 1   
    10    4   38 1   
    11    4   39 1   
    12    4   40 1   
    13    5    6 1   
    14    5   41 1   
    15    5   42 1   
    16    6    7 1   
    17    6   43 1   
    18    6   44 1   
    19    7    8 1   
    20    7   45 1   
    21    8    9 1   
    22    8   46 1   
    23    8   47 1   
    24    9   10 1   
    25    9   11 1   
    26   10   18 2   
    27   11   12 ar  
    28   11   17 ar  
    29   12   13 ar  
    30   13   14 ar  
    31   13   48 1   
    32   14   15 ar  
    33   15   16 1   
    34   15   17 ar  
    35   16   49 1   
    36   16   50 1   
    37   17   18 1   
    38   18   19 1   
    39   19   20 ar  
    40   19   21 ar  
    41   20   25 ar  
    42   20   51 1   
    43   21   22 ar  
    44   21   52 1   
    45   22   23 ar  
    46   22   53 1   
    47   23   24 ar  
    48   23   25 ar  
    49   24   28 ar  
    50   24   54 1   
    51   25   26 ar  
    52   26   27 ar  
    53   26   55 1   
    54   27   28 ar  
    55   27   56 1   
    56   28   29 1   
    57   29   30 1   
    58   30   31 1   
    59   30   57 1   
    60   30   58 1   
    61   31   32 1   
    62   31   33 1   
    63   31   59 1   
    64   32   60 1   
    65   32   61 1   
    66   32   62 1   
    67   33   63 1   
    68   33   64 1   
    69   33   65 1   
@<TRIPOS>SUBSTRUCTURE
     1 V68         1 TEMP              0 ****  ****    0 ROOT
