@<TRIPOS>MOLECULE
V6F
   28    28     1     0     0
SMALL
bcc


@<TRIPOS>ATOM
      1 O01         0.4760   -0.3810   -0.7190 oh        1 V6F     -0.584800
      2 C02         1.7870   -0.0280   -0.3300 c3        1 V6F      0.136100
      3 C03         1.9110   -0.3290    1.1720 c3        1 V6F     -0.097400
      4 C04         2.0330    1.0390    1.8790 c3        1 V6F      0.039700
      5 C05         3.2890    1.0580    2.7640 c         1 V6F      0.528100
      6 N06         3.6150    2.3910    3.3960 n4        1 V6F     -0.672800
      7 C07         4.5620    2.3030    4.5260 c3        1 V6F      0.081100
      8 O08         4.0080    0.1160    3.0510 o         1 V6F     -0.405100
      9 N09         2.0400    2.0800    0.8640 n         1 V6F     -0.475800
     10 C10         1.4860    3.3360    1.1480 c         1 V6F      0.676100
     11 C11         1.0560    4.2380    0.0310 c3        1 V6F     -0.172100
     12 O12         1.4350    3.6890    2.3480 o         1 V6F     -0.649100
     13 C13         1.9870    1.5040   -0.4730 c3        1 V6F      0.036000
     14 H01         0.4960   -0.5980   -1.6600 ho        1 V6F      0.427000
     15 H02         2.5560   -0.5840   -0.9260 h1        1 V6F      0.077700
     16 H031        2.7970   -0.9810    1.3690 hc        1 V6F      0.105200
     17 H032        0.9920   -0.8580    1.5350 hc        1 V6F      0.105200
     18 H131        1.1400    1.9410   -1.0710 h1        1 V6F      0.079700
     19 H132        2.9580    1.7290   -0.9930 h1        1 V6F      0.079700
     20 H04         1.1660    1.1900    2.5960 h1        1 V6F      0.116700
     21 H06         4.0010    2.9990    2.6630 hn        1 V6F      0.478800
     22 H071        4.7640    3.3360    4.9170 hx        1 V6F      0.110700
     23 H072        5.5200    1.8280    4.1820 hx        1 V6F      0.110700
     24 H073        4.1150    1.6690    5.3390 hx        1 V6F      0.110700
     25 H111        0.8970    5.2680    0.4400 hc        1 V6F      0.093033
     26 H112        1.8200    4.2780   -0.7830 hc        1 V6F      0.093033
     27 H113        0.0870    3.8690   -0.3940 hc        1 V6F      0.093033
     28 H062        2.7240    2.8270    3.7040 hn        1 V6F      0.478800
@<TRIPOS>BOND
     1    1    2 1   
     2    1   14 1   
     3    2    3 1   
     4    2   13 1   
     5    2   15 1   
     6    3    4 1   
     7    3   16 1   
     8    3   17 1   
     9    4    5 1   
    10    4    9 1   
    11    4   20 1   
    12    5    6 1   
    13    5    8 2   
    14    6    7 1   
    15    6   21 1   
    16    6   28 1   
    17    7   22 1   
    18    7   23 1   
    19    7   24 1   
    20    9   10 1   
    21    9   13 1   
    22   10   11 1   
    23   10   12 2   
    24   11   25 1   
    25   11   26 1   
    26   11   27 1   
    27   13   18 1   
    28   13   19 1   
@<TRIPOS>SUBSTRUCTURE
     1 V6F         1 TEMP              0 ****  ****    0 ROOT
