@<TRIPOS>MOLECULE
V6F
   27    27     1     0     0
SMALL
bcc


@<TRIPOS>ATOM
      1 O01         2.9770   -2.1020   -0.1860 oh        1 V6F     -0.591800
      2 C02         1.7920   -1.7690    0.5140 c3        1 V6F      0.131100
      3 C03         0.6050   -2.0900   -0.4040 c3        1 V6F     -0.088400
      4 C04        -0.1920   -0.7790   -0.5620 c3        1 V6F      0.031700
      5 C05        -1.6000   -0.9090    0.0700 c         1 V6F      0.652100
      6 N06        -2.4480    0.1560   -0.0960 n         1 V6F     -0.564900
      7 C07        -3.7810    0.1710    0.4150 c3        1 V6F      0.078300
      8 O08        -1.9460   -1.9460    0.6720 o         1 V6F     -0.623100
      9 N09         0.5890    0.2860    0.0590 n         1 V6F     -0.458800
     10 C10         0.5500    1.5890   -0.4130 c         1 V6F      0.665100
     11 C11         1.5550    2.5810    0.1130 c3        1 V6F     -0.169100
     12 O12        -0.3360    1.9340   -1.2240 o         1 V6F     -0.624100
     13 C13         1.7220   -0.2430    0.7900 c3        1 V6F      0.051000
     14 H01         3.7040   -2.0370    0.4430 ho        1 V6F      0.402000
     15 H02         1.7340   -2.3410    1.4770 h1        1 V6F      0.057700
     16 H031        0.9740   -2.4360   -1.4010 hc        1 V6F      0.090200
     17 H032       -0.0290   -2.8950    0.0440 hc        1 V6F      0.090200
     18 H131        1.5710   -0.0520    1.8880 h1        1 V6F      0.053200
     19 H132        2.6810    0.2500    0.4680 h1        1 V6F      0.053200
     20 H04        -0.3400   -0.5450   -1.6590 h1        1 V6F      0.086700
     21 H06        -2.1330    0.9590   -0.5950 hn        1 V6F      0.339500
     22 H071       -3.9080    1.0270    1.1330 h1        1 V6F      0.043033
     23 H072       -4.5130    0.3010   -0.4280 h1        1 V6F      0.043033
     24 H073       -4.0080   -0.7900    0.9490 h1        1 V6F      0.043033
     25 H111        1.6560    2.5070    1.2230 hc        1 V6F      0.069700
     26 H112        2.5510    2.3920   -0.3590 hc        1 V6F      0.069700
     27 H113        1.2160    3.6110   -0.1580 hc        1 V6F      0.069700
@<TRIPOS>BOND
     1    1    2 1   
     2    1   14 1   
     3    2    3 1   
     4    2   13 1   
     5    2   15 1   
     6    3    4 1   
     7    3   16 1   
     8    3   17 1   
     9    4    5 1   
    10    4    9 1   
    11    4   20 1   
    12    5    6 1   
    13    5    8 2   
    14    6    7 1   
    15    6   21 1   
    16    7   22 1   
    17    7   23 1   
    18    7   24 1   
    19    9   10 1   
    20    9   13 1   
    21   10   11 1   
    22   10   12 2   
    23   11   25 1   
    24   11   26 1   
    25   11   27 1   
    26   13   18 1   
    27   13   19 1   
@<TRIPOS>SUBSTRUCTURE
     1 V6F         1 TEMP              0 ****  ****    0 ROOT
