@<TRIPOS>MOLECULE
V6F
   28    28     1     0     0
SMALL
bcc


@<TRIPOS>ATOM
      1 O01         0.4510   -0.3240   -0.7420 oh        1 V6F     -0.584800
      2 C02         1.7630   -0.0350   -0.3060 c3        1 V6F      0.136100
      3 C03         1.8090   -0.3030    1.2060 c3        1 V6F     -0.097400
      4 C04         1.9800    1.0730    1.8850 c3        1 V6F      0.039700
      5 C05         3.1980    1.0440    2.8220 c         1 V6F      0.528100
      6 N06         3.5740    2.3730    3.4340 n4        1 V6F     -0.672800
      7 C07         4.4680    2.2610    4.6050 c3        1 V6F      0.081100
      8 O08         3.8490    0.0710    3.1610 o         1 V6F     -0.405100
      9 N09         2.0870    2.0860    0.8470 n         1 V6F     -0.475800
     10 C10         1.5940    3.3770    1.0790 c         1 V6F      0.676100
     11 C11         1.2610    4.2740   -0.0760 c3        1 V6F     -0.172100
     12 O12         1.5150    3.7630    2.2670 o         1 V6F     -0.649100
     13 C13         2.0550    1.4790   -0.4770 c3        1 V6F      0.036000
     14 H01         0.4970   -0.5660   -1.6760 ho        1 V6F      0.427000
     15 H02         2.5230   -0.6480   -0.8570 h1        1 V6F      0.077700
     16 H031        2.6470   -0.9990    1.4560 hc        1 V6F      0.105200
     17 H032        0.8470   -0.7700    1.5420 hc        1 V6F      0.105200
     18 H131        3.0580    1.6360   -0.9610 h1        1 V6F      0.079700
     19 H132        1.2600    1.9480   -1.1200 h1        1 V6F      0.079700
     20 H04         1.0940    1.2910    2.5620 h1        1 V6F      0.116700
     21 H06         2.6980    2.8660    3.6960 hn        1 V6F      0.478800
     22 H071        4.7140    3.2910    4.9790 hx        1 V6F      0.110700
     23 H072        5.4110    1.7240    4.3120 hx        1 V6F      0.110700
     24 H073        3.9530    1.6750    5.4130 hx        1 V6F      0.110700
     25 H111        0.2910    3.9480   -0.5320 hc        1 V6F      0.093033
     26 H112        1.1450    5.3210    0.3020 hc        1 V6F      0.093033
     27 H113        2.0590    4.2500   -0.8570 hc        1 V6F      0.093033
     28 H062        4.0230    2.9390    2.7040 hn        1 V6F      0.478800
@<TRIPOS>BOND
     1    1    2 1   
     2    1   14 1   
     3    2    3 1   
     4    2   13 1   
     5    2   15 1   
     6    3    4 1   
     7    3   16 1   
     8    3   17 1   
     9    4    5 1   
    10    4    9 1   
    11    4   20 1   
    12    5    6 1   
    13    5    8 2   
    14    6    7 1   
    15    6   21 1   
    16    6   28 1   
    17    7   22 1   
    18    7   23 1   
    19    7   24 1   
    20    9   10 1   
    21    9   13 1   
    22   10   11 1   
    23   10   12 2   
    24   11   25 1   
    25   11   26 1   
    26   11   27 1   
    27   13   18 1   
    28   13   19 1   
@<TRIPOS>SUBSTRUCTURE
     1 V6F         1 TEMP              0 ****  ****    0 ROOT
