@<TRIPOS>MOLECULE
V6F
   28    28     1     0     0
SMALL
bcc


@<TRIPOS>ATOM
      1 O01         0.5020   -0.3820   -0.7400 oh        1 V6F     -0.584800
      2 C02         1.8090   -0.0200   -0.3440 c3        1 V6F      0.136100
      3 C03         1.9310   -0.3310    1.1550 c3        1 V6F     -0.097400
      4 C04         2.0380    1.0330    1.8730 c3        1 V6F      0.039700
      5 C05         3.2920    1.0570    2.7620 c         1 V6F      0.528100
      6 N06         3.6030    2.3880    3.4040 ny        1 V6F     -0.672800
      7 C07         4.5480    2.3010    4.5360 c3        1 V6F      0.081100
      8 O08         4.0180    0.1190    3.0440 o         1 V6F     -0.405100
      9 N09         2.0390    2.0820    0.8650 n         1 V6F     -0.475800
     10 C10         1.4720    3.3300    1.1570 c         1 V6F      0.676100
     11 C11         1.0370    4.2370    0.0450 c3        1 V6F     -0.172100
     12 O12         1.4150    3.6740    2.3590 o         1 V6F     -0.649100
     13 C13         1.9950    1.5140   -0.4760 c3        1 V6F      0.036000
     14 H01         0.5270   -0.5930   -1.6830 ho        1 V6F      0.427000
     15 H02         2.5840   -0.5650   -0.9430 h1        1 V6F      0.077700
     16 H031        2.8220   -0.9760    1.3510 hc        1 V6F      0.105200
     17 H032        1.0150   -0.8710    1.5120 hc        1 V6F      0.105200
     18 H131        1.1460    1.9480   -1.0740 h1        1 V6F      0.079700
     19 H132        2.9650    1.7520   -0.9910 h1        1 V6F      0.079700
     20 H04         1.1680    1.1710    2.5890 h1        1 V6F      0.116700
     21 H06         3.9860    3.0050    2.6760 hn        1 V6F      0.478800
     22 H071        5.5110    1.8370    4.1910 hx        1 V6F      0.110700
     23 H072        4.7400    3.3330    4.9350 hx        1 V6F      0.110700
     24 H073        4.1040    1.6570    5.3430 hx        1 V6F      0.110700
     25 H111        0.8680    5.2620    0.4610 hc        1 V6F      0.093033
     26 H112        1.8040    4.2890   -0.7660 hc        1 V6F      0.093033
     27 H113        0.0730    3.8610   -0.3850 hc        1 V6F      0.093033
     28 H062        2.7080    2.8140    3.7130 hn        1 V6F      0.478800
@<TRIPOS>BOND
     1    1    2 1   
     2    1   14 1   
     3    2    3 1   
     4    2   13 1   
     5    2   15 1   
     6    3    4 1   
     7    3   16 1   
     8    3   17 1   
     9    4    5 1   
    10    4    9 1   
    11    4   20 1   
    12    5    6 1   
    13    5    8 2   
    14    6    7 1   
    15    6   21 1   
    16    6   28 1   
    17    7   22 1   
    18    7   23 1   
    19    7   24 1   
    20    9   10 1   
    21    9   13 1   
    22   10   11 1   
    23   10   12 2   
    24   11   25 1   
    25   11   26 1   
    26   11   27 1   
    27   13   18 1   
    28   13   19 1   
@<TRIPOS>SUBSTRUCTURE
     1 V6F         1 TEMP              0 ****  ****    0 ROOT
