@<TRIPOS>MOLECULE
V7H
   63    65     1     0     0
SMALL
bcc


@<TRIPOS>ATOM
      1 C35         2.7410   -0.7200    0.6790 c2        1 V7H     -0.478000
      2 C25         4.4230    7.0160    7.3880 c1        1 V7H     -0.451000
      3 C34         3.8820   -1.2460    1.0940 c1        1 V7H      0.230000
      4 C36         1.5810   -0.4790    1.4600 c1        1 V7H     -0.005000
      5 C24         4.2870    5.8610    7.0650 c1        1 V7H      0.060000
      6 C26         1.1710    4.3180    6.4320 c2        1 V7H     -0.135000
      7 C33         3.2260   -1.7860    3.6560 c3        1 V7H     -0.215000
      8 C37         1.5510   -0.1420    2.8260 c2        1 V7H     -0.217000
      9 C23         4.1440    4.5820    6.6890 cu        1 V7H     -0.517000
     10 C2          7.7520    1.4890    4.0860 c3        1 V7H     -0.171000
     11 C3          9.1060    1.0460    3.7510 c1        1 V7H     -0.104000
     12 C27         2.0100    3.3860    5.9630 c2        1 V7H     -0.139000
     13 C6          7.9230    0.3770    6.3070 c2        1 V7H     -0.079000
     14 C32         2.2130   -0.7320    3.8510 c2        1 V7H     -0.098000
     15 C22         3.4630    3.6230    5.8390 cx        1 V7H     -0.024000
     16 C1          7.2110    1.1090    5.4130 c2        1 V7H     -0.183000
     17 C4          9.8200    0.3210    4.7210 c2        1 V7H     -0.132000
     18 C5          9.2780   -0.0180    5.9600 c2        1 V7H      0.144000
     19 C28         1.4610    2.0720    5.5170 c2        1 V7H      0.338000
     20 C16        15.0830   -2.8390    5.0350 c2        1 V7H      0.330000
     21 C11        11.3380   -0.9690    6.6160 c3        1 V7H     -0.063000
     22 C12        11.5910   -1.1780    5.1270 c3        1 V7H     -0.016000
     23 C31         1.8730   -0.3570    5.2740 c3        1 V7H      0.003000
     24 C21         4.4150    3.2050    6.9770 cx        1 V7H     -0.046000
     25 C19         5.8180    1.5470    5.7410 c3        1 V7H     -0.082000
     26 C14        13.0760   -1.3280    4.8200 c3        1 V7H     -0.139000
     27 N30         2.2740    0.9620    5.6650 n         1 V7H     -0.375000
     28 N20         5.7950    2.6930    6.6870 n4        1 V7H     -0.047000
     29 O9          7.0740    0.9200    8.4710 o         1 V7H     -0.543500
     30 O18        15.7510   -1.9930    5.6970 o         1 V7H     -0.588000
     31 O29         0.2980    1.9490    5.0690 o         1 V7H     -0.407000
     32 O8          6.9700   -1.2140    7.8220 o         1 V7H     -0.543500
     33 O17        15.6040   -3.7840    4.3750 o         1 V7H     -0.588000
     34 O10         9.9450   -0.7390    6.9010 os        1 V7H     -0.158000
     35 O13        11.1290   -0.0250    4.3970 os        1 V7H     -0.178000
     36 H35         2.8610   -2.5880    2.9660 hc        1 V7H      0.105000
     37 H34         3.5230   -2.2710    4.6190 hc        1 V7H      0.105000
     38 H36         2.5920   -0.5250   -0.4070 ha        1 V7H      0.197000
     39 H25         0.0880    4.1530    6.4920 ha        1 V7H      0.127500
     40 H24         1.5480    5.2920    6.7800 ha        1 V7H      0.127500
     41 H26         4.5520    8.0220    7.6690 ha        1 V7H      0.193000
     42 H33         4.1620   -1.3350    3.2110 hc        1 V7H      0.105000
     43 H37         0.8020    0.6480    3.0660 ha        1 V7H      0.188000
     44 H23         3.8030    3.4780    4.7880 hc        1 V7H      0.080000
     45 H2          7.0780    1.0830    3.2750 hc        1 V7H      0.135000
     46 H3          7.7420    2.6130    3.9790 hc        1 V7H      0.135000
     47 H311        0.7520   -0.4390    5.3970 h1        1 V7H      0.107000
     48 H312        2.3620   -1.0870    5.9830 h1        1 V7H      0.107000
     49 H211        6.3460    3.4620    6.2980 hn        1 V7H      0.252500
     50 H212        4.0330    2.6470    7.8590 hx        1 V7H      0.130000
     51 H191        5.2720    0.6920    6.2380 hx        1 V7H      0.119500
     52 H192        5.2700    1.8490    4.8050 hx        1 V7H      0.119500
     53 H30         3.2250    1.1000    5.9180 hn        1 V7H      0.234000
     54 H151       13.1990   -3.1030    6.0570 hc        1 V7H      0.061500
     55 H152       13.1230   -3.4280    4.2780 hc        1 V7H      0.061500
     56 H111       13.6760   -0.6270    5.4580 hc        1 V7H      0.103500
     57 H112       11.9120   -0.0860    6.9990 h1        1 V7H      0.117500
     58 H12        11.5840   -1.8890    7.2080 h1        1 V7H      0.117500
     59 H141       13.2510   -1.0390    3.7510 hc        1 V7H      0.103500
     60 H142       11.0130   -2.0750    4.7690 h1        1 V7H      0.093000
     61 H20         6.2470    2.3810    7.5790 hn        1 V7H      0.252500
     62 C15        13.5460   -2.7430    5.0550 c3        1 V7H     -0.225000
     63 C7          7.2980   -0.0180    7.6430 c2        1 V7H      0.365000
@<TRIPOS>BOND
     1    1    3 1   
     2    1    4 1   
     3    1   38 1   
     4    2    5 1   
     5    2   41 1   
     6    4    8 1   
     7    5    9 1   
     8    6   12 1   
     9    6   39 1   
    10    6   40 1   
    11    7   14 1   
    12    7   36 1   
    13    7   37 1   
    14    7   42 1   
    15    8   14 1   
    16    8   43 1   
    17    9   15 1   
    18    9   24 1   
    19   10   11 1   
    20   10   16 1   
    21   10   45 1   
    22   10   46 1   
    23   11   17 1   
    24   12   15 1   
    25   12   19 1   
    26   13   16 1   
    27   13   18 1   
    28   13   63 1   
    29   14   23 1   
    30   15   24 1   
    31   15   44 1   
    32   16   25 1   
    33   17   18 1   
    34   17   35 1   
    35   18   34 1   
    36   19   27 1   
    37   19   31 1   
    38   20   30 1   
    39   20   33 1   
    40   20   62 1   
    41   21   22 1   
    42   21   34 1   
    43   21   57 1   
    44   21   58 1   
    45   22   26 1   
    46   22   35 1   
    47   22   60 1   
    48   23   27 1   
    49   23   47 1   
    50   23   48 1   
    51   24   28 1   
    52   24   50 1   
    53   25   28 1   
    54   25   51 1   
    55   25   52 1   
    56   26   56 1   
    57   26   59 1   
    58   26   62 1   
    59   27   53 1   
    60   28   49 1   
    61   28   61 1   
    62   29   63 1   
    63   32   63 1   
    64   54   62 1   
    65   55   62 1   
@<TRIPOS>SUBSTRUCTURE
     1 V7H         1 TEMP              0 ****  ****    0 ROOT
