@<TRIPOS>MOLECULE
V7H
   63    66     1     0     0
SMALL
bcc


@<TRIPOS>ATOM
      1 C35         3.3750   -4.0740   -3.4310 ca        1 V7H     -0.147000
      2 C25         6.3410    1.8950    1.5440 ca        1 V7H     -0.150000
      3 C34         2.4640   -3.5240   -2.5280 ca        1 V7H     -0.151000
      4 C36         4.1600   -3.2380   -4.2250 ca        1 V7H     -0.151000
      5 C24         5.4950    2.6560    2.3510 ca        1 V7H     -0.137000
      6 C26         5.9450    1.5570    0.2530 ca        1 V7H     -0.100000
      7 C33         2.3320   -2.1410   -2.4170 ca        1 V7H     -0.109000
      8 C37         4.0360   -1.8530   -4.1150 ca        1 V7H     -0.109000
      9 C23         4.2640    3.0810    1.8610 ca        1 V7H     -0.119000
     10 C2         -2.0120    2.6360    1.4140 ca        1 V7H     -0.135000
     11 C3         -3.0650    1.8390    1.8510 ca        1 V7H     -0.160000
     12 C27         4.7010    1.9730   -0.2400 ca        1 V7H     -0.102600
     13 C6         -0.9380    0.7220    0.3560 ca        1 V7H     -0.081600
     14 C32         3.1210   -1.3020   -3.2160 ca        1 V7H     -0.095300
     15 C22         3.8560    2.7500    0.5600 ca        1 V7H     -0.040300
     16 C1         -0.9610    2.0900    0.6740 ca        1 V7H     -0.096300
     17 C4         -3.0580    0.4730    1.5430 ca        1 V7H      0.060100
     18 C5         -1.9990   -0.0830    0.7950 ca        1 V7H      0.074100
     19 C28         4.3650    1.5630   -1.6450 c         1 V7H      0.659700
     20 C16        -6.6060   -4.4060    2.6730 c         1 V7H      0.909600
     21 C11        -3.2430   -2.0730    0.6250 c3        1 V7H      0.095400
     22 C12        -3.9360   -1.6940    1.9290 c3        1 V7H      0.104100
     23 C31         2.9390    0.1870   -3.1030 c3        1 V7H      0.122300
     24 C21         2.5330    3.2710    0.0750 c3        1 V7H      0.204100
     25 C19         0.1380    2.9830    0.1730 c3        1 V7H      0.215100
     26 C14        -5.3130   -2.3310    2.0670 c3        1 V7H     -0.062400
     27 N30         3.3200    0.7060   -1.8150 n         1 V7H     -0.535900
     28 N20         1.4090    2.7740    0.8500 n3        1 V7H     -0.831200
     29 O9          0.1540    0.1430   -1.7050 o         1 V7H     -0.841800
     30 O18        -7.3210   -4.3740    1.6300 o         1 V7H     -0.855800
     31 O29         5.0630    1.9870   -2.6010 o         1 V7H     -0.676100
     32 O8          1.2830   -0.1590    0.1750 o         1 V7H     -0.841800
     33 O17        -6.9510   -4.9940    3.7390 o         1 V7H     -0.855800
     34 O10        -1.9640   -1.4400    0.5120 os        1 V7H     -0.303900
     35 O13        -4.1440   -0.2660    1.9770 os        1 V7H     -0.332900
     36 H35         3.4740   -5.1650   -3.5180 ha        1 V7H      0.107000
     37 H34         1.8430   -4.1810   -1.9010 ha        1 V7H      0.117000
     38 H36         4.8780   -3.6690   -4.9350 ha        1 V7H      0.117000
     39 H25         7.3140    1.5580    1.9270 ha        1 V7H      0.115000
     40 H24         5.7970    2.9140    3.3760 ha        1 V7H      0.115000
     41 H26         6.6050    0.9590   -0.3940 ha        1 V7H      0.136000
     42 H33         1.6050   -1.6820   -1.7100 ha        1 V7H      0.166000
     43 H37         4.6610   -1.1940   -4.7350 ha        1 V7H      0.166000
     44 H23         3.5860    3.6710    2.4970 ha        1 V7H      0.141000
     45 H2         -2.0090    3.7080    1.6580 ha        1 V7H      0.111000
     46 H3         -3.8980    2.2570    2.4310 ha        1 V7H      0.128000
     47 H311        3.5270    0.7100   -3.9090 h1        1 V7H      0.078700
     48 H312        1.8330    0.4050   -3.2380 h1        1 V7H      0.078700
     49 H211        2.5390    4.3960    0.1900 h1        1 V7H      0.032700
     50 H212        2.4270    3.0650   -1.0320 h1        1 V7H      0.032700
     51 H191        0.2190    2.8160   -0.9450 h1        1 V7H      0.031200
     52 H192       -0.1450    4.0630    0.3330 h1        1 V7H      0.031200
     53 H30         2.7500    0.4120   -1.0340 hn        1 V7H      0.384500
     54 H151       -4.8160   -3.6850    3.6870 hc        1 V7H      0.023200
     55 H152       -4.5420   -4.3530    2.0270 hc        1 V7H      0.023200
     56 H111       -3.0080   -3.1680    0.5990 h1        1 V7H      0.065700
     57 H112       -3.8730   -1.7860   -0.2560 h1        1 V7H      0.065700
     58 H12        -3.2770   -1.9650    2.8000 h1        1 V7H      0.054700
     59 H141       -5.9430   -1.6820    2.7310 hc        1 V7H      0.059200
     60 H142       -5.8220   -2.3750    1.0690 hc        1 V7H      0.059200
     61 H20         1.5320    1.7930    1.0640 hn        1 V7H      0.411800
     62 C15        -5.2280   -3.7210    2.6470 c3        1 V7H     -0.193400
     63 C7          0.2240    0.1800   -0.4440 c         1 V7H      0.918200
@<TRIPOS>BOND
     1    1    3 ar  
     2    1    4 ar  
     3    1   36 1   
     4    2    5 ar  
     5    2    6 ar  
     6    2   39 1   
     7    3    7 ar  
     8    3   37 1   
     9    4    8 ar  
    10    4   38 1   
    11    5    9 ar  
    12    5   40 1   
    13    6   12 ar  
    14    6   41 1   
    15    7   14 ar  
    16    7   42 1   
    17    8   14 ar  
    18    8   43 1   
    19    9   15 ar  
    20    9   44 1   
    21   10   11 ar  
    22   10   16 ar  
    23   10   45 1   
    24   11   17 ar  
    25   11   46 1   
    26   12   15 ar  
    27   12   19 1   
    28   13   16 ar  
    29   13   18 ar  
    30   13   63 1   
    31   14   23 1   
    32   15   24 1   
    33   16   25 1   
    34   17   18 ar  
    35   17   35 1   
    36   18   34 1   
    37   19   27 1   
    38   19   31 2   
    39   20   30 1   
    40   20   33 1   
    41   20   62 1   
    42   21   22 1   
    43   21   34 1   
    44   21   56 1   
    45   21   57 1   
    46   22   26 1   
    47   22   35 1   
    48   22   58 1   
    49   23   27 1   
    50   23   47 1   
    51   23   48 1   
    52   24   28 1   
    53   24   49 1   
    54   24   50 1   
    55   25   28 1   
    56   25   51 1   
    57   25   52 1   
    58   26   59 1   
    59   26   60 1   
    60   26   62 1   
    61   27   53 1   
    62   28   61 1   
    63   29   63 1   
    64   32   63 1   
    65   54   62 1   
    66   55   62 1   
@<TRIPOS>SUBSTRUCTURE
     1 V7H         1 TEMP              0 ****  ****    0 ROOT
