@<TRIPOS>MOLECULE
V7H
   63    56     1     0     0
SMALL
bcc


@<TRIPOS>ATOM
      1 C35        -9.1060    5.3530   -1.1160 c1        1 V7H     -0.137833
      2 C25        -1.5770    3.4090   -1.2040 c1        1 V7H     -0.137833
      3 C34        -9.3890    4.1750   -1.8120 c1        1 V7H     -0.137833
      4 C36        -8.0780    5.3770   -0.1760 c1        1 V7H     -0.137833
      5 C24        -0.4270    2.7030   -0.8370 c1        1 V7H     -0.137833
      6 C26        -2.8290    2.7860   -1.1510 c1        1 V7H     -0.111000
      7 C33        -8.6510    3.0310   -1.5680 c1        1 V7H     -0.137833
      8 C37        -7.3350    4.2290    0.0700 c1        1 V7H     -0.110000
      9 C23        -0.5200    1.3820   -0.4190 c1        1 V7H     -0.126500
     10 C2          2.0590   -3.0370   -1.0360 c1        1 V7H     -0.126500
     11 C3          3.4630   -3.1660   -1.2070 c1        1 V7H     -0.162000
     12 C27        -2.9300    1.4480   -0.7280 c1        1 V7H     -0.120000
     13 C6          2.4140   -1.9670    1.2060 c1        1 V7H     -0.064000
     14 C32        -7.6170    3.0530   -0.6240 c1        1 V7H     -0.087000
     15 C22        -1.7780    0.7460   -0.3620 c1        1 V7H     -0.067500
     16 C1          1.5230   -2.4290    0.1870 c1        1 V7H     -0.067500
     17 C4          4.3410   -2.7100   -0.2000 c1        1 V7H      0.013000
     18 C5          3.7990   -2.0950    1.0370 c1        1 V7H      0.029000
     19 C28        -4.4170    0.9850   -0.6420 c2        1 V7H      0.355000
     20 C7          2.1760   -1.5670    2.6120 c2        1 V7H      0.369000
     21 C16        10.3330   -3.3660    0.6740 c1        1 V7H      0.328000
     22 C11         6.0450   -1.6280    1.7200 c3        1 V7H     -0.056000
     23 C12         6.5050   -2.7400    0.8760 c3        1 V7H     -0.008000
     24 C31        -6.7650    1.7490   -0.3910 c3        1 V7H      0.017000
     25 C21        -1.5710   -0.5870    0.2770 c3        1 V7H     -0.052000
     26 C19         0.0140   -2.3570    0.4040 c3        1 V7H     -0.052000
     27 C15         8.8850   -3.7120    0.7500 c2        1 V7H     -0.222000
     28 C14         8.0290   -2.4480    0.4580 c3        1 V7H     -0.140000
     29 N30        -5.4810    1.9060   -0.9780 n         1 V7H     -0.368000
     30 N20        -0.5590   -1.3360   -0.4630 n3        1 V7H     -0.313000
     31 O9          1.9380   -2.4310    3.4680 o         1 V7H     -0.570500
     32 O18        10.9320   -3.4020   -0.4360 o         1 V7H     -0.591000
     33 O29        -4.6770   -0.1690   -0.3850 o         1 V7H     -0.416000
     34 O8          2.2890   -0.3820    2.9450 o         1 V7H     -0.570500
     35 O17        10.9130   -2.8840    1.6870 o         1 V7H     -0.591000
     36 O10         4.7830   -1.6300    2.0630 os        1 V7H     -0.183000
     37 O13         5.8080   -2.9700   -0.2480 os        1 V7H     -0.217000
     38 H35        -9.6970    6.1150   -1.2010 ha        1 V7H      0.121667
     39 H34       -10.1480    4.1590   -2.5060 ha        1 V7H      0.121667
     40 H36        -7.8820    6.2310    0.3390 ha        1 V7H      0.121667
     41 H25        -1.5040    4.3550   -1.5020 ha        1 V7H      0.121667
     42 H24         0.4460    3.1400   -0.8760 ha        1 V7H      0.121667
     43 H26        -3.6140    3.2600   -1.4390 ha        1 V7H      0.127000
     44 H33        -8.8530    2.2040   -2.0590 ha        1 V7H      0.121667
     45 H37        -6.5760    4.2480    0.7650 ha        1 V7H      0.162000
     46 H23         0.3150    0.8780   -0.1550 ha        1 V7H      0.166000
     47 H2          1.4470   -3.4150   -1.7050 ha        1 V7H      0.166000
     48 H3          3.8260   -3.5740   -2.0320 ha        1 V7H      0.126000
     49 H311       -6.6620    1.5870    0.6070 h1        1 V7H      0.098000
     50 H312       -7.2340    0.9590   -0.8140 h1        1 V7H      0.098000
     51 H211       -1.2710   -0.4600    1.2020 h1        1 V7H      0.088750
     52 H212       -2.4450   -1.1040    0.2730 h1        1 V7H      0.088750
     53 H191       -0.3990   -3.2500    0.1890 h1        1 V7H      0.088750
     54 H192       -0.1740   -2.1220    1.3650 h1        1 V7H      0.088750
     55 H30        -5.3440    2.5410   -1.5940 hn        1 V7H      0.265000
     56 H151        8.6760   -4.0480    1.6560 ha        1 V7H      0.062000
     57 H152        8.6770   -4.4040    0.0900 ha        1 V7H      0.062000
     58 H111        6.5860   -1.6270    2.5480 h1        1 V7H      0.104500
     59 H112        6.2220   -0.7970    1.2410 h1        1 V7H      0.104500
     60 H12         6.4900   -3.5460    1.4070 h1        1 V7H      0.092000
     61 H141        8.3870   -1.6600    0.9960 hc        1 V7H      0.098000
     62 H142        8.0710   -2.2360   -0.5030 hc        1 V7H      0.098000
     63 H20         0.1170   -0.7520   -0.7460 hn        1 V7H      0.194000
@<TRIPOS>BOND
     1    1    4 1   
     2    1   38 1   
     3    2    5 1   
     4    2   41 1   
     5    3    7 1   
     6    3   39 1   
     7    4   40 1   
     8    5   42 1   
     9    6   12 1   
    10    6   43 1   
    11    7   44 1   
    12    8   14 1   
    13    8   45 1   
    14    9   15 1   
    15    9   46 1   
    16   10   16 1   
    17   10   47 1   
    18   11   17 1   
    19   11   48 1   
    20   12   19 1   
    21   13   18 1   
    22   13   20 1   
    23   14   24 1   
    24   15   25 1   
    25   16   26 1   
    26   17   37 1   
    27   18   36 1   
    28   19   29 1   
    29   19   33 1   
    30   20   31 1   
    31   20   34 1   
    32   21   32 1   
    33   21   35 1   
    34   22   23 1   
    35   22   36 1   
    36   22   58 1   
    37   22   59 1   
    38   23   28 1   
    39   23   37 1   
    40   23   60 1   
    41   24   29 1   
    42   24   49 1   
    43   24   50 1   
    44   25   30 1   
    45   25   51 1   
    46   25   52 1   
    47   26   30 1   
    48   26   53 1   
    49   26   54 1   
    50   27   28 1   
    51   27   56 1   
    52   27   57 1   
    53   28   61 1   
    54   28   62 1   
    55   29   55 1   
    56   30   63 1   
@<TRIPOS>SUBSTRUCTURE
     1 V7H         1 TEMP              0 ****  ****    0 ROOT
