@<TRIPOS>MOLECULE
V8W
   21    21     1     0     0
SMALL
bcc


@<TRIPOS>ATOM
      1 N7          0.3800    0.6750   -0.3080 n3        1 V8W     -0.836200
      2 C3          1.7360    0.1900   -0.0520 c3        1 V8W      0.148500
      3 C1          1.9660   -1.2330   -0.6690 c3        1 V8W      0.341300
      4 N2          1.3470   -1.3250   -2.0640 n4        1 V8W     -0.876600
      5 C4          1.9710    0.1310    1.4760 c3        1 V8W     -0.088400
      6 C5          0.6150    0.4210    2.1120 c3        1 V8W     -0.101400
      7 C6         -0.3730    0.5900    0.9450 c3        1 V8W      0.144800
      8 OXT         1.3190   -2.2050    0.1010 oh        1 V8W     -0.546800
      9 H3          2.5040    0.8560   -0.5410 h1        1 V8W      0.071700
     10 H61C       -1.0440   -0.3090    0.8730 h1        1 V8W      0.071700
     11 H62C       -1.0180    1.4980    1.0870 h1        1 V8W      0.071700
     12 H41C        2.7260    0.9030    1.7660 hc        1 V8W      0.070700
     13 H42C        2.3580   -0.8680    1.7920 hc        1 V8W      0.070700
     14 H21N        1.6130   -0.5040   -2.6100 hn        1 V8W      0.462133
     15 H22N        1.6460   -2.1750   -2.5410 hn        1 V8W      0.462133
     16 H51C        0.6570    1.3490    2.7330 hc        1 V8W      0.073700
     17 H52C        0.2930   -0.4190    2.7750 hc        1 V8W      0.073700
     18 HOXT        1.8810   -2.9950    0.1530 ho        1 V8W      0.444000
     19 H1C         3.0740   -1.4200   -0.7820 hx        1 V8W      0.097700
     20 H2          0.4110    1.6230   -0.6390 hn        1 V8W      0.380800
     21 H23         0.3230   -1.3410   -1.9630 hn        1 V8W      0.462133
@<TRIPOS>BOND
     1    1    2 1   
     2    1    7 1   
     3    1   20 1   
     4    2    3 1   
     5    2    5 1   
     6    2    9 1   
     7    3    4 1   
     8    3    8 1   
     9    3   19 1   
    10    4   14 1   
    11    4   15 1   
    12    4   21 1   
    13    5    6 1   
    14    5   12 1   
    15    5   13 1   
    16    6    7 1   
    17    6   16 1   
    18    6   17 1   
    19    7   10 1   
    20    7   11 1   
    21    8   18 1   
@<TRIPOS>SUBSTRUCTURE
     1 V8W         1 TEMP              0 ****  ****    0 ROOT
