@<TRIPOS>MOLECULE
V8W
   21    21     1     0     0
SMALL
bcc


@<TRIPOS>ATOM
      1 N7          0.4360    0.7160   -0.3120 n7        1 V8W     -0.836200
      2 C3          1.7620    0.1600   -0.0460 c3        1 V8W      0.148500
      3 C1          1.9230   -1.2720   -0.6660 c3        1 V8W      0.341300
      4 N2          1.3120   -1.3270   -2.0660 nz        1 V8W     -0.876600
      5 C4          1.9820    0.0850    1.4830 c3        1 V8W     -0.088400
      6 C5          0.6370    0.4430    2.1100 c3        1 V8W     -0.101400
      7 C6         -0.3300    0.6670    0.9350 c3        1 V8W      0.144800
      8 OXT         1.2200   -2.2110    0.0950 oh        1 V8W     -0.546800
      9 H3          2.5680    0.7860   -0.5270 h1        1 V8W      0.071700
     10 H61C       -0.9290    1.6060    1.0750 h1        1 V8W      0.071700
     11 H62C       -1.0460   -0.1970    0.8550 h1        1 V8W      0.071700
     12 H41C        2.7740    0.8150    1.7820 hc        1 V8W      0.070700
     13 H42C        2.3140   -0.9340    1.7990 hc        1 V8W      0.070700
     14 H21N        1.5690   -2.1900   -2.5440 hn        1 V8W      0.462133
     15 H22N        0.2870   -1.2900   -1.9740 hn        1 V8W      0.462133
     16 H51C        0.7240    1.3670    2.7330 hc        1 V8W      0.073700
     17 H52C        0.2670   -0.3810    2.7680 hc        1 V8W      0.073700
     18 HOXT        1.7390   -3.0290    0.1490 ho        1 V8W      0.444000
     19 H1C         3.0210   -1.5150   -0.7710 hx        1 V8W      0.097700
     20 H2          0.5190    1.6610   -0.6390 hn        1 V8W      0.380800
     21 H23         1.6250   -0.5190   -2.6070 hn        1 V8W      0.462133
@<TRIPOS>BOND
     1    1    2 1   
     2    1    7 1   
     3    1   20 1   
     4    2    3 1   
     5    2    5 1   
     6    2    9 1   
     7    3    4 1   
     8    3    8 1   
     9    3   19 1   
    10    4   14 1   
    11    4   15 1   
    12    4   21 1   
    13    5    6 1   
    14    5   12 1   
    15    5   13 1   
    16    6    7 1   
    17    6   16 1   
    18    6   17 1   
    19    7   10 1   
    20    7   11 1   
    21    8   18 1   
@<TRIPOS>SUBSTRUCTURE
     1 V8W         1 TEMP              0 ****  ****    0 ROOT
