@<TRIPOS>MOLECULE
V8W
   21    21     1     0     0
SMALL
bcc


@<TRIPOS>ATOM
      1 N7          0.3920    0.6770   -0.3230 n3        1 V8W     -0.836200
      2 C3          1.7410    0.1900   -0.0390 c3        1 V8W      0.148500
      3 C1          1.9820   -1.2330   -0.6540 c3        1 V8W      0.341300
      4 N2          1.3930   -1.3200   -2.0620 n4        1 V8W     -0.876600
      5 C4          1.9430    0.1270    1.4930 c3        1 V8W     -0.088400
      6 C5          0.5740    0.4180    2.1020 c3        1 V8W     -0.101400
      7 C6         -0.3880    0.5910    0.9140 c3        1 V8W      0.144800
      8 OXT         1.3170   -2.2050    0.0990 oh        1 V8W     -0.546800
      9 H3          2.5200    0.8550   -0.5100 h1        1 V8W      0.071700
     10 H61C       -1.0350    1.4990    1.0440 h1        1 V8W      0.071700
     11 H62C       -1.0580   -0.3080    0.8260 h1        1 V8W      0.071700
     12 H41C        2.3220   -0.8730    1.8150 hc        1 V8W      0.070700
     13 H42C        2.6940    0.8970    1.8020 hc        1 V8W      0.070700
     14 H21N        1.6720   -0.4980   -2.6000 hn        1 V8W      0.462133
     15 H22N        0.3670   -1.3350   -1.9840 hn        1 V8W      0.462133
     16 H51C        0.6060    1.3460    2.7250 hc        1 V8W      0.073700
     17 H52C        0.2370   -0.4220    2.7560 hc        1 V8W      0.073700
     18 HOXT        1.8750   -2.9970    0.1620 ho        1 V8W      0.444000
     19 H1C         3.0920   -1.4210   -0.7440 hx        1 V8W      0.097700
     20 H2          0.4320    1.6260   -0.6500 hn        1 V8W      0.380800
     21 H23         1.7000   -2.1700   -2.5350 hn        1 V8W      0.462133
@<TRIPOS>BOND
     1    1    2 1   
     2    1    7 1   
     3    1   20 1   
     4    2    3 1   
     5    2    5 1   
     6    2    9 1   
     7    3    4 1   
     8    3    8 1   
     9    3   19 1   
    10    4   14 1   
    11    4   15 1   
    12    4   21 1   
    13    5    6 1   
    14    5   12 1   
    15    5   13 1   
    16    6    7 1   
    17    6   16 1   
    18    6   17 1   
    19    7   10 1   
    20    7   11 1   
    21    8   18 1   
@<TRIPOS>SUBSTRUCTURE
     1 V8W         1 TEMP              0 ****  ****    0 ROOT
