@<TRIPOS>MOLECULE
V8W
   20    20     1     0     0
SMALL
bcc


@<TRIPOS>ATOM
      1 N7         -1.1840    0.1220   -0.3530 n3        1 V8W     -0.815200
      2 C3          0.0900    0.4140   -0.2870 c3        1 V8W      0.136500
      3 C1          0.8760   -0.4830   -1.1850 c3        1 V8W      0.371300
      4 N2          1.9590    0.2220   -1.7050 n3        1 V8W     -0.901800
      5 C4          0.4920    0.1630    1.2110 c3        1 V8W     -0.088400
      6 C5         -0.8200   -0.0110    1.9640 c3        1 V8W     -0.104400
      7 C6         -1.7690    0.3760    1.1050 c3        1 V8W      0.149800
      8 OXT         0.0360   -0.9430   -2.2660 oh        1 V8W     -0.654800
      9 H3          0.2430    1.3770   -0.5320 h1        1 V8W      0.047700
     10 H61C       -1.9650    1.3200    1.2260 h1        1 V8W      0.046200
     11 H62C       -2.5830   -0.1570    1.2400 h1        1 V8W      0.046200
     12 H41C        1.0370   -0.6550    1.2840 hc        1 V8W      0.059700
     13 H42C        0.9880    0.9390    1.5670 hc        1 V8W      0.059700
     14 H21N        2.7170   -0.2680   -1.6020 hn        1 V8W      0.357300
     15 H22N        1.8180    0.3860   -2.5990 hn        1 V8W      0.357300
     16 H51C       -0.9480   -0.9510    2.2130 hc        1 V8W      0.047700
     17 H52C       -0.8330    0.5550    2.7540 hc        1 V8W      0.047700
     18 HOXT        0.2190   -1.8030   -2.4420 ho        1 V8W      0.424000
     19 H1C         1.2080   -1.2710   -0.6620 h2        1 V8W      0.057700
     20 H2         -1.5840    0.6680   -0.9320 hn        1 V8W      0.357800
@<TRIPOS>BOND
     1    1    2 1   
     2    1    7 1   
     3    1   20 1   
     4    2    3 1   
     5    2    5 1   
     6    2    9 1   
     7    3    4 1   
     8    3    8 1   
     9    3   19 1   
    10    4   14 1   
    11    4   15 1   
    12    5    6 1   
    13    5   12 1   
    14    5   13 1   
    15    6    7 1   
    16    6   16 1   
    17    6   17 1   
    18    7   10 1   
    19    7   11 1   
    20    8   18 1   
@<TRIPOS>SUBSTRUCTURE
     1 V8W         1 TEMP              0 ****  ****    0 ROOT
