@<TRIPOS>MOLECULE
V8W
   20    20     1     0     0
SMALL
bcc


@<TRIPOS>ATOM
      1 N7          0.5570   -1.3020    0.2910 n3        1 V8W     -0.795200
      2 C3         -0.0350   -0.0920    0.8760 c3        1 V8W      0.127500
      3 C1         -1.3840    0.2900    0.1830 c3        1 V8W      0.379300
      4 N2         -2.3300   -0.8000    0.0180 n3        1 V8W     -0.936800
      5 C4          0.9860    1.0630    0.7770 c3        1 V8W     -0.089400
      6 C5          2.1530    0.5220   -0.0420 c3        1 V8W     -0.099400
      7 C6          1.7280   -0.8910   -0.4800 c3        1 V8W      0.147800
      8 OXT        -1.0560    0.8790   -1.0730 oh        1 V8W     -0.600800
      9 H3         -0.2940   -0.2770    1.9590 h1        1 V8W      0.040700
     10 H61C        2.5700   -1.6230   -0.3620 h1        1 V8W      0.051700
     11 H62C        1.4230   -0.8750   -1.5620 h1        1 V8W      0.051700
     12 H41C        0.5270    1.9520    0.2800 hc        1 V8W      0.054200
     13 H42C        1.3190    1.3700    1.7980 hc        1 V8W      0.054200
     14 H21N       -2.0540   -1.3960   -0.7390 hn        1 V8W      0.362300
     15 H22N       -2.3770   -1.3410    0.8580 hn        1 V8W      0.362300
     16 H51C        2.3510    1.1630   -0.9340 hc        1 V8W      0.047200
     17 H52C        3.0870    0.4830    0.5690 hc        1 V8W      0.047200
     18 HOXT       -1.8840    1.1400   -1.4970 ho        1 V8W      0.410000
     19 H1C        -1.8800    1.0730    0.8350 h2        1 V8W      0.040700
     20 H2          0.8340   -1.9250    1.0280 hn        1 V8W      0.344800
@<TRIPOS>BOND
     1    1    2 1   
     2    1    7 1   
     3    1   20 1   
     4    2    3 1   
     5    2    5 1   
     6    2    9 1   
     7    3    4 1   
     8    3    8 1   
     9    3   19 1   
    10    4   14 1   
    11    4   15 1   
    12    5    6 1   
    13    5   12 1   
    14    5   13 1   
    15    6    7 1   
    16    6   16 1   
    17    6   17 1   
    18    7   10 1   
    19    7   11 1   
    20    8   18 1   
@<TRIPOS>SUBSTRUCTURE
     1 V8W         1 TEMP              0 ****  ****    0 ROOT
