@<TRIPOS>MOLECULE
V90
   50    51     1     0     0
SMALL
bcc


@<TRIPOS>ATOM
      1 F18         0.1460   -0.9040    0.6140 f         1 V90     -0.129900
      2 C5          1.4210   -0.4260    0.5760 ca        1 V90     -0.056100
      3 C6          2.2560   -0.5900    1.6840 ca        1 V90      0.039900
      4 S12         1.9820   -1.4270    3.0790 ss        1 V90      0.095000
      5 C13         0.4280   -2.2520    2.9920 c3        1 V90     -0.089300
      6 C14         0.3900   -3.1510    4.2160 c3        1 V90      0.143400
      7 O15         0.7140   -4.4580    3.7760 oh        1 V90     -0.596800
      8 C1          3.5390    0.0910    1.6220 ca        1 V90      0.077900
      9 F17         4.2840    0.2250    2.7420 f         1 V90     -0.088900
     10 C4          1.8310    0.2780   -0.6310 ca        1 V90      0.400600
     11 C3          3.2440    0.4940   -0.8120 ca        1 V90     -0.713500
     12 S8          4.0420    0.3340   -2.1580 sy        1 V90      1.513200
     13 O10         3.2950    0.2110   -3.3140 o         1 V90     -0.580800
     14 N11         4.6930    2.1470   -2.3420 nz        1 V90     -0.784500
     15 O9          5.2590   -0.3100   -2.0690 o         1 V90     -0.580800
     16 C2          3.9890    0.6170    0.4280 ca        1 V90      0.193900
     17 F16         5.1770    1.2670    0.3810 f         1 V90     -0.121900
     18 N7          0.8850    0.6150   -1.5340 nu        1 V90     -0.707600
     19 C19         0.9220    1.7010   -2.5190 c3        1 V90      0.241500
     20 C26         0.4250    1.1810   -3.8780 c3        1 V90     -0.093400
     21 C25         0.5470    2.1650   -5.0210 c3        1 V90     -0.075400
     22 C24         1.8960    2.8440   -5.1380 c3        1 V90     -0.070900
     23 C23         1.9040    4.2880   -4.6840 c3        1 V90     -0.094400
     24 C22         1.7050    4.5210   -3.2010 c3        1 V90     -0.070900
     25 C21         0.3060    4.2130   -2.7110 c3        1 V90     -0.075400
     26 C20         0.1110    2.8970   -1.9870 c3        1 V90     -0.093400
     27 H1          0.3240   -2.8700    2.0640 h1        1 V90      0.108200
     28 H2         -0.4180   -1.5230    3.0150 h1        1 V90      0.108200
     29 H3         -0.6410   -3.1370    4.6650 h1        1 V90      0.052200
     30 H4          1.1300   -2.8100    4.9940 h1        1 V90      0.052200
     31 H5          0.6480   -5.0400    4.5450 ho        1 V90      0.424000
     32 H6          5.7100    2.1410   -2.4000 hn        1 V90      0.450800
     33 H7          4.3260    2.5890   -3.1810 hn        1 V90      0.450800
     34 H8         -0.0350    0.2420   -1.3800 hn        1 V90      0.465800
     35 H9          1.9970    2.0190   -2.6280 h1        1 V90      0.032700
     36 H10        -0.6510    0.8730   -3.7860 hc        1 V90      0.061950
     37 H11         1.0280    0.2670   -4.1420 hc        1 V90      0.061950
     38 H12        -0.2690    2.9320   -4.9590 hc        1 V90      0.060450
     39 H13         0.3560    1.5830   -5.9660 hc        1 V90      0.060450
     40 H14         2.6740    2.2540   -4.5840 hc        1 V90      0.031200
     41 H15         2.2050    2.8310   -6.2200 hc        1 V90      0.031200
     42 H16         1.1090    4.8490   -5.2470 hc        1 V90      0.054200
     43 H17         2.8900    4.7420   -4.9790 hc        1 V90      0.054200
     44 H18         1.9120    5.6090   -3.0020 hc        1 V90      0.031200
     45 H19         2.4680    3.9480   -2.6110 hc        1 V90      0.031200
     46 H20        -0.0020    5.0220   -1.9900 hc        1 V90      0.060450
     47 H21        -0.4140    4.2830   -3.5700 hc        1 V90      0.060450
     48 H22         0.3810    3.0600   -0.9060 hc        1 V90      0.061950
     49 H23        -0.9810    2.6360   -2.0210 hc        1 V90      0.061950
     50 H113        4.4310    2.7140   -1.5410 hn        1 V90      0.450800
@<TRIPOS>BOND
     1    1    2 1   
     2    2    3 ar  
     3    2   10 ar  
     4    3    4 1   
     5    3    8 ar  
     6    4    5 1   
     7    5    6 1   
     8    5   27 1   
     9    5   28 1   
    10    6    7 1   
    11    6   29 1   
    12    6   30 1   
    13    7   31 1   
    14    8    9 1   
    15    8   16 ar  
    16   10   11 ar  
    17   10   18 1   
    18   11   12 1   
    19   11   16 ar  
    20   12   13 2   
    21   12   14 1   
    22   12   15 2   
    23   14   32 1   
    24   14   33 1   
    25   14   50 1   
    26   16   17 1   
    27   18   19 1   
    28   18   34 1   
    29   19   20 1   
    30   19   26 1   
    31   19   35 1   
    32   20   21 1   
    33   20   36 1   
    34   20   37 1   
    35   21   22 1   
    36   21   38 1   
    37   21   39 1   
    38   22   23 1   
    39   22   40 1   
    40   22   41 1   
    41   23   24 1   
    42   23   42 1   
    43   23   43 1   
    44   24   25 1   
    45   24   44 1   
    46   24   45 1   
    47   25   26 1   
    48   25   46 1   
    49   25   47 1   
    50   26   48 1   
    51   26   49 1   
@<TRIPOS>SUBSTRUCTURE
     1 V90         1 TEMP              0 ****  ****    0 ROOT
