@<TRIPOS>MOLECULE
V90
   50    51     1     0     0
SMALL
bcc


@<TRIPOS>ATOM
      1 F18         0.1190   -0.8940    0.6030 f         1 V90     -0.129900
      2 C5          1.3970   -0.4230    0.5750 ca        1 V90     -0.056100
      3 C6          2.2220   -0.5900    1.6900 ca        1 V90      0.039900
      4 S12         1.9320   -1.4240    3.0840 ss        1 V90      0.095000
      5 C13         0.3740   -2.2410    2.9850 c3        1 V90     -0.089300
      6 C14         0.3210   -3.1380    4.2100 c3        1 V90      0.143400
      7 O15         0.6440   -4.4470    3.7740 oh        1 V90     -0.596800
      8 C1          3.5090    0.0850    1.6380 ca        1 V90      0.077900
      9 F17         4.2460    0.2160    2.7640 f         1 V90     -0.088900
     10 C4          1.8210    0.2780   -0.6290 ca        1 V90      0.400600
     11 C3          3.2370    0.4870   -0.7990 ca        1 V90     -0.713500
     12 S8          4.0440    0.3200   -2.1390 sy        1 V90      1.513200
     13 O10         3.3060    0.2000   -3.3000 o         1 V90     -0.580800
     14 N11         4.7070    2.1300   -2.3190 n4        1 V90     -0.784500
     15 O9          5.2570   -0.3300   -2.0390 o         1 V90     -0.580800
     16 C2          3.9720    0.6070    0.4480 ca        1 V90      0.193900
     17 F16         5.1640    1.2500    0.4090 f         1 V90     -0.121900
     18 N7          0.8840    0.6190   -1.5400 nh        1 V90     -0.707600
     19 C19         0.9350    1.7040   -2.5270 c3        1 V90      0.241500
     20 C26         0.4460    1.1850   -3.8890 c3        1 V90     -0.093400
     21 C25         0.5830    2.1680   -5.0310 c3        1 V90     -0.075400
     22 C24         1.9370    2.8390   -5.1380 c3        1 V90     -0.070900
     23 C23         1.9490    4.2830   -4.6860 c3        1 V90     -0.094400
     24 C22         1.7390    4.5180   -3.2040 c3        1 V90     -0.070900
     25 C21         0.3340    4.2190   -2.7260 c3        1 V90     -0.075400
     26 C20         0.1260    2.9050   -2.0020 c3        1 V90     -0.093400
     27 H1         -0.4670   -1.5070    3.0000 h1        1 V90      0.108200
     28 H2          0.2760   -2.8590    2.0570 h1        1 V90      0.108200
     29 H3          1.0570   -2.7990    4.9940 h1        1 V90      0.052200
     30 H4         -0.7130   -3.1180    4.6500 h1        1 V90      0.052200
     31 H5          0.5680   -5.0270    4.5430 ho        1 V90      0.424000
     32 H6          4.4420    2.6990   -1.5210 hn        1 V90      0.450800
     33 H7          5.7240    2.1180   -2.3680 hn        1 V90      0.450800
     34 H8         -0.0390    0.2510   -1.3930 hn        1 V90      0.465800
     35 H9          2.0130    2.0160   -2.6270 h1        1 V90      0.032700
     36 H10        -0.6320    0.8830   -3.8050 hc        1 V90      0.061950
     37 H11         1.0460    0.2670   -4.1470 hc        1 V90      0.061950
     38 H12         0.3960    1.5860   -5.9770 hc        1 V90      0.060450
     39 H13        -0.2290    2.9380   -4.9770 hc        1 V90      0.060450
     40 H14         2.2540    2.8220   -6.2180 hc        1 V90      0.031200
     41 H15         2.7070    2.2450   -4.5780 hc        1 V90      0.031200
     42 H16         1.1620    4.8480   -5.2560 hc        1 V90      0.054200
     43 H17         2.9400    4.7310   -4.9730 hc        1 V90      0.054200
     44 H18         2.4940    3.9420   -2.6070 hc        1 V90      0.031200
     45 H19         1.9500    5.6060   -3.0050 hc        1 V90      0.031200
     46 H20        -0.3780    4.2920   -3.5910 hc        1 V90      0.060450
     47 H21         0.0250    5.0300   -2.0080 hc        1 V90      0.060450
     48 H22         0.3880    3.0670   -0.9190 hc        1 V90      0.061950
     49 H23        -0.9670    2.6500   -2.0450 hc        1 V90      0.061950
     50 H113        4.3490    2.5720   -3.1610 hn        1 V90      0.450800
@<TRIPOS>BOND
     1    1    2 1   
     2    2    3 ar  
     3    2   10 ar  
     4    3    4 1   
     5    3    8 ar  
     6    4    5 1   
     7    5    6 1   
     8    5   27 1   
     9    5   28 1   
    10    6    7 1   
    11    6   29 1   
    12    6   30 1   
    13    7   31 1   
    14    8    9 1   
    15    8   16 ar  
    16   10   11 ar  
    17   10   18 1   
    18   11   12 1   
    19   11   16 ar  
    20   12   13 2   
    21   12   14 1   
    22   12   15 2   
    23   14   32 1   
    24   14   33 1   
    25   14   50 1   
    26   16   17 1   
    27   18   19 1   
    28   18   34 1   
    29   19   20 1   
    30   19   26 1   
    31   19   35 1   
    32   20   21 1   
    33   20   36 1   
    34   20   37 1   
    35   21   22 1   
    36   21   38 1   
    37   21   39 1   
    38   22   23 1   
    39   22   40 1   
    40   22   41 1   
    41   23   24 1   
    42   23   42 1   
    43   23   43 1   
    44   24   25 1   
    45   24   44 1   
    46   24   45 1   
    47   25   26 1   
    48   25   46 1   
    49   25   47 1   
    50   26   48 1   
    51   26   49 1   
@<TRIPOS>SUBSTRUCTURE
     1 V90         1 TEMP              0 ****  ****    0 ROOT
