@<TRIPOS>MOLECULE
VA
   60    57     1     0     0
SMALL
bcc


@<TRIPOS>ATOM
      1 O21        -2.5240   -4.0510    9.9380 o         1 VA      -0.357000
      2 C20        -1.3480   -4.3050    9.7730 c1        1 VA       0.303000
      3 C22        -0.6440   -5.2670   10.7050 c2        1 VA      -0.218000
      4 O19        -0.6440   -3.7160    8.7090 os        1 VA      -0.283000
      5 C1         -1.4270   -2.8550    7.9150 c3        1 VA      -0.011000
      6 C2         -0.5540   -2.2080    6.8620 c3        1 VA      -0.164000
      7 C3         -1.4260   -1.4880    5.8570 c3        1 VA      -0.157000
      8 C4         -0.5630   -0.9380    4.7430 c3        1 VA      -0.157000
      9 C5         -1.4470   -0.3880    3.6450 c3        1 VA      -0.158000
     10 C6         -0.5950   -0.0100    2.4530 c3        1 VA      -0.158000
     11 C7         -1.4900    0.3750    1.2950 c3        1 VA      -0.158000
     12 C8         -0.6410    0.6580    0.0750 c3        1 VA      -0.158000
     13 C9         -1.5380    0.8630   -1.1260 c3        1 VA      -0.156000
     14 C10        -0.6910    0.9880   -2.3730 c3        1 VA      -0.132000
     15 C11        -1.5530    0.7570   -3.5940 c2        1 VA      -0.170000
     16 C12        -1.0590    1.0030   -4.8240 c1        1 VA      -0.169000
     17 C13         0.3570    1.5090   -4.9830 c2        1 VA      -0.132000
     18 C14         0.7250    1.5270   -6.4510 c3        1 VA      -0.156000
     19 C15         2.0050    2.3110   -6.6410 c3        1 VA      -0.158000
     20 C16         2.4120    2.2660   -8.0970 c3        1 VA      -0.158000
     21 C17         3.6240    3.1470   -8.3090 c3        1 VA      -0.159000
     22 C18         4.0380    3.0930   -9.7630 c3        1 VA      -0.210000
     23 H221       -1.3080   -5.7380   11.2500 ha        1 VA       0.115000
     24 H222       -0.0350   -4.7690   11.2890 ha        1 VA       0.115000
     25 H223       -0.1330   -5.9170   10.1780 ha        1 VA       0.115000
     26 H11A       -1.8250   -2.1610    8.4800 h1        1 VA       0.091000
     27 H12A       -2.1380   -3.3690    7.4790 h1        1 VA       0.091000
     28 H21        -0.0300   -2.8960    6.4050 hc        1 VA       0.093000
     29 H22         0.0500   -1.5670    7.2880 hc        1 VA       0.093000
     30 H31        -1.8950   -0.7520    6.3000 hc        1 VA       0.082000
     31 H32        -2.0800   -2.1140    5.4850 hc        1 VA       0.082000
     32 H41         0.0050   -0.2230    5.0930 hc        1 VA       0.081000
     33 H42        -0.0020   -1.6530    4.3810 hc        1 VA       0.081000
     34 H51        -1.9190    0.4040    3.9730 hc        1 VA       0.080000
     35 H52        -2.0980   -1.0680    3.3780 hc        1 VA       0.080000
     36 H61        -0.0230    0.7480    2.6890 hc        1 VA       0.079000
     37 H62        -0.0380   -0.7720    2.1960 hc        1 VA       0.079000
     38 H71        -2.0010    1.1750    1.5300 hc        1 VA       0.080000
     39 H72        -2.1060   -0.3600    1.1010 hc        1 VA       0.080000
     40 H81        -0.0440   -0.0990   -0.0900 hc        1 VA       0.079000
     41 H82        -0.1100    1.4650    0.2270 hc        1 VA       0.079000
     42 H91        -2.0630    1.6800   -1.0050 hc        1 VA       0.081000
     43 H92        -2.1410    0.0980   -1.2170 hc        1 VA       0.081000
     44 H101        0.0250    0.3220   -2.3490 hc        1 VA       0.087000
     45 H102       -0.3010    1.8840   -2.4140 hc        1 VA       0.087000
     46 H11        -2.4670    0.4310   -3.4920 ha        1 VA       0.122000
     47 H12        -1.6160    0.8540   -5.6120 ha        1 VA       0.122000
     48 H131        0.4230    2.4150   -4.6190 ha        1 VA       0.087000
     49 H132        0.9710    0.9190   -4.5010 ha        1 VA       0.087000
     50 H141        0.8540    0.6100   -6.7660 hc        1 VA       0.081000
     51 H142        0.0050    1.9490   -6.9620 hc        1 VA       0.081000
     52 H151        1.8610    3.2400   -6.3710 hc        1 VA       0.079000
     53 H152        2.7120    1.9180   -6.0920 hc        1 VA       0.079000
     54 H161        2.6300    1.3460   -8.3460 hc        1 VA       0.079000
     55 H162        1.6740    2.5880   -8.6520 hc        1 VA       0.079000
     56 H171        3.4030    4.0690   -8.0670 hc        1 VA       0.078000
     57 H172        4.3600    2.8300   -7.7480 hc        1 VA       0.078000
     58 H181        4.2180    2.1630  -10.0170 hc        1 VA       0.072000
     59 H182        3.3170    3.4500  -10.3220 hc        1 VA       0.072000
     60 H183        4.8480    3.6300   -9.8920 hc        1 VA       0.072000
@<TRIPOS>BOND
     1    1    2 1   
     2    2    4 1   
     3    3   23 1   
     4    3   24 1   
     5    3   25 1   
     6    4    5 1   
     7    5    6 1   
     8    5   26 1   
     9    5   27 1   
    10    6    7 1   
    11    6   28 1   
    12    6   29 1   
    13    7    8 1   
    14    7   30 1   
    15    7   31 1   
    16    8    9 1   
    17    8   32 1   
    18    8   33 1   
    19    9   10 1   
    20    9   34 1   
    21    9   35 1   
    22   10   11 1   
    23   10   36 1   
    24   10   37 1   
    25   11   12 1   
    26   11   38 1   
    27   11   39 1   
    28   12   13 1   
    29   12   40 1   
    30   12   41 1   
    31   13   14 1   
    32   13   42 1   
    33   13   43 1   
    34   14   15 1   
    35   14   44 1   
    36   14   45 1   
    37   15   16 1   
    38   15   46 1   
    39   16   47 1   
    40   17   18 1   
    41   17   48 1   
    42   17   49 1   
    43   18   19 1   
    44   18   50 1   
    45   18   51 1   
    46   19   20 1   
    47   19   52 1   
    48   19   53 1   
    49   20   21 1   
    50   20   54 1   
    51   20   55 1   
    52   21   22 1   
    53   21   56 1   
    54   21   57 1   
    55   22   58 1   
    56   22   59 1   
    57   22   60 1   
@<TRIPOS>SUBSTRUCTURE
     1 VA          1 TEMP              0 ****  ****    0 ROOT
