@<TRIPOS>MOLECULE
VA
   60    59     1     0     0
SMALL
bcc


@<TRIPOS>ATOM
      1 O21        -0.2300   -1.0810    0.1100 o         1 VA      -0.546000
      2 C20         0.8790   -0.5520    0.2160 c         1 VA       0.632100
      3 C22         1.6310   -0.2130    1.4550 c3        1 VA      -0.150100
      4 O19         1.5480   -0.2100   -0.9270 os        1 VA      -0.444900
      5 C1          0.8890   -0.5040   -2.1710 c3        1 VA       0.139400
      6 C2          1.8270   -0.0320   -3.2650 c3        1 VA      -0.085400
      7 C3          1.2190   -0.2990   -4.6240 c3        1 VA      -0.078400
      8 C4          2.1400    0.1650   -5.7320 c3        1 VA      -0.078400
      9 C5          1.5350   -0.1010   -7.0940 c3        1 VA      -0.079400
     10 C6          2.4540    0.3650   -8.2030 c3        1 VA      -0.079400
     11 C7          1.8510    0.0990   -9.5650 c3        1 VA      -0.079400
     12 C8          2.7690    0.5680  -10.6740 c3        1 VA      -0.079400
     13 C9          2.1650    0.3000  -12.0360 c3        1 VA      -0.077400
     14 C10         3.0840    0.7720  -13.1440 c3        1 VA      -0.049200
     15 C11         2.5170    0.5220  -14.4900 c2        1 VA      -0.174200
     16 C12         3.1210    0.8810  -15.6280 c2        1 VA      -0.173200
     17 C13         4.4290    1.5730  -15.6820 c3        1 VA      -0.049200
     18 C14         4.8890    1.8240  -17.1040 c3        1 VA      -0.077400
     19 C15         6.2270    2.5310  -17.1280 c3        1 VA      -0.079400
     20 C16         6.6880    2.7830  -18.5480 c3        1 VA      -0.079400
     21 C17         8.0260    3.4910  -18.5750 c3        1 VA      -0.080400
     22 C18         8.4900    3.7440  -19.9860 c3        1 VA      -0.092100
     23 H221        1.0190    0.4920    2.0680 hc        1 VA       0.075700
     24 H222        2.6130    0.2600    1.2120 hc        1 VA       0.075700
     25 H223        1.8040   -1.1500    2.0400 hc        1 VA       0.075700
     26 H11A        0.7000   -1.6070   -2.2280 h1        1 VA       0.051700
     27 H12A       -0.0920    0.0390   -2.1980 h1        1 VA       0.051700
     28 H21         2.8110   -0.5620   -3.1690 hc        1 VA       0.053700
     29 H22         2.0280    1.0640   -3.1390 hc        1 VA       0.053700
     30 H31         1.0170   -1.3970   -4.7380 hc        1 VA       0.042700
     31 H32         0.2330    0.2290   -4.7080 hc        1 VA       0.042700
     32 H41         2.3420    1.2630   -5.6180 hc        1 VA       0.041700
     33 H42         3.1260   -0.3630   -5.6490 hc        1 VA       0.041700
     34 H51         1.3350   -1.1990   -7.2090 hc        1 VA       0.040700
     35 H52         0.5480    0.4260   -7.1780 hc        1 VA       0.040700
     36 H61         2.6550    1.4640   -8.0890 hc        1 VA       0.039700
     37 H62         3.4420   -0.1610   -8.1200 hc        1 VA       0.039700
     38 H71         1.6520   -0.9990   -9.6800 hc        1 VA       0.040700
     39 H72         0.8630    0.6240   -9.6480 hc        1 VA       0.040700
     40 H81         2.9670    1.6660  -10.5590 hc        1 VA       0.039700
     41 H82         3.7570    0.0430  -10.5910 hc        1 VA       0.039700
     42 H91         1.1760    0.8240  -12.1190 hc        1 VA       0.041700
     43 H92         1.9690   -0.7980  -12.1520 hc        1 VA       0.041700
     44 H101        4.0770    0.2500  -13.0560 hc        1 VA       0.047700
     45 H102        3.2870    1.8710  -13.0210 hc        1 VA       0.047700
     46 H11         1.5410    0.0100  -14.5150 ha        1 VA       0.122000
     47 H12         2.6470    0.6660  -16.6000 ha        1 VA       0.122000
     48 H131        5.2000    0.9590  -15.1400 hc        1 VA       0.047700
     49 H132        4.3560    2.5530  -15.1330 hc        1 VA       0.047700
     50 H141        4.1250    2.4440  -17.6420 hc        1 VA       0.041700
     51 H142        4.9690    0.8480  -17.6510 hc        1 VA       0.041700
     52 H151        6.9910    1.9110  -16.5890 hc        1 VA       0.039700
     53 H152        6.1470    3.5070  -16.5810 hc        1 VA       0.039700
     54 H161        5.9250    3.4030  -19.0870 hc        1 VA       0.039700
     55 H162        6.7690    1.8080  -19.0960 hc        1 VA       0.039700
     56 H171        7.9440    4.4660  -18.0250 hc        1 VA       0.038700
     57 H172        8.7880    2.8710  -18.0330 hc        1 VA       0.038700
     58 H181        7.7550    4.3820  -20.5350 hc        1 VA       0.032700
     59 H182        9.4760    4.2660  -19.9830 hc        1 VA       0.032700
     60 H183        8.6010    2.7820  -20.5430 hc        1 VA       0.032700
@<TRIPOS>BOND
     1    1    2 2   
     2    2    3 1   
     3    2    4 1   
     4    3   23 1   
     5    3   24 1   
     6    3   25 1   
     7    4    5 1   
     8    5    6 1   
     9    5   26 1   
    10    5   27 1   
    11    6    7 1   
    12    6   28 1   
    13    6   29 1   
    14    7    8 1   
    15    7   30 1   
    16    7   31 1   
    17    8    9 1   
    18    8   32 1   
    19    8   33 1   
    20    9   10 1   
    21    9   34 1   
    22    9   35 1   
    23   10   11 1   
    24   10   36 1   
    25   10   37 1   
    26   11   12 1   
    27   11   38 1   
    28   11   39 1   
    29   12   13 1   
    30   12   40 1   
    31   12   41 1   
    32   13   14 1   
    33   13   42 1   
    34   13   43 1   
    35   14   15 1   
    36   14   44 1   
    37   14   45 1   
    38   15   16 2   
    39   15   46 1   
    40   16   17 1   
    41   16   47 1   
    42   17   18 1   
    43   17   48 1   
    44   17   49 1   
    45   18   19 1   
    46   18   50 1   
    47   18   51 1   
    48   19   20 1   
    49   19   52 1   
    50   19   53 1   
    51   20   21 1   
    52   20   54 1   
    53   20   55 1   
    54   21   22 1   
    55   21   56 1   
    56   21   57 1   
    57   22   58 1   
    58   22   59 1   
    59   22   60 1   
@<TRIPOS>SUBSTRUCTURE
     1 VA          1 TEMP              0 ****  ****    0 ROOT
