@<TRIPOS>MOLECULE
VA
   60    59     1     0     0
SMALL
bcc


@<TRIPOS>ATOM
      1 O21        -0.1880   -1.1250    0.1160 o         1 VA      -0.546000
      2 C20         0.9120   -0.5770    0.2210 c         1 VA       0.632100
      3 C22         1.6640   -0.2320    1.4580 c3        1 VA      -0.150100
      4 O19         1.5710   -0.2190   -0.9230 os        1 VA      -0.444900
      5 C1          0.9120   -0.5180   -2.1660 c3        1 VA       0.139400
      6 C2          1.8390   -0.0270   -3.2610 c3        1 VA      -0.085400
      7 C3          1.2290   -0.2970   -4.6200 c3        1 VA      -0.078400
      8 C4          2.1390    0.1850   -5.7290 c3        1 VA      -0.078400
      9 C5          1.5340   -0.0840   -7.0900 c3        1 VA      -0.079400
     10 C6          2.4430    0.3980   -8.2000 c3        1 VA      -0.079400
     11 C7          1.8380    0.1290   -9.5610 c3        1 VA      -0.079400
     12 C8          2.7470    0.6100  -10.6710 c3        1 VA      -0.079400
     13 C9          2.1410    0.3410  -12.0320 c3        1 VA      -0.077400
     14 C10         3.0530    0.8220  -13.1420 c3        1 VA      -0.049200
     15 C11         2.4840    0.5710  -14.4860 c2        1 VA      -0.174200
     16 C12         3.0990    0.9030  -15.6270 c2        1 VA      -0.173200
     17 C13         4.4250    1.5630  -15.6840 c3        1 VA      -0.049200
     18 C14         4.8770    1.8210  -17.1070 c3        1 VA      -0.077400
     19 C15         6.2330    2.4950  -17.1350 c3        1 VA      -0.079400
     20 C16         6.6870    2.7530  -18.5560 c3        1 VA      -0.079400
     21 C17         8.0430    3.4270  -18.5860 c3        1 VA      -0.080400
     22 C18         8.4990    3.6870  -19.9980 c3        1 VA      -0.092100
     23 H221        1.0410    0.4570    2.0790 hc        1 VA       0.075700
     24 H222        2.6350    0.2620    1.2130 hc        1 VA       0.075700
     25 H223        1.8580   -1.1690    2.0360 hc        1 VA       0.075700
     26 H11A        0.7400   -1.6240   -2.2280 h1        1 VA       0.051700
     27 H12A       -0.0770    0.0100   -2.1870 h1        1 VA       0.051700
     28 H21         2.8300   -0.5420   -3.1710 hc        1 VA       0.053700
     29 H22         2.0230    1.0720   -3.1310 hc        1 VA       0.053700
     30 H31         1.0430   -1.3980   -4.7370 hc        1 VA       0.042700
     31 H32         0.2350    0.2170   -4.6970 hc        1 VA       0.042700
     32 H41         2.3260    1.2850   -5.6110 hc        1 VA       0.041700
     33 H42         3.1330   -0.3300   -5.6510 hc        1 VA       0.041700
     34 H51         1.3460   -1.1840   -7.2080 hc        1 VA       0.040700
     35 H52         0.5400    0.4310   -7.1680 hc        1 VA       0.040700
     36 H61         2.6300    1.4970   -8.0820 hc        1 VA       0.039700
     37 H62         3.4370   -0.1170   -8.1220 hc        1 VA       0.039700
     38 H71         1.6500   -0.9710   -9.6790 hc        1 VA       0.040700
     39 H72         0.8440    0.6440   -9.6390 hc        1 VA       0.040700
     40 H81         2.9350    1.7100  -10.5540 hc        1 VA       0.039700
     41 H82         3.7410    0.0950  -10.5930 hc        1 VA       0.039700
     42 H91         1.1480    0.8560  -12.1110 hc        1 VA       0.041700
     43 H92         1.9540   -0.7590  -12.1500 hc        1 VA       0.041700
     44 H101        4.0510    0.3100  -13.0570 hc        1 VA       0.047700
     45 H102        3.2460    1.9240  -13.0180 hc        1 VA       0.047700
     46 H11         1.4970    0.0810  -14.5090 ha        1 VA       0.122000
     47 H12         2.6240    0.6890  -16.5980 ha        1 VA       0.122000
     48 H131        5.1850    0.9210  -15.1590 hc        1 VA       0.047700
     49 H132        4.3820    2.5360  -15.1210 hc        1 VA       0.047700
     50 H141        4.1250    2.4670  -17.6300 hc        1 VA       0.041700
     51 H142        4.9280    0.8510  -17.6680 hc        1 VA       0.041700
     52 H151        6.9850    1.8480  -16.6110 hc        1 VA       0.039700
     53 H152        6.1820    3.4650  -16.5740 hc        1 VA       0.039700
     54 H161        5.9350    3.4000  -19.0800 hc        1 VA       0.039700
     55 H162        6.7380    1.7830  -19.1170 hc        1 VA       0.039700
     56 H171        7.9910    4.3960  -18.0230 hc        1 VA       0.038700
     57 H172        8.7930    2.7800  -18.0600 hc        1 VA       0.038700
     58 H181        7.7760    4.3500  -20.5310 hc        1 VA       0.032700
     59 H182        9.4990    4.1830  -19.9980 hc        1 VA       0.032700
     60 H183        8.5810    2.7300  -20.5690 hc        1 VA       0.032700
@<TRIPOS>BOND
     1    1    2 2   
     2    2    3 1   
     3    2    4 1   
     4    3   23 1   
     5    3   24 1   
     6    3   25 1   
     7    4    5 1   
     8    5    6 1   
     9    5   26 1   
    10    5   27 1   
    11    6    7 1   
    12    6   28 1   
    13    6   29 1   
    14    7    8 1   
    15    7   30 1   
    16    7   31 1   
    17    8    9 1   
    18    8   32 1   
    19    8   33 1   
    20    9   10 1   
    21    9   34 1   
    22    9   35 1   
    23   10   11 1   
    24   10   36 1   
    25   10   37 1   
    26   11   12 1   
    27   11   38 1   
    28   11   39 1   
    29   12   13 1   
    30   12   40 1   
    31   12   41 1   
    32   13   14 1   
    33   13   42 1   
    34   13   43 1   
    35   14   15 1   
    36   14   44 1   
    37   14   45 1   
    38   15   16 2   
    39   15   46 1   
    40   16   17 1   
    41   16   47 1   
    42   17   18 1   
    43   17   48 1   
    44   17   49 1   
    45   18   19 1   
    46   18   50 1   
    47   18   51 1   
    48   19   20 1   
    49   19   52 1   
    50   19   53 1   
    51   20   21 1   
    52   20   54 1   
    53   20   55 1   
    54   21   22 1   
    55   21   56 1   
    56   21   57 1   
    57   22   58 1   
    58   22   59 1   
    59   22   60 1   
@<TRIPOS>SUBSTRUCTURE
     1 VA          1 TEMP              0 ****  ****    0 ROOT
