@<TRIPOS>MOLECULE
VA
   60    59     1     0     0
SMALL
bcc


@<TRIPOS>ATOM
      1 O21       -10.4300   -0.6970    0.0480 o         1 VA      -0.546000
      2 C20       -10.1580    0.4980    0.1840 c         1 VA       0.632100
      3 C22       -11.0880    1.6520    0.3250 c3        1 VA      -0.150100
      4 O19        -8.8410    0.8640    0.2160 os        1 VA      -0.444900
      5 C1         -7.8750   -0.1930    0.0850 c3        1 VA       0.139400
      6 C2         -6.5130    0.4720    0.1510 c3        1 VA      -0.085400
      7 C3         -5.4200   -0.5670    0.0210 c3        1 VA      -0.078400
      8 C4         -4.0510    0.0760    0.0840 c3        1 VA      -0.078400
      9 C5         -2.9540   -0.9590   -0.0450 c3        1 VA      -0.079400
     10 C6         -1.5840   -0.3180    0.0180 c3        1 VA      -0.079400
     11 C7         -0.4870   -1.3530   -0.1110 c3        1 VA      -0.079400
     12 C8          0.8820   -0.7110   -0.0490 c3        1 VA      -0.079400
     13 C9          1.9790   -1.7460   -0.1780 c3        1 VA      -0.077400
     14 C10         3.3490   -1.1030   -0.1150 c3        1 VA      -0.049200
     15 C11         4.4430   -2.0940   -0.2390 c2        1 VA      -0.174200
     16 C12         5.7410   -1.7740   -0.2140 c2        1 VA      -0.173200
     17 C13         6.2440   -0.3890   -0.0600 c3        1 VA      -0.049200
     18 C14         7.7580   -0.3230   -0.0640 c3        1 VA      -0.077400
     19 C15         8.2430    1.1020    0.0950 c3        1 VA      -0.079400
     20 C16         9.7550    1.1710    0.0910 c3        1 VA      -0.079400
     21 C17        10.2420    2.5950    0.2510 c3        1 VA      -0.080400
     22 C18        11.7470    2.6680    0.2470 c3        1 VA      -0.092100
     23 H221      -11.7410    1.7020   -0.5800 hc        1 VA       0.075700
     24 H222      -11.7270    1.4920    1.2280 hc        1 VA       0.075700
     25 H223      -10.5250    2.6100    0.4320 hc        1 VA       0.075700
     26 H11A       -8.0400   -0.7150   -0.8930 h1        1 VA       0.051700
     27 H12A       -8.0250   -0.9240    0.9210 h1        1 VA       0.051700
     28 H21        -6.4120    1.0220    1.1220 hc        1 VA       0.053700
     29 H22        -6.4280    1.2300   -0.6710 hc        1 VA       0.053700
     30 H31        -5.5340   -1.1160   -0.9500 hc        1 VA       0.042700
     31 H32        -5.5190   -1.3230    0.8440 hc        1 VA       0.042700
     32 H41        -3.9380    0.6260    1.0550 hc        1 VA       0.041700
     33 H42        -3.9530    0.8330   -0.7380 hc        1 VA       0.041700
     34 H51        -3.0680   -1.5090   -1.0160 hc        1 VA       0.040700
     35 H52        -3.0530   -1.7160    0.7770 hc        1 VA       0.040700
     36 H61        -1.4710    0.2330    0.9890 hc        1 VA       0.039700
     37 H62        -1.4860    0.4390   -0.8050 hc        1 VA       0.039700
     38 H71        -0.6010   -1.9030   -1.0820 hc        1 VA       0.040700
     39 H72        -0.5860   -2.1100    0.7110 hc        1 VA       0.040700
     40 H81         0.9960   -0.1610    0.9220 hc        1 VA       0.039700
     41 H82         0.9810    0.0460   -0.8710 hc        1 VA       0.039700
     42 H91         1.8660   -2.2960   -1.1490 hc        1 VA       0.041700
     43 H92         1.8810   -2.5030    0.6450 hc        1 VA       0.041700
     44 H101        3.4580   -0.5450    0.8560 hc        1 VA       0.047700
     45 H102        3.4430   -0.3380   -0.9360 hc        1 VA       0.047700
     46 H11         4.1310   -3.1450   -0.3560 ha        1 VA       0.122000
     47 H12         6.5090   -2.5590   -0.3110 ha        1 VA       0.122000
     48 H131        5.8520    0.0460    0.9010 hc        1 VA       0.047700
     49 H132        5.8380    0.2510   -0.8910 hc        1 VA       0.047700
     50 H141        8.1500   -0.7500   -1.0240 hc        1 VA       0.041700
     51 H142        8.1640   -0.9540    0.7700 hc        1 VA       0.041700
     52 H151        7.8490    1.5280    1.0560 hc        1 VA       0.039700
     53 H152        7.8360    1.7330   -0.7380 hc        1 VA       0.039700
     54 H161       10.1490    0.7440   -0.8690 hc        1 VA       0.039700
     55 H162       10.1620    0.5390    0.9250 hc        1 VA       0.039700
     56 H171        9.8460    3.0200    1.2100 hc        1 VA       0.038700
     57 H172        9.8320    3.2250   -0.5830 hc        1 VA       0.038700
     58 H181       12.0850    3.7260    0.3660 hc        1 VA       0.032700
     59 H182       12.1730    2.0660    1.0860 hc        1 VA       0.032700
     60 H183       12.1590    2.2720   -0.7120 hc        1 VA       0.032700
@<TRIPOS>BOND
     1    1    2 2   
     2    2    3 1   
     3    2    4 1   
     4    3   23 1   
     5    3   24 1   
     6    3   25 1   
     7    4    5 1   
     8    5    6 1   
     9    5   26 1   
    10    5   27 1   
    11    6    7 1   
    12    6   28 1   
    13    6   29 1   
    14    7    8 1   
    15    7   30 1   
    16    7   31 1   
    17    8    9 1   
    18    8   32 1   
    19    8   33 1   
    20    9   10 1   
    21    9   34 1   
    22    9   35 1   
    23   10   11 1   
    24   10   36 1   
    25   10   37 1   
    26   11   12 1   
    27   11   38 1   
    28   11   39 1   
    29   12   13 1   
    30   12   40 1   
    31   12   41 1   
    32   13   14 1   
    33   13   42 1   
    34   13   43 1   
    35   14   15 1   
    36   14   44 1   
    37   14   45 1   
    38   15   16 2   
    39   15   46 1   
    40   16   17 1   
    41   16   47 1   
    42   17   18 1   
    43   17   48 1   
    44   17   49 1   
    45   18   19 1   
    46   18   50 1   
    47   18   51 1   
    48   19   20 1   
    49   19   52 1   
    50   19   53 1   
    51   20   21 1   
    52   20   54 1   
    53   20   55 1   
    54   21   22 1   
    55   21   56 1   
    56   21   57 1   
    57   22   58 1   
    58   22   59 1   
    59   22   60 1   
@<TRIPOS>SUBSTRUCTURE
     1 VA          1 TEMP              0 ****  ****    0 ROOT
