@<TRIPOS>MOLECULE
VAA
   54    56     1     0     0
SMALL
bcc


@<TRIPOS>ATOM
      1 N           3.0060   -1.3510    1.8830 n3        1 VAA     -0.901800
      2 CA          2.4360   -1.0350    3.1750 c3        1 VAA      0.112500
      3 CB          3.2440   -0.0790    4.0850 c3        1 VAA     -0.099700
      4 CG1         4.3810   -0.8330    4.7420 c3        1 VAA     -0.099100
      5 CG2         3.7680    1.1240    3.3320 c3        1 VAA     -0.099100
      6 C           1.0340   -0.4240    2.9780 c         1 VAA      0.700100
      7 O           0.8630    0.6230    2.3250 o         1 VAA     -0.613100
      8 S          -1.6520   -0.5440    3.5270 s6        1 VAA      1.579500
      9 O1S        -2.4300   -1.6980    3.7960 o         1 VAA     -0.637300
     10 O2S        -1.7840    0.5220    4.4380 o         1 VAA     -0.637300
     11 N3S        -0.0600   -1.0690    3.5360 n         1 VAA     -0.668300
     12 N5'        -1.9080   -0.0160    2.0310 n3        1 VAA     -0.910100
     13 C5'        -2.4030   -0.8140    0.9500 c3        1 VAA      0.211800
     14 C4'        -3.1050    0.0110   -0.1410 c3        1 VAA      0.086100
     15 O4'        -2.2120    1.0160   -0.6440 os        1 VAA     -0.410600
     16 C1'        -1.7740    0.7080   -1.9700 c3        1 VAA      0.227800
     17 N9         -0.3600    0.4130   -1.9900 na        1 VAA     -0.296000
     18 C4          0.3540    0.0800   -3.1530 ca        1 VAA      0.447800
     19 N3         -0.0790   -0.1590   -4.4290 nb        1 VAA     -0.763000
     20 C2          0.9380   -0.4540   -5.2730 ca        1 VAA      0.690900
     21 N1          2.2730   -0.5440   -5.0380 nb        1 VAA     -0.794000
     22 C6          2.7140   -0.3120   -3.7550 ca        1 VAA      0.764200
     23 N6          4.0410   -0.4130   -3.4370 nh        1 VAA     -0.958500
     24 C5          1.7500    0.0220   -2.7430 ca        1 VAA     -0.225200
     25 N7          1.8610    0.3280   -1.3780 nc        1 VAA     -0.555100
     26 C8          0.6070    0.5620   -0.9650 cd        1 VAA      0.432700
     27 C2'        -2.6650   -0.4620   -2.5080 c3        1 VAA      0.084100
     28 O2'        -3.5020    0.0360   -3.5290 oh        1 VAA     -0.593800
     29 C3'        -3.5480   -0.8880   -1.3140 c3        1 VAA      0.131100
     30 O3'        -4.9280   -0.7780   -1.5560 oh        1 VAA     -0.571800
     31 HN2         3.9760   -1.5800    1.9890 hn        1 VAA      0.368300
     32 H           2.9180   -0.5760    1.2510 hn        1 VAA      0.368300
     33 HA          2.3500   -2.0210    3.7260 h1        1 VAA      0.068700
     34 HB          2.5450    0.2830    4.8920 hc        1 VAA      0.063700
     35 HG11        4.9590   -0.1440    5.4060 hc        1 VAA      0.042700
     36 HG12        3.9910   -1.6760    5.3610 hc        1 VAA      0.042700
     37 HG13        5.0800   -1.2480    3.9760 hc        1 VAA      0.042700
     38 HG21        4.5880    0.8330    2.6320 hc        1 VAA      0.042700
     39 HG22        2.9470    1.6040    2.7440 hc        1 VAA      0.042700
     40 HG23        4.1760    1.8730    4.0520 hc        1 VAA      0.042700
     41 HNS3        0.1420   -1.9460    3.9630 hn        1 VAA      0.340500
     42 HN'5       -1.5950    0.8880    1.7430 hn        1 VAA      0.473800
     43 H5'1       -1.5490   -1.3760    0.4680 h1        1 VAA      0.060700
     44 H5'2       -3.1460   -1.5650    1.3510 h1        1 VAA      0.060700
     45 H4'        -3.9770    0.5820    0.2840 h1        1 VAA      0.101700
     46 H1'        -1.9540    1.6510   -2.5730 h2        1 VAA      0.103700
     47 H2          0.6400   -0.6520   -6.3260 h5        1 VAA      0.052100
     48 H61         4.7170   -0.5880   -4.1380 hn        1 VAA      0.449300
     49 H62         4.3320   -0.1700   -2.5230 hn        1 VAA      0.449300
     50 H8          0.3110    0.8390    0.0600 h5        1 VAA      0.100800
     51 H2'        -2.0580   -1.3290   -2.8760 h1        1 VAA      0.086700
     52 HO'2       -2.9760    0.0480   -4.3410 ho        1 VAA      0.438000
     53 H3'        -3.3900   -1.9760   -1.0760 h1        1 VAA      0.096700
     54 HT'3       -5.0920    0.0550   -2.0190 ho        1 VAA      0.427000
@<TRIPOS>BOND
     1    1    2 1   
     2    1   31 1   
     3    1   32 1   
     4    2    3 1   
     5    2    6 1   
     6    2   33 1   
     7    3    4 1   
     8    3    5 1   
     9    3   34 1   
    10    4   35 1   
    11    4   36 1   
    12    4   37 1   
    13    5   38 1   
    14    5   39 1   
    15    5   40 1   
    16    6    7 2   
    17    6   11 1   
    18    8    9 2   
    19    8   10 2   
    20    8   11 1   
    21    8   12 1   
    22   11   41 1   
    23   12   13 1   
    24   12   42 1   
    25   13   14 1   
    26   13   43 1   
    27   13   44 1   
    28   14   15 1   
    29   14   29 1   
    30   14   45 1   
    31   15   16 1   
    32   16   17 1   
    33   16   27 1   
    34   16   46 1   
    35   17   18 1   
    36   17   26 1   
    37   18   19 ar  
    38   18   24 ar  
    39   19   20 ar  
    40   20   21 ar  
    41   20   47 1   
    42   21   22 ar  
    43   22   23 1   
    44   22   24 ar  
    45   23   48 1   
    46   23   49 1   
    47   24   25 1   
    48   25   26 2   
    49   26   50 1   
    50   27   28 1   
    51   27   29 1   
    52   27   51 1   
    53   28   52 1   
    54   29   30 1   
    55   29   53 1   
    56   30   54 1   
@<TRIPOS>SUBSTRUCTURE
     1 VAA         1 TEMP              0 ****  ****    0 ROOT
