@<TRIPOS>MOLECULE
VAA
   57    59     1     0     0
SMALL
bcc


@<TRIPOS>ATOM
      1 N           0.0000    0.0000    0.0000 nz        1 VAA      0.065400
      2 CA          1.4680    0.0000    0.0000 c3        1 VAA     -0.160500
      3 CB          1.9790    0.0000    1.4430 c3        1 VAA     -0.066700
      4 CG1         1.4690    1.2490    2.1640 c3        1 VAA     -0.005600
      5 CG2         1.4690   -1.2490    2.1630 c3        1 VAA     -0.005600
      6 C           1.9720   -1.2300   -0.7110 c         1 VAA      0.469100
      7 O           1.3160   -2.2490   -0.6940 o         1 VAA     -0.438100
      8 S           3.7010   -2.5470   -2.1470 s6        1 VAA      0.816800
      9 O1S         4.8530   -2.1320   -2.8660 o         1 VAA     -0.414800
     10 O2S         3.6630   -3.5910   -1.1840 o         1 VAA     -0.414800
     11 N3S         3.1480   -1.1960   -1.3650 ny        1 VAA     -0.137700
     12 N5'         2.5750   -2.9510   -3.2930 ny        1 VAA     -0.208900
     13 C5'         2.2380   -2.0010   -4.3550 c3        1 VAA      0.077800
     14 C4'         1.1820   -2.6160   -5.2730 c3        1 VAA      0.132100
     15 O4'        -0.0170   -2.8860   -4.5260 os        1 VAA     -0.461600
     16 C1'        -1.1280   -2.6700   -5.4220 c3        1 VAA      0.172800
     17 N9         -2.3590   -2.4240   -4.6660 na        1 VAA      0.205000
     18 C4         -3.6360   -2.7080   -5.0810 ca        1 VAA      0.263800
     19 N3         -4.1710   -3.2510   -6.1690 nb        1 VAA     -0.548000
     20 C2         -5.4750   -3.4020   -6.2720 ca        1 VAA      0.679900
     21 N1         -6.3080   -3.0340   -5.3180 nb        1 VAA     -0.536000
     22 C6         -5.8660   -2.4870   -4.1900 ca        1 VAA      0.470200
     23 N6         -6.7470   -2.1030   -3.1950 nv        1 VAA     -0.235500
     24 C5         -4.4810   -2.3050   -4.0330 ca        1 VAA     -0.168200
     25 N7         -3.6920   -1.7990   -3.0560 nc        1 VAA     -0.478100
     26 C8         -2.4460   -1.8680   -3.4260 cd        1 VAA      0.248700
     27 C2'        -0.7120   -1.4080   -6.2180 c3        1 VAA      0.140100
     28 O2'        -1.3670   -1.3660   -7.4870 oh        1 VAA     -0.508800
     29 C3'         0.8150   -1.6220   -6.3910 c3        1 VAA      0.150100
     30 O3'         1.1000   -2.1760   -7.6770 oh        1 VAA     -0.513800
     31 HN2        -0.3340    0.6630    0.6720 hn        1 VAA      0.252467
     32 H          -0.3340   -0.9130    0.2380 hn        1 VAA      0.252467
     33 HA          1.8290    0.8850   -0.5100 hx        1 VAA      0.106700
     34 HB          3.0620    0.0000    1.4420 hc        1 VAA      0.070700
     35 HG11        2.1340    1.4890    2.9840 hc        1 VAA      0.039200
     36 HG12        1.4370    2.0790    1.4700 hc        1 VAA      0.039200
     37 HG13        0.4740    1.0620    2.5490 hc        1 VAA      0.039200
     38 HG21        0.3900   -1.3010    2.0770 hc        1 VAA      0.039200
     39 HG22        1.7460   -1.2000    3.2090 hc        1 VAA      0.039200
     40 HG23        1.9100   -2.1300    1.7140 hc        1 VAA      0.039200
     41 HNS3        3.8470   -0.9410   -0.6940 hn        1 VAA      0.369800
     42 HN'5        2.8930   -3.7900   -3.7360 hn        1 VAA      0.354800
     43 H5'1        3.1280   -1.7720   -4.9300 hx        1 VAA      0.066700
     44 H5'2        1.8490   -1.0910   -3.9150 hx        1 VAA      0.066700
     45 H4'         1.5560   -3.5350   -5.7090 h1        1 VAA      0.087700
     46 H1'        -1.2460   -3.5160   -6.0890 h2        1 VAA      0.107700
     47 H2         -5.8790   -3.8460   -7.1750 h5        1 VAA      0.042100
     48 H61        -7.1240   -1.1760   -3.1900 hn        1 VAA      0.289800
     49 H62        -7.0120   -2.7550   -2.4830 hn        1 VAA      0.289800
     50 H8         -1.6030   -1.5310   -2.8350 h5        1 VAA     -0.020200
     51 H2'        -0.9110   -0.5100   -5.6440 h1        1 VAA      0.010700
     52 HO'2       -1.6040   -0.4760   -7.6890 ho        1 VAA      0.416000
     53 H3'         1.3440   -0.6870   -6.2500 h1        1 VAA      0.011700
     54 HT'3        1.7490   -1.6480   -8.1100 ho        1 VAA      0.421000
     55 HN3        -0.3340    0.2500   -0.9100 hn        1 VAA      0.252467
     56 H3S2        3.0800   -0.4690   -2.0490 hn        1 VAA      0.369800
     57 H5'3        1.7270   -3.1690   -2.8090 hn        1 VAA      0.354800
@<TRIPOS>BOND
     1    1    2 1   
     2    1   31 1   
     3    1   32 1   
     4    1   55 1   
     5    2    3 1   
     6    2    6 1   
     7    2   33 1   
     8    3    4 1   
     9    3    5 1   
    10    3   34 1   
    11    4   35 1   
    12    4   36 1   
    13    4   37 1   
    14    5   38 1   
    15    5   39 1   
    16    5   40 1   
    17    6    7 2   
    18    6   11 1   
    19    8    9 2   
    20    8   10 2   
    21    8   11 1   
    22    8   12 1   
    23   11   41 1   
    24   11   56 1   
    25   12   13 1   
    26   12   42 1   
    27   12   57 1   
    28   13   14 1   
    29   13   43 1   
    30   13   44 1   
    31   14   15 1   
    32   14   29 1   
    33   14   45 1   
    34   15   16 1   
    35   16   17 1   
    36   16   27 1   
    37   16   46 1   
    38   17   18 1   
    39   17   26 1   
    40   18   19 ar  
    41   18   24 ar  
    42   19   20 ar  
    43   20   21 ar  
    44   20   47 1   
    45   21   22 ar  
    46   22   23 1   
    47   22   24 ar  
    48   23   48 1   
    49   23   49 1   
    50   24   25 1   
    51   25   26 2   
    52   26   50 1   
    53   27   28 1   
    54   27   29 1   
    55   27   51 1   
    56   28   52 1   
    57   29   30 1   
    58   29   53 1   
    59   30   54 1   
@<TRIPOS>SUBSTRUCTURE
     1 VAA         1 TEMP              0 ****  ****    0 ROOT
