@<TRIPOS>MOLECULE
VAA
   54    56     1     0     0
SMALL
bcc


@<TRIPOS>ATOM
      1 N          -0.3950    0.3390   -0.2140 n3        1 VAA     -0.901800
      2 CA          0.9870    0.0930    0.1410 c3        1 VAA      0.112500
      3 CB          1.2560   -0.5040    1.5430 c3        1 VAA     -0.099700
      4 CG1         1.1510    0.5810    2.5940 c3        1 VAA     -0.099100
      5 CG2         0.3240   -1.6510    1.8670 c3        1 VAA     -0.099100
      6 C           1.6220   -0.8480   -0.9020 c         1 VAA      0.700100
      7 O           1.1720   -1.9900   -1.1120 o         1 VAA     -0.613100
      8 S           3.6150   -1.2740   -2.7400 s6        1 VAA      1.579500
      9 O1S         4.2970   -0.3050   -3.5180 o         1 VAA     -0.637300
     10 O2S         4.4230   -2.1950   -2.0460 o         1 VAA     -0.637300
     11 N3S         2.7160   -0.3990   -1.6290 n         1 VAA     -0.668300
     12 N5'         2.5300   -2.0620   -3.6260 n3        1 VAA     -0.910100
     13 C5'         1.9390   -1.5680   -4.8340 c3        1 VAA      0.211800
     14 C4'         1.4390   -2.6850   -5.7640 c3        1 VAA      0.086100
     15 O4'         0.5020   -3.5190   -5.0660 os        1 VAA     -0.410600
     16 C1'        -0.8310   -3.3170   -5.5430 c3        1 VAA      0.227800
     17 N9         -1.6560   -2.7090   -4.5240 na        1 VAA     -0.296000
     18 C4         -3.0140   -2.3950   -4.7000 ca        1 VAA      0.447800
     19 N3         -3.8070   -2.4540   -5.8130 nb        1 VAA     -0.763000
     20 C2         -5.0780   -2.0590   -5.5630 ca        1 VAA      0.690900
     21 N1         -5.6510   -1.6290   -4.4090 nb        1 VAA     -0.794000
     22 C6         -4.8560   -1.5610   -3.2870 ca        1 VAA      0.764200
     23 N6         -5.3560   -1.1090   -2.0960 nh        1 VAA     -0.958500
     24 C5         -3.4790   -1.9560   -3.3910 ca        1 VAA     -0.225200
     25 N7         -2.4280   -2.0220   -2.4630 nc        1 VAA     -0.555100
     26 C8         -1.3730   -2.4770   -3.1540 cd        1 VAA      0.432700
     27 C2'        -0.7460   -2.4780   -6.8620 c3        1 VAA      0.084100
     28 O2'        -1.1070   -3.3010   -7.9490 oh        1 VAA     -0.593800
     29 C3'         0.7440   -2.0960   -7.0100 c3        1 VAA      0.131100
     30 O3'         1.3370   -2.5570   -8.1970 oh        1 VAA     -0.571800
     31 HN2        -0.8710   -0.5200   -0.4220 hn        1 VAA      0.368300
     32 H          -0.8610    0.7990    0.5430 hn        1 VAA      0.368300
     33 HA          1.5000    1.1030    0.1080 h1        1 VAA      0.068700
     34 HB          2.3140   -0.8950    1.5410 hc        1 VAA      0.063700
     35 HG11        0.1280    1.0290    2.6040 hc        1 VAA      0.042700
     36 HG12        1.8920    1.3930    2.3990 hc        1 VAA      0.042700
     37 HG13        1.3550    0.1510    3.6040 hc        1 VAA      0.042700
     38 HG21        0.6700   -2.1710    2.7930 hc        1 VAA      0.042700
     39 HG22       -0.7160   -1.2850    2.0430 hc        1 VAA      0.042700
     40 HG23        0.3070   -2.3890    1.0270 hc        1 VAA      0.042700
     41 HNS3        2.9600    0.5540   -1.4740 hn        1 VAA      0.340500
     42 HN'5        2.1040   -2.9010   -3.2920 hn        1 VAA      0.473800
     43 H5'1        1.0620   -0.9010   -4.5850 h1        1 VAA      0.060700
     44 H5'2        2.7040   -0.9580   -5.4000 h1        1 VAA      0.060700
     45 H4'         2.2800   -3.3730   -6.0560 h1        1 VAA      0.101700
     46 H1'        -1.2340   -4.3540   -5.7590 h2        1 VAA      0.103700
     47 H2         -5.7670   -2.0930   -6.4360 h5        1 VAA      0.052100
     48 H61        -6.3160   -0.8880   -2.0030 hn        1 VAA      0.449300
     49 H62        -4.7780   -1.1400   -1.2940 hn        1 VAA      0.449300
     50 H8         -0.3680   -2.6600   -2.7420 h5        1 VAA      0.100800
     51 H2'        -1.3850   -1.5570   -6.8270 h1        1 VAA      0.086700
     52 HO'2       -2.0740   -3.3100   -7.9830 ho        1 VAA      0.438000
     53 H3'         0.8620   -0.9780   -7.0510 h1        1 VAA      0.096700
     54 HT'3        1.0410   -3.4650   -8.3550 ho        1 VAA      0.427000
@<TRIPOS>BOND
     1    1    2 1   
     2    1   31 1   
     3    1   32 1   
     4    2    3 1   
     5    2    6 1   
     6    2   33 1   
     7    3    4 1   
     8    3    5 1   
     9    3   34 1   
    10    4   35 1   
    11    4   36 1   
    12    4   37 1   
    13    5   38 1   
    14    5   39 1   
    15    5   40 1   
    16    6    7 2   
    17    6   11 1   
    18    8    9 2   
    19    8   10 2   
    20    8   11 1   
    21    8   12 1   
    22   11   41 1   
    23   12   13 1   
    24   12   42 1   
    25   13   14 1   
    26   13   43 1   
    27   13   44 1   
    28   14   15 1   
    29   14   29 1   
    30   14   45 1   
    31   15   16 1   
    32   16   17 1   
    33   16   27 1   
    34   16   46 1   
    35   17   18 1   
    36   17   26 1   
    37   18   19 ar  
    38   18   24 ar  
    39   19   20 ar  
    40   20   21 ar  
    41   20   47 1   
    42   21   22 ar  
    43   22   23 1   
    44   22   24 ar  
    45   23   48 1   
    46   23   49 1   
    47   24   25 1   
    48   25   26 2   
    49   26   50 1   
    50   27   28 1   
    51   27   29 1   
    52   27   51 1   
    53   28   52 1   
    54   29   30 1   
    55   29   53 1   
    56   30   54 1   
@<TRIPOS>SUBSTRUCTURE
     1 VAA         1 TEMP              0 ****  ****    0 ROOT
