@<TRIPOS>MOLECULE
VAB
   35    36     1     0     0
SMALL
bcc


@<TRIPOS>ATOM
      1 C8          0.3100   -0.2150    0.3050 ca        1 VAB     -0.056000
      2 C9          1.6270    0.1680    0.4460 ca        1 VAB     -0.171000
      3 C11         1.1260    1.3790    2.5100 ca        1 VAB     -0.124000
      4 C7         -0.6360    0.1890    1.2680 ca        1 VAB      0.071400
      5 C10         2.0610    0.9700    1.5470 ca        1 VAB      0.071600
      6 C12        -0.2050    0.9930    2.3730 ca        1 VAB     -0.070100
      7 C5         -2.5870    0.4300    2.3250 cc        1 VAB      0.326100
      8 C1         -7.4090   -0.3410    1.2290 c2        1 VAB     -0.191000
      9 C2         -6.3660   -0.8340    1.8940 c2        1 VAB     -0.174200
     10 C15         4.0750    1.9920    2.6140 c         1 VAB      0.659100
     11 C19         6.4540    0.0350    1.5700 c         1 VAB      0.628100
     12 C3         -4.9640   -0.6490    1.4720 c3        1 VAB      0.006900
     13 C17         5.5680    2.2300    2.4110 c3        1 VAB     -0.151400
     14 C18         6.3790    0.9920    2.7220 c3        1 VAB     -0.175400
     15 N6         -2.0020   -0.1170    1.2650 nd        1 VAB     -0.545100
     16 N14         3.4210    1.3150    1.6010 n         1 VAB     -0.465100
     17 O16         3.5190    2.4020    3.6500 o         1 VAB     -0.593100
     18 O20         5.9290    0.1460    0.4600 o         1 VAB     -0.507000
     19 O21         7.1880   -1.1070    1.7120 oh        1 VAB     -0.570100
     20 S13        -1.5290    1.3340    3.3680 ss        1 VAB      0.005900
     21 S4         -4.2080    0.3370    2.7410 ss        1 VAB     -0.110300
     22 H8         -0.0050   -0.8330   -0.5490 ha        1 VAB      0.152000
     23 H9          2.3580   -0.1570   -0.3130 ha        1 VAB      0.142000
     24 H11         1.4250    1.9990    3.3710 ha        1 VAB      0.179000
     25 H14         3.9740    1.0160    0.8210 hn        1 VAB      0.343500
     26 H11C       -7.3060    0.2560    0.3130 ha        1 VAB      0.117500
     27 H12C       -8.4430   -0.5070    1.5620 ha        1 VAB      0.117500
     28 H2         -6.5040   -1.4330    2.8110 ha        1 VAB      0.133000
     29 H31C       -4.4450   -1.6370    1.3850 h1        1 VAB      0.086700
     30 H32C       -4.8820   -0.1370    0.4820 h1        1 VAB      0.086700
     31 H171        5.8640    3.0520    3.1160 hc        1 VAB      0.088200
     32 H172        5.7740    2.5770    1.3640 hc        1 VAB      0.088200
     33 H181        7.4280    1.2970    2.9860 hc        1 VAB      0.086200
     34 H182        5.9460    0.4570    3.6110 hc        1 VAB      0.086200
     35 H142        7.5680   -1.1490    2.6010 ho        1 VAB      0.429000
@<TRIPOS>BOND
     1    1    2 ar  
     2    1    4 ar  
     3    1   22 1   
     4    2    5 ar  
     5    2   23 1   
     6    3    5 ar  
     7    3    6 ar  
     8    3   24 1   
     9    4    6 ar  
    10    4   15 1   
    11    5   16 1   
    12    6   20 1   
    13    7   15 2   
    14    7   20 1   
    15    7   21 1   
    16    8    9 2   
    17    8   26 1   
    18    8   27 1   
    19    9   12 1   
    20    9   28 1   
    21   10   13 1   
    22   10   16 1   
    23   10   17 2   
    24   11   14 1   
    25   11   18 2   
    26   11   19 1   
    27   12   21 1   
    28   12   29 1   
    29   12   30 1   
    30   13   14 1   
    31   13   31 1   
    32   13   32 1   
    33   14   33 1   
    34   14   34 1   
    35   16   25 1   
    36   19   35 1   
@<TRIPOS>SUBSTRUCTURE
     1 VAB         1 TEMP              0 ****  ****    0 ROOT
