@<TRIPOS>MOLECULE
VAB
   34    35     1     0     0
SMALL
bcc


@<TRIPOS>ATOM
      1 C8          0.4340    0.6780    0.2860 ca        1 VAB     -0.058000
      2 C9          1.7730    0.6870    0.6070 ca        1 VAB     -0.177000
      3 C11         1.2890    0.0400    2.9160 ca        1 VAB     -0.166000
      4 C7         -0.5170    0.3480    1.2720 ca        1 VAB      0.032400
      5 C10         2.2370    0.3690    1.9270 ca        1 VAB      0.122600
      6 C12        -0.0610    0.0300    2.5920 ca        1 VAB     -0.039100
      7 C5         -2.4860   -0.0490    2.2440 cc        1 VAB      0.309100
      8 C1         -7.3030    0.7340    1.0240 c2        1 VAB     -0.209000
      9 C2         -6.3420   -0.1800    1.1470 c2        1 VAB     -0.159200
     10 C15         4.2800    0.1620    3.3400 c         1 VAB      0.667100
     11 C19         6.6560    1.3910    1.1800 c         1 VAB      0.907600
     12 C3         -4.9070    0.1080    0.9670 c3        1 VAB      0.004900
     13 C17         5.7970    0.2560    3.2830 c3        1 VAB     -0.126400
     14 C18         6.3130    1.5390    2.6730 c3        1 VAB     -0.207400
     15 N6         -1.9060    0.2950    1.1020 nd        1 VAB     -0.534100
     16 N14         3.6080    0.3970    2.1500 n         1 VAB     -0.470100
     17 O16         3.7010   -0.1380    4.4070 o         1 VAB     -0.646100
     18 O20         5.7200    1.1200    0.3620 o         1 VAB     -0.838300
     19 O21         7.8530    1.5600    0.8270 o         1 VAB     -0.838300
     20 S13        -1.3990   -0.3240    3.5740 ss        1 VAB     -0.038100
     21 S4         -4.1330   -0.2390    2.5260 ss        1 VAB     -0.144300
     22 H8          0.1030    0.9260   -0.7340 ha        1 VAB      0.139000
     23 H9          2.5140    0.9480   -0.1700 ha        1 VAB      0.162000
     24 H11         1.6110   -0.2070    3.9420 ha        1 VAB      0.179000
     25 H14         4.1940    0.6590    1.3530 hn        1 VAB      0.397500
     26 H11C       -7.0970    1.7870    0.7880 ha        1 VAB      0.112500
     27 H12C       -8.3640    0.4850    1.1530 ha        1 VAB      0.112500
     28 H2         -6.5820   -1.2310    1.3850 ha        1 VAB      0.129000
     29 H31C       -4.4740   -0.5440    0.1660 h1        1 VAB      0.085200
     30 H32C       -4.7200    1.1690    0.6700 h1        1 VAB      0.085200
     31 H171        6.1770   -0.6230    2.6950 hc        1 VAB      0.062700
     32 H172        6.1640    0.1520    4.3380 hc        1 VAB      0.062700
     33 H181        7.2450    1.8460    3.2130 hc        1 VAB      0.040200
     34 H182        5.5660    2.3640    2.7850 hc        1 VAB      0.040200
@<TRIPOS>BOND
     1    1    2 ar  
     2    1    4 ar  
     3    1   22 1   
     4    2    5 ar  
     5    2   23 1   
     6    3    5 ar  
     7    3    6 ar  
     8    3   24 1   
     9    4    6 ar  
    10    4   15 1   
    11    5   16 1   
    12    6   20 1   
    13    7   15 2   
    14    7   20 1   
    15    7   21 1   
    16    8    9 2   
    17    8   26 1   
    18    8   27 1   
    19    9   12 1   
    20    9   28 1   
    21   10   13 1   
    22   10   16 1   
    23   10   17 2   
    24   11   14 1   
    25   11   18 1   
    26   11   19 1   
    27   12   21 1   
    28   12   29 1   
    29   12   30 1   
    30   13   14 1   
    31   13   31 1   
    32   13   32 1   
    33   14   33 1   
    34   14   34 1   
    35   16   25 1   
@<TRIPOS>SUBSTRUCTURE
     1 VAB         1 TEMP              0 ****  ****    0 ROOT
