@<TRIPOS>MOLECULE
VAB
   34    35     1     0     0
SMALL
bcc


@<TRIPOS>ATOM
      1 C8          0.4480    0.6210    0.2780 ca        1 VAB     -0.058000
      2 C9          1.7840    0.6340    0.6100 ca        1 VAB     -0.177000
      3 C11         1.2780    0.0810    2.9380 ca        1 VAB     -0.166000
      4 C7         -0.5140    0.3360    1.2690 ca        1 VAB      0.032400
      5 C10         2.2360    0.3650    1.9440 ca        1 VAB      0.122600
      6 C12        -0.0700    0.0670    2.6040 ca        1 VAB     -0.039100
      7 C5         -2.4930   -0.0120    2.2390 cc        1 VAB      0.309100
      8 C1         -7.2960    0.7460    0.9500 c2        1 VAB     -0.209000
      9 C2         -6.3400   -0.1670    1.1160 c2        1 VAB     -0.159200
     10 C15         4.2660    0.2020    3.3810 c         1 VAB      0.667100
     11 C19         6.6670    1.3270    1.1920 c         1 VAB      0.907600
     12 C3         -4.9020    0.1070    0.9370 c3        1 VAB      0.004900
     13 C17         5.7840    0.2840    3.3320 c3        1 VAB     -0.126400
     14 C18         6.3140    1.5370    2.6750 c3        1 VAB     -0.207400
     15 N6         -1.9010    0.2840    1.0900 nd        1 VAB     -0.534100
     16 N14         3.6050    0.3940    2.1770 ns        1 VAB     -0.470100
     17 O16         3.6770   -0.0520    4.4540 o         1 VAB     -0.646100
     18 O20         5.7340    1.0320    0.3790 o         1 VAB     -0.838300
     19 O21         7.8680    1.4700    0.8430 o         1 VAB     -0.838300
     20 S13        -1.4180   -0.2410    3.5870 ss        1 VAB     -0.038100
     21 S4         -4.1430   -0.1810    2.5150 ss        1 VAB     -0.144300
     22 H8          0.1260    0.8310   -0.7530 ha        1 VAB      0.139000
     23 H9          2.5320    0.8600   -0.1710 ha        1 VAB      0.162000
     24 H11         1.5900   -0.1280    3.9750 ha        1 VAB      0.179000
     25 H14         4.1980    0.6210    1.3750 hn        1 VAB      0.397500
     26 H11C       -7.0830    1.7870    0.6750 ha        1 VAB      0.112500
     27 H12C       -8.3590    0.5060    1.0800 ha        1 VAB      0.112500
     28 H2         -6.5870   -1.2070    1.3940 ha        1 VAB      0.129000
     29 H31C       -4.7090    1.1560    0.6010 h1        1 VAB      0.085200
     30 H32C       -4.4650   -0.5770    0.1660 h1        1 VAB      0.085200
     31 H171        6.1420    0.2200    4.3940 hc        1 VAB      0.062700
     32 H172        6.1630   -0.6210    2.7840 hc        1 VAB      0.062700
     33 H181        7.2440    1.8600    3.2100 hc        1 VAB      0.040200
     34 H182        5.5720    2.3710    2.7480 hc        1 VAB      0.040200
@<TRIPOS>BOND
     1    1    2 ar  
     2    1    4 ar  
     3    1   22 1   
     4    2    5 ar  
     5    2   23 1   
     6    3    5 ar  
     7    3    6 ar  
     8    3   24 1   
     9    4    6 ar  
    10    4   15 1   
    11    5   16 1   
    12    6   20 1   
    13    7   15 2   
    14    7   20 1   
    15    7   21 1   
    16    8    9 2   
    17    8   26 1   
    18    8   27 1   
    19    9   12 1   
    20    9   28 1   
    21   10   13 1   
    22   10   16 1   
    23   10   17 2   
    24   11   14 1   
    25   11   18 1   
    26   11   19 1   
    27   12   21 1   
    28   12   29 1   
    29   12   30 1   
    30   13   14 1   
    31   13   31 1   
    32   13   32 1   
    33   14   33 1   
    34   14   34 1   
    35   16   25 1   
@<TRIPOS>SUBSTRUCTURE
     1 VAB         1 TEMP              0 ****  ****    0 ROOT
