@<TRIPOS>MOLECULE
VAB
   34    35     1     0     0
SMALL
bcc


@<TRIPOS>ATOM
      1 C8          0.4780   -1.8550    0.6170 ca        1 VAB     -0.058000
      2 C9         -0.8710   -1.6430    0.4440 ca        1 VAB     -0.177000
      3 C11        -0.4620    0.5420   -0.5770 ca        1 VAB     -0.166000
      4 C7          1.3990   -0.8730    0.1960 ca        1 VAB      0.032400
      5 C10        -1.3780   -0.4430   -0.1570 ca        1 VAB      0.122600
      6 C12         0.8990    0.3290   -0.4030 ca        1 VAB     -0.039100
      7 C5          3.3360    0.1620   -0.1950 cc        1 VAB      0.309100
      8 C1          8.1120   -0.5200    1.2310 c2        1 VAB     -0.209000
      9 C2          7.2440   -0.6380    0.2280 c2        1 VAB     -0.159200
     10 C15        -3.4700    0.7460   -0.8090 c         1 VAB      0.667100
     11 C19        -5.8260   -1.3390    0.5760 c         1 VAB      0.907600
     12 C3          5.8000   -0.8740    0.4150 c3        1 VAB      0.004900
     13 C17        -4.9810    0.5880   -0.8450 c3        1 VAB     -0.126400
     14 C18        -5.5910    0.1780    0.4760 c3        1 VAB     -0.207400
     15 N6          2.7930   -0.9410    0.3020 nd        1 VAB     -0.534100
     16 N14        -2.7550   -0.3260   -0.2950 n         1 VAB     -0.470100
     17 O16        -2.9280    1.7840   -1.2480 o         1 VAB     -0.646100
     18 O20        -4.8180   -2.1150    0.5540 o         1 VAB     -0.838300
     19 O21        -7.0100   -1.7500    0.6920 o         1 VAB     -0.838300
     20 S13         2.2050    1.3310   -0.8110 ss        1 VAB     -0.038100
     21 S4          4.9730    0.5320   -0.2840 ss        1 VAB     -0.144300
     22 H8          0.8430   -2.7840    1.0800 ha        1 VAB      0.139000
     23 H9         -1.5870   -2.4160    0.7770 ha        1 VAB      0.162000
     24 H11        -0.8170    1.4780   -1.0400 ha        1 VAB      0.179000
     25 H14        -3.3160   -1.1060    0.0570 hn        1 VAB      0.397500
     26 H11C        9.1840   -0.3560    1.0580 ha        1 VAB      0.112500
     27 H12C        7.8140   -0.5780    2.2860 ha        1 VAB      0.112500
     28 H2          7.5740   -0.5750   -0.8240 ha        1 VAB      0.129000
     29 H31C        5.4840   -1.8100   -0.1120 h1        1 VAB      0.085200
     30 H32C        5.5240   -0.9880    1.4920 h1        1 VAB      0.085200
     31 H171       -5.3990    1.5760   -1.1750 hc        1 VAB      0.062700
     32 H172       -5.2320   -0.1740   -1.6310 hc        1 VAB      0.062700
     33 H181       -6.5820    0.6900    0.5910 hc        1 VAB      0.040200
     34 H182       -4.9430    0.4950    1.3310 hc        1 VAB      0.040200
@<TRIPOS>BOND
     1    1    2 ar  
     2    1    4 ar  
     3    1   22 1   
     4    2    5 ar  
     5    2   23 1   
     6    3    5 ar  
     7    3    6 ar  
     8    3   24 1   
     9    4    6 ar  
    10    4   15 1   
    11    5   16 1   
    12    6   20 1   
    13    7   15 2   
    14    7   20 1   
    15    7   21 1   
    16    8    9 2   
    17    8   26 1   
    18    8   27 1   
    19    9   12 1   
    20    9   28 1   
    21   10   13 1   
    22   10   16 1   
    23   10   17 2   
    24   11   14 1   
    25   11   18 1   
    26   11   19 1   
    27   12   21 1   
    28   12   29 1   
    29   12   30 1   
    30   13   14 1   
    31   13   31 1   
    32   13   32 1   
    33   14   33 1   
    34   14   34 1   
    35   16   25 1   
@<TRIPOS>SUBSTRUCTURE
     1 VAB         1 TEMP              0 ****  ****    0 ROOT
