@<TRIPOS>MOLECULE
VAD
   17    16     1     0     0
SMALL
bcc


@<TRIPOS>ATOM
      1 CA         -0.4200   -0.4200    0.0930 c3        1 VAD      0.022100
      2 CB          0.2970    0.3550    1.2080 c3        1 VAD     -0.075700
      3 CG1        -0.3230    0.0680    2.5590 c3        1 VAD     -0.085600
      4 CG2         1.7720    0.0160    1.2190 c3        1 VAD     -0.085600
      5 C           0.0150    0.0970   -1.3040 c         1 VAD      0.893600
      6 O          -0.7940    0.8750   -1.8910 o         1 VAD     -0.838800
      7 OXT         1.1180   -0.2840   -1.7810 o         1 VAD     -0.838800
      8 OE         -1.8250   -0.3010    0.2560 oh        1 VAD     -0.646800
      9 HA         -0.1930   -1.5150    0.1880 h1        1 VAD      0.040700
     10 HB          0.1770    1.4520    0.9860 hc        1 VAD      0.045700
     11 HG11        0.1740    0.6730    3.3550 hc        1 VAD      0.024367
     12 HG12       -1.4120    0.3160    2.5390 hc        1 VAD      0.024367
     13 HG13       -0.2150   -1.0130    2.8160 hc        1 VAD      0.024367
     14 HG21        1.9300   -1.0340    1.5650 hc        1 VAD      0.024367
     15 HG22        2.1880    0.1120    0.1840 hc        1 VAD      0.024367
     16 HG23        2.3240    0.7000    1.9080 hc        1 VAD      0.024367
     17 HOE        -2.1240    0.3700   -0.3800 ho        1 VAD      0.422000
@<TRIPOS>BOND
     1    1    2 1   
     2    1    5 1   
     3    1    8 1   
     4    1    9 1   
     5    2    3 1   
     6    2    4 1   
     7    2   10 1   
     8    3   11 1   
     9    3   12 1   
    10    3   13 1   
    11    4   14 1   
    12    4   15 1   
    13    4   16 1   
    14    5    6 1   
    15    5    7 1   
    16    8   17 1   
@<TRIPOS>SUBSTRUCTURE
     1 VAD         1 TEMP              0 ****  ****    0 ROOT
