@<TRIPOS>MOLECULE
VAE
   32    33     1     0     0
SMALL
bcc


@<TRIPOS>ATOM
      1 C           0.4300    1.1590    0.3400 c         1 VAE      0.917200
      2 C'          6.3670   -2.1520    3.1340 c         1 VAE      0.926800
      3 C1          1.8220    0.5840    0.1870 ca        1 VAE     -0.219600
      4 C2          2.5200   -0.0440    1.2400 ca        1 VAE      0.177100
      5 O2          2.0260   -0.1970    2.5020 oh        1 VAE     -0.516100
      6 C3          3.8170   -0.5690    1.0020 ca        1 VAE      0.022100
      7 O3          4.4320   -1.3250    2.0020 os        1 VAE     -0.216200
      8 C4          4.4070   -0.4520   -0.2590 ca        1 VAE     -0.129000
      9 C5          3.7160    0.1810   -1.2900 ca        1 VAE     -0.208000
     10 C6          2.4390    0.6870   -1.0630 ca        1 VAE     -0.085000
     11 C7          5.7100   -0.9760    2.3870 ce        1 VAE      0.116900
     12 C8          6.2400    0.2450    2.1300 cf        1 VAE     -0.318200
     13 C9          7.5490    0.7330    2.4840 ca        1 VAE      0.054200
     14 OA         -0.1100    1.7080   -0.6630 o         1 VAE     -0.847800
     15 OB         -0.1590    1.0740    1.4630 o         1 VAE     -0.847800
     16 C10         7.7660    2.1260    2.4970 ca        1 VAE     -0.151500
     17 C11         9.0160    2.6550    2.8020 ca        1 VAE     -0.138500
     18 C12        10.0840    1.8090    3.1000 ca        1 VAE     -0.192000
     19 C13         9.8840    0.4280    3.0880 ca        1 VAE     -0.138500
     20 C14         8.6380   -0.1080    2.7810 ca        1 VAE     -0.151500
     21 OA'         7.0680   -2.9380    2.4370 o         1 VAE     -0.813800
     22 OB'         6.1970   -2.2410    4.3750 o         1 VAE     -0.813800
     23 HO2         1.1250    0.1870    2.5350 ho        1 VAE      0.469000
     24 H4          5.4170   -0.8580   -0.4130 ha        1 VAE      0.136000
     25 H5          4.1810    0.2760   -2.2790 ha        1 VAE      0.101000
     26 H6          1.8780    1.1870   -1.8700 ha        1 VAE      0.142000
     27 H8          5.6100    0.9850    1.6020 ha        1 VAE      0.122000
     28 H10         6.9290    2.8010    2.2680 ha        1 VAE      0.153500
     29 H11         9.1610    3.7440    2.8110 ha        1 VAE      0.100500
     30 H12        11.0700    2.2250    3.3420 ha        1 VAE      0.094000
     31 H13        10.7200   -0.2460    3.3230 ha        1 VAE      0.100500
     32 H14         8.4920   -1.2040    2.7720 ha        1 VAE      0.153500
@<TRIPOS>BOND
     1    1    3 1   
     2    1   14 1   
     3    1   15 1   
     4    2   11 1   
     5    2   21 1   
     6    2   22 1   
     7    3    4 ar  
     8    3   10 ar  
     9    4    5 1   
    10    4    6 ar  
    11    5   23 1   
    12    6    7 1   
    13    6    8 ar  
    14    7   11 1   
    15    8    9 ar  
    16    8   24 1   
    17    9   10 ar  
    18    9   25 1   
    19   10   26 1   
    20   11   12 2   
    21   12   13 1   
    22   12   27 1   
    23   13   16 ar  
    24   13   20 ar  
    25   16   17 ar  
    26   16   28 1   
    27   17   18 ar  
    28   17   29 1   
    29   18   19 ar  
    30   18   30 1   
    31   19   20 ar  
    32   19   31 1   
    33   20   32 1   
@<TRIPOS>SUBSTRUCTURE
     1 VAE         1 TEMP              0 ****  ****    0 ROOT
