@<TRIPOS>MOLECULE
VAE
   32    33     1     0     0
SMALL
bcc


@<TRIPOS>ATOM
      1 C           0.4070    1.1350    0.5610 c         1 VAE      0.917200
      2 C'          6.5110   -2.2860    2.7960 c         1 VAE      0.928800
      3 C1          1.7990    0.5990    0.3000 ca        1 VAE     -0.219600
      4 C2          2.5520   -0.1030    1.2640 ca        1 VAE      0.177100
      5 O2          2.1160   -0.3700    2.5290 oh        1 VAE     -0.517100
      6 C3          3.8430   -0.5840    0.9260 ca        1 VAE      0.023100
      7 O3          4.5140   -1.4130    1.8270 os        1 VAE     -0.218200
      8 C4          4.3740   -0.3520   -0.3450 ca        1 VAE     -0.128000
      9 C5          3.6290    0.3530   -1.2880 ca        1 VAE     -0.209000
     10 C6          2.3570    0.8170   -0.9630 ca        1 VAE     -0.085000
     11 C7          5.7860   -1.0530    2.2230 ce        1 VAE      0.115900
     12 C8          6.2700    0.2030    2.0660 cf        1 VAE     -0.317200
     13 C9          7.5550    0.7180    2.4690 ca        1 VAE      0.053200
     14 OA         -0.1840    1.7600   -0.3660 o         1 VAE     -0.847800
     15 OB         -0.1320    0.9420    1.6960 o         1 VAE     -0.847800
     16 C10         8.0110    1.9160    1.8810 ca        1 VAE     -0.151500
     17 C11         9.2330    2.4740    2.2440 ca        1 VAE     -0.139500
     18 C12        10.0320    1.8540    3.2030 ca        1 VAE     -0.190000
     19 C13         9.5910    0.6700    3.7970 ca        1 VAE     -0.139500
     20 C14         8.3690    0.1080    3.4420 ca        1 VAE     -0.151500
     21 OA'         7.0620   -3.0520    1.9620 o         1 VAE     -0.814300
     22 OB'         6.5350   -2.4370    4.0460 o         1 VAE     -0.814300
     23 HO2         1.2130   -0.0040    2.6340 ho        1 VAE      0.470000
     24 H4          5.3800   -0.7300   -0.5780 ha        1 VAE      0.137000
     25 H5          4.0470    0.5380   -2.2850 ha        1 VAE      0.100000
     26 H6          1.7540    1.3730   -1.6990 ha        1 VAE      0.141000
     27 H8          5.6270    0.9480    1.5600 ha        1 VAE      0.122000
     28 H10         7.3880    2.4130    1.1240 ha        1 VAE      0.154500
     29 H11         9.5690    3.4070    1.7710 ha        1 VAE      0.100500
     30 H12        10.9960    2.2920    3.4880 ha        1 VAE      0.094000
     31 H13        10.2130    0.1750    4.5560 ha        1 VAE      0.100500
     32 H14         8.0250   -0.8260    3.9250 ha        1 VAE      0.154500
@<TRIPOS>BOND
     1    1    3 1   
     2    1   14 1   
     3    1   15 1   
     4    2   11 1   
     5    2   21 1   
     6    2   22 1   
     7    3    4 ar  
     8    3   10 ar  
     9    4    5 1   
    10    4    6 ar  
    11    5   23 1   
    12    6    7 1   
    13    6    8 ar  
    14    7   11 1   
    15    8    9 ar  
    16    8   24 1   
    17    9   10 ar  
    18    9   25 1   
    19   10   26 1   
    20   11   12 2   
    21   12   13 1   
    22   12   27 1   
    23   13   16 ar  
    24   13   20 ar  
    25   16   17 ar  
    26   16   28 1   
    27   17   18 ar  
    28   17   29 1   
    29   18   19 ar  
    30   18   30 1   
    31   19   20 ar  
    32   19   31 1   
    33   20   32 1   
@<TRIPOS>SUBSTRUCTURE
     1 VAE         1 TEMP              0 ****  ****    0 ROOT
