@<TRIPOS>MOLECULE
VAE
   32    33     1     0     0
SMALL
bcc


@<TRIPOS>ATOM
      1 C           4.4520    0.8100    0.9750 c         1 VAE      0.917200
      2 C'         -1.8810   -0.0530   -2.6550 c         1 VAE      0.926800
      3 C1          3.2240   -0.0040    0.6270 ca        1 VAE     -0.219600
      4 C2          2.2520    0.4200   -0.3040 ca        1 VAE      0.177100
      5 O2          2.3080    1.6020   -0.9840 oh        1 VAE     -0.516100
      6 C3          1.1400   -0.4160   -0.5810 ca        1 VAE      0.022100
      7 O3          0.2710   -0.0620   -1.6150 os        1 VAE     -0.216200
      8 C4          0.9960   -1.6410    0.0740 ca        1 VAE     -0.129000
      9 C5          1.9530   -2.0470    1.0010 ca        1 VAE     -0.208000
     10 C6          3.0520   -1.2340    1.2660 ca        1 VAE     -0.085000
     11 C7         -1.0800   -0.0080   -1.3390 ce        1 VAE      0.116900
     12 C8         -1.5620    0.0870   -0.0760 cf        1 VAE     -0.318200
     13 C9         -2.9400    0.1570    0.3410 ca        1 VAE      0.054200
     14 OA          5.2630    0.3470    1.8270 o         1 VAE     -0.847800
     15 OB          4.6390    1.9310    0.4040 o         1 VAE     -0.847800
     16 C10        -3.2270    0.6550    1.6290 ca        1 VAE     -0.151500
     17 C11        -4.5350    0.7200    2.0980 ca        1 VAE     -0.138500
     18 C12        -5.5910    0.2880    1.2980 ca        1 VAE     -0.192000
     19 C13        -5.3220   -0.2080    0.0220 ca        1 VAE     -0.138500
     20 C14        -4.0170   -0.2780   -0.4540 ca        1 VAE     -0.151500
     21 OA'        -2.2650   -1.1920   -3.0400 o         1 VAE     -0.813800
     22 OB'        -2.1280    1.0310   -3.2400 o         1 VAE     -0.813800
     23 HO2         3.1230    2.0770   -0.7220 ho        1 VAE      0.469000
     24 H4          0.1180   -2.2650   -0.1510 ha        1 VAE      0.136000
     25 H5          1.8380   -3.0080    1.5180 ha        1 VAE      0.101000
     26 H6          3.8200   -1.5440    1.9940 ha        1 VAE      0.142000
     27 H8         -0.8350    0.1340    0.7560 ha        1 VAE      0.122000
     28 H10        -2.4000    1.0000    2.2670 ha        1 VAE      0.153500
     29 H11        -4.7360    1.1150    3.1040 ha        1 VAE      0.100500
     30 H12        -6.6240    0.3410    1.6660 ha        1 VAE      0.094000
     31 H13        -6.1490   -0.5480   -0.6180 ha        1 VAE      0.100500
     32 H14        -3.8150   -0.6770   -1.4650 ha        1 VAE      0.153500
@<TRIPOS>BOND
     1    1    3 1   
     2    1   14 1   
     3    1   15 1   
     4    2   11 1   
     5    2   21 1   
     6    2   22 1   
     7    3    4 ar  
     8    3   10 ar  
     9    4    5 1   
    10    4    6 ar  
    11    5   23 1   
    12    6    7 1   
    13    6    8 ar  
    14    7   11 1   
    15    8    9 ar  
    16    8   24 1   
    17    9   10 ar  
    18    9   25 1   
    19   10   26 1   
    20   11   12 2   
    21   12   13 1   
    22   12   27 1   
    23   13   16 ar  
    24   13   20 ar  
    25   16   17 ar  
    26   16   28 1   
    27   17   18 ar  
    28   17   29 1   
    29   18   19 ar  
    30   18   30 1   
    31   19   20 ar  
    32   19   31 1   
    33   20   32 1   
@<TRIPOS>SUBSTRUCTURE
     1 VAE         1 TEMP              0 ****  ****    0 ROOT
