@<TRIPOS>MOLECULE
VAF
   21    20     1     0     0
SMALL
bcc


@<TRIPOS>ATOM
      1 N          -1.7890    0.0790   -0.3430 n3        1 VAF     -0.890800
      2 CA         -0.3670    0.0790   -0.3430 c3        1 VAF      0.075500
      3 CB          0.1370    0.0790    1.0820 c3        1 VAF     -0.057700
      4 CG1         1.5050    0.7230    1.1330 c3        1 VAF     -0.091600
      5 CG2        -0.8210    0.8580    1.9560 c3        1 VAF     -0.091600
      6 CF          0.1370   -1.1550   -1.0550 c         1 VAF      0.524100
      7 CJ          0.6110   -1.0610   -2.4890 c3        1 VAF     -0.202100
      8 O           0.1620   -2.2230   -0.4770 o         1 VAF     -0.535100
      9 HN1        -2.0930   -0.7150   -0.6730 hn        1 VAF      0.354800
     10 HN2        -2.0930    0.7610   -0.8650 hn        1 VAF      0.354800
     11 HA         -0.0410    0.8760   -0.8030 h1        1 VAF      0.070700
     12 HB          0.1980   -0.8400    1.4060 hc        1 VAF      0.059700
     13 HG11        2.1360    0.1890    0.6140 hc        1 VAF      0.038700
     14 HG12        1.4550    1.6230    0.7590 hc        1 VAF      0.038700
     15 HG13        1.8070    0.7730    2.0600 hc        1 VAF      0.038700
     16 HG21       -0.4090    1.0220    2.8250 hc        1 VAF      0.038700
     17 HG22       -1.6420    0.3450    2.0760 hc        1 VAF      0.038700
     18 HG23       -1.0300    1.7110    1.5290 hc        1 VAF      0.038700
     19 HJ1         1.5730   -0.8970   -2.5040 hc        1 VAF      0.065700
     20 HJ2         0.4160   -1.8980   -2.9520 hc        1 VAF      0.065700
     21 HJ3         0.1490   -0.3260   -2.9370 hc        1 VAF      0.065700
@<TRIPOS>BOND
     1    1    2 1   
     2    1    9 1   
     3    1   10 1   
     4    2    3 1   
     5    2    6 1   
     6    2   11 1   
     7    3    4 1   
     8    3    5 1   
     9    3   12 1   
    10    4   13 1   
    11    4   14 1   
    12    4   15 1   
    13    5   16 1   
    14    5   17 1   
    15    5   18 1   
    16    6    7 1   
    17    6    8 2   
    18    7   19 1   
    19    7   20 1   
    20    7   21 1   
@<TRIPOS>SUBSTRUCTURE
     1 VAF         1 TEMP              0 ****  ****    0 ROOT
