@<TRIPOS>MOLECULE
VAF
   21    20     1     0     0
SMALL
bcc


@<TRIPOS>ATOM
      1 N           1.5010   -0.9230    0.2820 n3        1 VAF     -0.893800
      2 CA          0.1110   -0.6060    0.0280 c3        1 VAF      0.068500
      3 CB         -0.5760    0.3310    1.0530 c3        1 VAF     -0.098700
      4 CG1        -0.8480   -0.4070    2.3450 c3        1 VAF     -0.096600
      5 CG2         0.2390    1.5790    1.3080 c3        1 VAF     -0.096600
      6 CF         -0.0840    0.0030   -1.3630 c         1 VAF      0.573100
      7 CJ         -1.2580   -0.5230   -2.1200 c3        1 VAF     -0.200100
      8 O           0.6700    0.8690   -1.8140 o         1 VAF     -0.531100
      9 HN1         1.6370   -1.1000    1.2590 hn        1 VAF      0.357300
     10 HN2         2.0910   -0.1610    0.0030 hn        1 VAF      0.357300
     11 HA         -0.4440   -1.5930    0.0530 h1        1 VAF      0.069700
     12 HB         -1.5670    0.6350    0.6080 hc        1 VAF      0.051700
     13 HG11       -1.3900    0.2600    3.0580 hc        1 VAF      0.040200
     14 HG12       -1.4760   -1.3110    2.1580 hc        1 VAF      0.040200
     15 HG13        0.1040   -0.7340    2.8300 hc        1 VAF      0.040200
     16 HG21        1.1490    1.3460    1.9120 hc        1 VAF      0.040200
     17 HG22        0.5610    2.0370    0.3410 hc        1 VAF      0.040200
     18 HG23       -0.3700    2.3250    1.8740 hc        1 VAF      0.040200
     19 HJ1        -1.4350    0.0770   -3.0460 hc        1 VAF      0.066367
     20 HJ2        -1.0620   -1.5850   -2.4100 hc        1 VAF      0.066367
     21 HJ3        -2.1740   -0.4900   -1.4810 hc        1 VAF      0.066367
@<TRIPOS>BOND
     1    1    2 1   
     2    1    9 1   
     3    1   10 1   
     4    2    3 1   
     5    2    6 1   
     6    2   11 1   
     7    3    4 1   
     8    3    5 1   
     9    3   12 1   
    10    4   13 1   
    11    4   14 1   
    12    4   15 1   
    13    5   16 1   
    14    5   17 1   
    15    5   18 1   
    16    6    7 1   
    17    6    8 2   
    18    7   19 1   
    19    7   20 1   
    20    7   21 1   
@<TRIPOS>SUBSTRUCTURE
     1 VAF         1 TEMP              0 ****  ****    0 ROOT
