@<TRIPOS>MOLECULE
VAH
   19    18     1     0     0
SMALL
bcc


@<TRIPOS>ATOM
      1 C           1.6300   -0.2220    0.1290 c         1 VAH      0.881600
      2 N           0.3430    1.9220    0.4510 n3        1 VAH     -0.889800
      3 O           1.9510   -0.0180   -1.0810 o         1 VAH     -0.839300
      4 CA          0.3310    0.4790    0.6430 c3        1 VAH     -0.011500
      5 CB         -0.8660   -0.2070   -0.0490 c3        1 VAH      0.164100
      6 CG2        -2.1990    0.2550    0.5330 c3        1 VAH     -0.076400
      7 OG1        -0.9020    0.0620   -1.4450 oh        1 VAH     -0.651800
      8 OXT         2.2780   -0.9390    0.9340 o         1 VAH     -0.839300
      9 H           1.2780    2.2500    0.6210 hn        1 VAH      0.332800
     10 H2          0.1360    2.1160   -0.5140 hn        1 VAH      0.332800
     11 HA          0.2490    0.2930    1.7510 h1        1 VAH      0.053700
     12 HB         -0.7500   -1.3190    0.0980 h1        1 VAH      0.030700
     13 HD11       -3.3790   -0.6950   -1.0080 hc        1 VAH      0.022033
     14 HD12       -3.1860   -1.6780    0.5000 hc        1 VAH      0.022033
     15 HD13       -4.3070   -0.2550    0.4900 hc        1 VAH      0.022033
     16 HG21       -2.1150    0.2650    1.6500 hc        1 VAH      0.042700
     17 HG22       -2.4000    1.3040    0.1940 hc        1 VAH      0.042700
     18 HOG1        0.0140   -0.0080   -1.7660 ho        1 VAH      0.447000
     19 CD1        -3.3320   -0.6430    0.1070 c3        1 VAH     -0.087100
@<TRIPOS>BOND
     1    1    3 1   
     2    1    4 1   
     3    1    8 1   
     4    2    4 1   
     5    2    9 1   
     6    2   10 1   
     7    4    5 1   
     8    4   11 1   
     9    5    6 1   
    10    5    7 1   
    11    5   12 1   
    12    6   16 1   
    13    6   17 1   
    14    6   19 1   
    15    7   18 1   
    16   13   19 1   
    17   14   19 1   
    18   15   19 1   
@<TRIPOS>SUBSTRUCTURE
     1 VAH         1 TEMP              0 ****  ****    0 ROOT
