@<TRIPOS>MOLECULE
VAH
   19    17     1     0     0
SMALL
bcc


@<TRIPOS>ATOM
      1 C          -2.0060    0.5350   -1.1490 c1        1 VAH      0.768000
      2 N           0.1890    1.1450   -1.8950 nh        1 VAH     -0.476100
      3 O          -2.3910    1.6860   -0.8110 o         1 VAH     -0.807500
      4 CA         -0.5340    0.1930   -1.1220 c2        1 VAH      0.100200
      5 CB         -0.0360    0.2220    0.3050 c3        1 VAH      0.088800
      6 CD1         1.0160   -1.2030    2.0260 c3        1 VAH     -0.087100
      7 CG2         0.8870   -0.9530    0.5400 c3        1 VAH     -0.076400
      8 OG1         0.6640    1.4210    0.5340 oh        1 VAH     -0.651800
      9 OXT        -2.8460   -0.3300   -1.5080 o         1 VAH     -0.807500
     10 H          -0.3470    1.4620   -2.5670 hn        1 VAH      0.177700
     11 H2          0.9290    0.7450   -2.2570 hn        1 VAH      0.177700
     12 HA         -0.4000   -0.7000   -1.4960 h4        1 VAH     -0.036200
     13 HB         -0.7970    0.1660    0.9160 h1        1 VAH      0.030700
     14 HD11        1.5410   -2.0170    2.1760 hc        1 VAH      0.022033
     15 HD12        0.1240   -1.3130    2.4180 hc        1 VAH      0.022033
     16 HD13        1.4660   -0.4420    2.4480 hc        1 VAH      0.022033
     17 HG21        1.7680   -0.7560    0.1650 hc        1 VAH      0.042700
     18 HG22        0.5190   -1.7490    0.1060 hc        1 VAH      0.042700
     19 HOG1        0.2530    1.8870    1.1700 ho        1 VAH      0.447000
@<TRIPOS>BOND
     1    1    3 2   
     2    1    9 2   
     3    2    4 2   
     4    2   10 1   
     5    2   11 1   
     6    4    5 1   
     7    4   12 1   
     8    5    7 1   
     9    5    8 1   
    10    5   13 1   
    11    6    7 1   
    12    6   14 1   
    13    6   15 1   
    14    6   16 1   
    15    7   17 1   
    16    7   18 1   
    17    8   19 1   
@<TRIPOS>SUBSTRUCTURE
     1 VAH         1 TEMP              0 ****  ****    0 ROOT
