@<TRIPOS>MOLECULE
VAI
   21    20     1     0     0
SMALL
bcc


@<TRIPOS>ATOM
      1 C           1.1470    0.3900    0.3410 c3        1 VAI      0.337900
      2 N           0.0100   -1.8200    0.4300 n3        1 VAI     -0.911800
      3 O           2.2590   -0.2850    0.8680 oh        1 VAI     -0.633800
      4 CA         -0.0590   -0.4820   -0.1180 c3        1 VAI      0.141500
      5 CB         -1.3610    0.3000    0.1840 c3        1 VAI     -0.101700
      6 CG1        -1.4350    1.5380   -0.6860 c3        1 VAI     -0.094100
      7 CG2        -2.5900   -0.5560   -0.0400 c3        1 VAI     -0.094100
      8 H1          0.8490    1.1320    1.1350 h2        1 VAI      0.065700
      9 OXT         1.6380    1.0370   -0.8170 oh        1 VAI     -0.633800
     10 H           0.0380   -1.7960    1.4310 hn        1 VAI      0.356800
     11 H2         -0.7760   -2.3600    0.1290 hn        1 VAI      0.356800
     12 HO          2.4590   -1.0440    0.3050 ho        1 VAI      0.423000
     13 HA          0.0180   -0.5910   -1.2440 h1        1 VAI      0.085700
     14 HB         -1.3440    0.6170    1.2650 hc        1 VAI      0.045700
     15 HG11       -1.5770    1.2530   -1.7570 hc        1 VAI      0.038700
     16 HG12       -2.2930    2.1780   -0.3720 hc        1 VAI      0.038700
     17 HG13       -0.4930    2.1330   -0.6070 hc        1 VAI      0.038700
     18 HG21       -2.7000   -1.3250    0.7620 hc        1 VAI      0.038700
     19 HG22       -3.5070    0.0830   -0.0300 hc        1 VAI      0.038700
     20 HG23       -2.5360   -1.0740   -1.0280 hc        1 VAI      0.038700
     21 HXT         2.4480    1.4990   -0.5670 ho        1 VAI      0.423000
@<TRIPOS>BOND
     1    1    3 1   
     2    1    4 1   
     3    1    8 1   
     4    1    9 1   
     5    2    4 1   
     6    2   10 1   
     7    2   11 1   
     8    3   12 1   
     9    4    5 1   
    10    4   13 1   
    11    5    6 1   
    12    5    7 1   
    13    5   14 1   
    14    6   15 1   
    15    6   16 1   
    16    6   17 1   
    17    7   18 1   
    18    7   19 1   
    19    7   20 1   
    20    9   21 1   
@<TRIPOS>SUBSTRUCTURE
     1 VAI         1 TEMP              0 ****  ****    0 ROOT
