@<TRIPOS>MOLECULE
VAK
   50    53     1     0     0
SMALL
bcc


@<TRIPOS>ATOM
      1 C1         -0.2140   -0.0560   -0.0360 ca        1 VAK     -0.123000
      2 C2          1.1790   -0.1120   -0.1270 ca        1 VAK     -0.075000
      3 C3          1.9560   -0.1110    1.0220 ca        1 VAK     -0.205000
      4 C4          1.3340   -0.0430    2.2840 ca        1 VAK      0.173100
      5 C5         -0.7190    0.1270    3.7150 c         1 VAK      0.606300
      6 C6         -2.7940   -0.4960    5.0030 ca        1 VAK      0.215100
      7 C7         -4.8120   -1.0750    6.3930 c3        1 VAK      0.206400
      8 C8         -6.1660   -1.7640    6.2740 c3        1 VAK     -0.111400
      9 C9         -7.0560   -1.1580    5.1910 c3        1 VAK      0.167800
     10 C10        -6.3530   -1.2450    3.8140 c3        1 VAK     -0.093400
     11 C11        -4.2680   -0.5870    2.6400 ca        1 VAK     -0.123000
     12 C12        -2.3100    0.0370    1.2830 c         1 VAK      0.583300
     13 C13        -8.4130   -1.8720    5.1210 c3        1 VAK     -0.119400
     14 C14        -6.4860   -2.6300    3.2250 c         1 VAK      0.638100
     15 C15        -7.0950   -3.8480    1.2680 c3        1 VAK      0.124700
     16 C16        -0.0710    0.0220    2.3940 ca        1 VAK     -0.159600
     17 O16        -6.9610   -2.5950    1.9420 os        1 VAK     -0.440900
     18 C17        -2.1520   -0.2170    3.7830 ca        1 VAK     -0.223600
     19 O17        -6.2340   -3.7280    3.7220 o         1 VAK     -0.529000
     20 C18        -2.9190   -0.2600    2.5990 ca        1 VAK     -0.091600
     21 O18        -3.0020    0.2760    0.2840 o         1 VAK     -0.516100
     22 C19        -4.9010   -0.8790    3.8630 ca        1 VAK     -0.026300
     23 O19         2.0560   -0.0560    3.4470 oh        1 VAK     -0.460100
     24 C20        -4.1820   -0.8200    5.0500 ca        1 VAK     -0.110300
     25 O20        -0.0850    0.4900    4.7180 o         1 VAK     -0.533100
     26 C21        -0.8330    0.0020    1.2140 ca        1 VAK     -0.094600
     27 O21        -2.1740   -0.5310    6.2180 oh        1 VAK     -0.486100
     28 C22        -9.2810   -1.5980    6.3210 c3        1 VAK     -0.091100
     29 O22        -4.9050    0.1150    7.1540 oh        1 VAK     -0.584800
     30 O23        -7.2350    0.2170    5.5190 oh        1 VAK     -0.598800
     31 H1         -0.8360   -0.0530   -0.9460 ha        1 VAK      0.162000
     32 H2          1.6600   -0.1580   -1.1170 ha        1 VAK      0.144000
     33 H3          3.0530   -0.1600    0.9570 ha        1 VAK      0.143000
     34 H7         -4.1150   -1.7240    7.0060 h1        1 VAK      0.098700
     35 H8         -6.6890   -1.6850    7.2630 hc        1 VAK      0.081200
     36 H8A        -6.0130   -2.8480    6.0250 hc        1 VAK      0.081200
     37 H10        -6.8730   -0.5210    3.1180 hc        1 VAK      0.094700
     38 H11        -4.8490   -0.6180    1.7020 ha        1 VAK      0.166000
     39 H13        -8.2320   -2.9760    5.0300 hc        1 VAK      0.056200
     40 H13A       -8.9440   -1.5360    4.1900 hc        1 VAK      0.056200
     41 H15        -6.1030   -4.3560    1.2100 h1        1 VAK      0.054033
     42 H15A       -7.8250   -4.4940    1.8120 h1        1 VAK      0.054033
     43 H15B       -7.4710   -3.5630    0.2550 h1        1 VAK      0.054033
     44 HO19        2.9990   -0.0690    3.2170 ho        1 VAK      0.422000
     45 HO21       -1.2720   -0.1740    6.1550 ho        1 VAK      0.462000
     46 H22        -8.8470   -2.0620    7.2390 hc        1 VAK      0.042367
     47 H22A      -10.3000   -2.0260    6.1580 hc        1 VAK      0.042367
     48 H22B       -9.3790   -0.4990    6.4980 hc        1 VAK      0.042367
     49 HO22       -5.5160    0.7110    6.7010 ho        1 VAK      0.417000
     50 HO23       -7.9120    0.5700    4.9290 ho        1 VAK      0.409000
@<TRIPOS>BOND
     1    1    2 ar  
     2    1   26 ar  
     3    1   31 1   
     4    2    3 ar  
     5    2   32 1   
     6    3    4 ar  
     7    3   33 1   
     8    4   16 ar  
     9    4   23 1   
    10    5   16 1   
    11    5   18 1   
    12    5   25 2   
    13    6   18 ar  
    14    6   24 ar  
    15    6   27 1   
    16    7    8 1   
    17    7   24 1   
    18    7   29 1   
    19    7   34 1   
    20    8    9 1   
    21    8   35 1   
    22    8   36 1   
    23    9   10 1   
    24    9   13 1   
    25    9   30 1   
    26   10   14 1   
    27   10   22 1   
    28   10   37 1   
    29   11   20 ar  
    30   11   22 ar  
    31   11   38 1   
    32   12   20 1   
    33   12   21 2   
    34   12   26 1   
    35   13   28 1   
    36   13   39 1   
    37   13   40 1   
    38   14   17 1   
    39   14   19 2   
    40   15   17 1   
    41   15   41 1   
    42   15   42 1   
    43   15   43 1   
    44   16   26 ar  
    45   18   20 ar  
    46   22   24 ar  
    47   23   44 1   
    48   27   45 1   
    49   28   46 1   
    50   28   47 1   
    51   28   48 1   
    52   29   49 1   
    53   30   50 1   
@<TRIPOS>SUBSTRUCTURE
     1 VAK         1 TEMP              0 ****  ****    0 ROOT
