@<TRIPOS>MOLECULE
VAK
   50    53     1     0     0
SMALL
bcc


@<TRIPOS>ATOM
      1 C1         -0.1830   -0.0300   -0.0180 ca        1 VAK     -0.123000
      2 C2          1.2120   -0.0670   -0.0960 ca        1 VAK     -0.073000
      3 C3          1.9760   -0.0860    1.0620 ca        1 VAK     -0.205000
      4 C4          1.3390   -0.0570    2.3180 ca        1 VAK      0.174100
      5 C5         -0.7300    0.0530    3.7300 c         1 VAK      0.606300
      6 C6         -2.8200   -0.6010    4.9760 ca        1 VAK      0.192100
      7 C7         -4.8270   -1.2840    6.3300 c3        1 VAK      0.212400
      8 C8         -6.2710   -1.7630    6.2330 c3        1 VAK     -0.072400
      9 C9         -7.0850   -1.1140    5.1160 c3        1 VAK      0.171800
     10 C10        -6.3710   -1.2900    3.7530 c3        1 VAK     -0.095400
     11 C11        -4.2690   -0.6310    2.6030 ca        1 VAK     -0.114000
     12 C12        -2.2950    0.0080    1.2770 c         1 VAK      0.583300
     13 C13        -8.4880   -1.7350    5.0340 c3        1 VAK     -0.119400
     14 C14        -6.5340   -2.6970    3.2280 c         1 VAK      0.638100
     15 C15        -7.1750   -3.9880    1.3300 c3        1 VAK      0.124700
     16 C16        -0.0670   -0.0100    2.4140 ca        1 VAK     -0.161600
     17 O16        -7.0060   -2.7090    1.9420 os        1 VAK     -0.440900
     18 C17        -2.1630   -0.2950    3.7720 ca        1 VAK     -0.212600
     19 O17        -6.3100   -3.7780    3.7730 o         1 VAK     -0.531000
     20 C18        -2.9180   -0.3120    2.5800 ca        1 VAK     -0.097600
     21 O18        -2.9750    0.2540    0.2720 o         1 VAK     -0.515100
     22 C19        -4.9140   -0.9520    3.8120 ca        1 VAK     -0.017300
     23 O19         2.0490   -0.0900    3.4890 oh        1 VAK     -0.461100
     24 C20        -4.2040   -0.9390    5.0050 ca        1 VAK     -0.096300
     25 O20        -0.1090    0.3880    4.7510 o         1 VAK     -0.535100
     26 C21        -0.8160   -0.0090    1.2250 ca        1 VAK     -0.093600
     27 O21        -2.2190   -0.6280    6.2060 oh        1 VAK     -0.517100
     28 C22        -9.3340   -1.4200    6.2400 c3        1 VAK     -0.092100
     29 O22        -4.8280   -0.1810    7.2260 oh        1 VAK     -0.584800
     30 O23        -7.1750    0.2760    5.4050 oh        1 VAK     -0.563800
     31 H1         -0.7940   -0.0120   -0.9350 ha        1 VAK      0.163000
     32 H2          1.7040   -0.0830   -1.0800 ha        1 VAK      0.145000
     33 H3          3.0740   -0.1190    1.0080 ha        1 VAK      0.143000
     34 H7         -4.2020   -2.1130    6.7850 h1        1 VAK      0.052700
     35 H8         -6.2690   -2.8710    6.0530 hc        1 VAK      0.081200
     36 H8A        -6.7750   -1.5460    7.2130 hc        1 VAK      0.081200
     37 H10        -6.8650   -0.5870    3.0170 hc        1 VAK      0.095700
     38 H11        -4.8440   -0.6310    1.6600 ha        1 VAK      0.166000
     39 H13        -8.9950   -1.3460    4.1100 hc        1 VAK      0.052700
     40 H13A       -8.3860   -2.8470    4.9230 hc        1 VAK      0.052700
     41 H15        -7.9210   -4.5890    1.9040 h1        1 VAK      0.053367
     42 H15A       -6.1970   -4.5260    1.2940 h1        1 VAK      0.053367
     43 H15B       -7.5470   -3.7430    0.3040 h1        1 VAK      0.053367
     44 HO19        2.9940   -0.0850    3.2700 ho        1 VAK      0.423000
     45 HO21       -1.2840   -0.3740    6.1420 ho        1 VAK      0.468000
     46 H22        -8.9520   -1.9570    7.1420 hc        1 VAK      0.042700
     47 H22A      -10.3890   -1.7380    6.0610 hc        1 VAK      0.042700
     48 H22B       -9.3200   -0.3240    6.4560 hc        1 VAK      0.042700
     49 HO22       -3.9150    0.1210    7.3150 ho        1 VAK      0.414000
     50 HO23       -7.8200    0.6510    4.7930 ho        1 VAK      0.396000
@<TRIPOS>BOND
     1    1    2 ar  
     2    1   26 ar  
     3    1   31 1   
     4    2    3 ar  
     5    2   32 1   
     6    3    4 ar  
     7    3   33 1   
     8    4   16 ar  
     9    4   23 1   
    10    5   16 1   
    11    5   18 1   
    12    5   25 2   
    13    6   18 ar  
    14    6   24 ar  
    15    6   27 1   
    16    7    8 1   
    17    7   24 1   
    18    7   29 1   
    19    7   34 1   
    20    8    9 1   
    21    8   35 1   
    22    8   36 1   
    23    9   10 1   
    24    9   13 1   
    25    9   30 1   
    26   10   14 1   
    27   10   22 1   
    28   10   37 1   
    29   11   20 ar  
    30   11   22 ar  
    31   11   38 1   
    32   12   20 1   
    33   12   21 2   
    34   12   26 1   
    35   13   28 1   
    36   13   39 1   
    37   13   40 1   
    38   14   17 1   
    39   14   19 2   
    40   15   17 1   
    41   15   41 1   
    42   15   42 1   
    43   15   43 1   
    44   16   26 ar  
    45   18   20 ar  
    46   22   24 ar  
    47   23   44 1   
    48   27   45 1   
    49   28   46 1   
    50   28   47 1   
    51   28   48 1   
    52   29   49 1   
    53   30   50 1   
@<TRIPOS>SUBSTRUCTURE
     1 VAK         1 TEMP              0 ****  ****    0 ROOT
