@<TRIPOS>MOLECULE
VAK
   50    53     1     0     0
SMALL
bcc


@<TRIPOS>ATOM
      1 C1         -4.4370    2.2090   -0.5060 ca        1 VAK     -0.121000
      2 C2         -5.7740    1.9160   -0.2020 ca        1 VAK     -0.077000
      3 C3         -6.1350    0.6370    0.1690 ca        1 VAK     -0.154000
      4 C4         -5.1510   -0.3830    0.2430 ca        1 VAK      0.204100
      5 C5         -2.7570   -1.1330    0.0460 c         1 VAK      0.624300
      6 C6         -0.2900   -1.6100    0.2300 ca        1 VAK      0.204100
      7 C7          2.1390   -2.1900    0.5030 c3        1 VAK      0.196400
      8 C8          3.5330   -1.5800    0.6000 c3        1 VAK     -0.116400
      9 C9          3.8100   -0.5260   -0.4680 c3        1 VAK      0.178800
     10 C10         2.7610    0.6110   -0.3690 c3        1 VAK     -0.104400
     11 C11         0.3080    0.9980   -0.5340 ca        1 VAK     -0.115000
     12 C12        -2.0710    1.5820   -0.7550 c         1 VAK      0.580300
     13 C13         5.2210    0.0630   -0.3090 c3        1 VAK     -0.079400
     14 C14         3.0600    1.5370    0.7860 c         1 VAK      0.640100
     15 C15         3.3490    3.8170    1.4140 c3        1 VAK      0.123700
     16 C16        -3.8000   -0.1010   -0.0420 ca        1 VAK     -0.226600
     17 O16         3.0860    2.8490    0.3980 os        1 VAK     -0.436900
     18 C17        -1.3470   -0.7230   -0.0490 ca        1 VAK     -0.216600
     19 O17         3.2670    1.2780    1.9720 o         1 VAK     -0.535000
     20 C18        -1.0170    0.5940   -0.4360 ca        1 VAK     -0.086600
     21 O18        -1.7940    2.6760   -1.2660 o         1 VAK     -0.511100
     22 C19         1.3570    0.1080   -0.2380 ca        1 VAK     -0.008300
     23 O19        -5.6590   -1.5920    0.6180 oh        1 VAK     -0.498100
     24 C20         1.0700   -1.1920    0.1520 ca        1 VAK     -0.130300
     25 O20        -3.0590   -2.3340    0.2100 o         1 VAK     -0.611100
     26 C21        -3.4650    1.2170   -0.4240 ca        1 VAK     -0.091600
     27 O21        -0.4330   -2.9220    0.5890 oh        1 VAK     -0.519100
     28 C22         6.3090   -0.9450   -0.5720 c3        1 VAK     -0.090100
     29 O22         2.2120   -3.2180   -0.4800 oh        1 VAK     -0.607800
     30 O23         3.7560   -1.0540   -1.7870 oh        1 VAK     -0.593800
     31 H1         -4.1480    3.2270   -0.8160 ha        1 VAK      0.164000
     32 H2         -6.5340    2.7110   -0.2660 ha        1 VAK      0.148000
     33 H3         -7.1770    0.3760    0.4090 ha        1 VAK      0.162000
     34 H7          1.8700   -2.6550    1.4980 h1        1 VAK      0.064700
     35 H8          3.6470   -1.1030    1.6090 hc        1 VAK      0.086200
     36 H8A         4.2860   -2.4060    0.4980 hc        1 VAK      0.086200
     37 H10         2.8350    1.2080   -1.3290 hc        1 VAK      0.116700
     38 H11         0.5410    2.0310   -0.8480 ha        1 VAK      0.174000
     39 H13         5.3230    0.9150   -1.0320 hc        1 VAK      0.054200
     40 H13A        5.3190    0.4710    0.7310 hc        1 VAK      0.054200
     41 H15         3.3130    4.7910    0.8660 h1        1 VAK      0.053700
     42 H15A        2.5630    3.7620    2.2050 h1        1 VAK      0.053700
     43 H15B        4.3550    3.6350    1.8610 h1        1 VAK      0.053700
     44 HO19       -4.9730   -2.2790    0.6100 ho        1 VAK      0.462000
     45 HO21       -1.3680   -3.1620    0.6900 ho        1 VAK      0.470000
     46 H22         6.3390   -1.7200    0.2310 hc        1 VAK      0.041367
     47 H22A        6.1380   -1.4550   -1.5510 hc        1 VAK      0.041367
     48 H22B        7.3010   -0.4320   -0.6020 hc        1 VAK      0.041367
     49 HO22        1.3650   -3.6820   -0.4740 ho        1 VAK      0.422000
     50 HO23        3.0540   -1.7200   -1.8130 ho        1 VAK      0.427000
@<TRIPOS>BOND
     1    1    2 ar  
     2    1   26 ar  
     3    1   31 1   
     4    2    3 ar  
     5    2   32 1   
     6    3    4 ar  
     7    3   33 1   
     8    4   16 ar  
     9    4   23 1   
    10    5   16 1   
    11    5   18 1   
    12    5   25 2   
    13    6   18 ar  
    14    6   24 ar  
    15    6   27 1   
    16    7    8 1   
    17    7   24 1   
    18    7   29 1   
    19    7   34 1   
    20    8    9 1   
    21    8   35 1   
    22    8   36 1   
    23    9   10 1   
    24    9   13 1   
    25    9   30 1   
    26   10   14 1   
    27   10   22 1   
    28   10   37 1   
    29   11   20 ar  
    30   11   22 ar  
    31   11   38 1   
    32   12   20 1   
    33   12   21 2   
    34   12   26 1   
    35   13   28 1   
    36   13   39 1   
    37   13   40 1   
    38   14   17 1   
    39   14   19 2   
    40   15   17 1   
    41   15   41 1   
    42   15   42 1   
    43   15   43 1   
    44   16   26 ar  
    45   18   20 ar  
    46   22   24 ar  
    47   23   44 1   
    48   27   45 1   
    49   28   46 1   
    50   28   47 1   
    51   28   48 1   
    52   29   49 1   
    53   30   50 1   
@<TRIPOS>SUBSTRUCTURE
     1 VAK         1 TEMP              0 ****  ****    0 ROOT
