@<TRIPOS>MOLECULE
VAM
   48    49     1     0     0
SMALL
bcc


@<TRIPOS>ATOM
      1 O10        -4.1860    0.3400   -0.8430 oh        1 VAM     -0.600800
      2 C12        -2.7670    0.2450   -0.7860 c3        1 VAM      0.131400
      3 C11        -2.3130    0.3650    0.6460 c3        1 VAM      0.148100
      4 O11        -3.1030   -0.5500    1.4720 os        1 VAM     -0.432600
      5 C7         -2.6250   -0.6300    2.8470 c3        1 VAM      0.301900
      6 O7         -3.3290   -1.6440    3.5150 os        1 VAM     -0.423600
      7 CM         -4.5240   -1.1880    4.1790 c3        1 VAM      0.121700
      8 C10        -0.8250    0.0750    0.7160 c3        1 VAM      0.118100
      9 O9         -0.1040    1.1320    0.0150 os        1 VAM     -0.391600
     10 C9         -0.3350   -0.0000    2.1050 c3        1 VAM      0.122100
     11 C8         -1.1370   -0.9250    2.9310 c3        1 VAM      0.085100
     12 O8         -0.7150   -0.8100    4.3030 oh        1 VAM     -0.605800
     13 O1          1.0540   -0.4600    2.0930 oh        1 VAM     -0.606800
     14 O6          2.3400    2.3690   -3.8870 oh        1 VAM     -0.605800
     15 C2          3.9370   -1.1180   -0.9400 c3        1 VAM      0.120400
     16 O2          4.5390   -2.0510   -1.7960 oh        1 VAM     -0.602800
     17 C3          2.6850   -0.5840   -1.5820 c3        1 VAM      0.110100
     18 O3          1.7830   -0.1150   -0.5370 os        1 VAM     -0.405600
     19 C4          3.0650    0.5190   -2.5650 c3        1 VAM     -0.030600
     20 C5          1.8900    1.2140   -3.1050 c3        1 VAM      0.118100
     21 C6          0.9850    1.6840   -2.0410 c3        1 VAM      0.102100
     22 C70         0.6170    0.5740   -1.0620 c3        1 VAM      0.339900
     23 O5         -0.2150    2.1900   -2.6430 oh        1 VAM     -0.601800
     24 S10         3.9950   -0.2220   -3.9450 sh        1 VAM     -0.411900
     25 H10        -4.4510    0.3100   -1.6900 ho        1 VAM      0.403000
     26 H121       -2.4880   -0.6060   -1.1410 h1        1 VAM      0.050700
     27 H122       -2.3690    0.9670   -1.3170 h1        1 VAM      0.050700
     28 H11        -2.4710    1.2850    0.9530 h1        1 VAM      0.080700
     29 HA         -0.6490   -0.7750    0.2740 h1        1 VAM      0.087700
     30 H7         -2.8010    0.2170    3.2890 h2        1 VAM      0.055700
     31 H8         -0.9780   -1.8400    2.6260 h1        1 VAM      0.076700
     32 HMC1       -4.3650   -0.2970    4.5640 h1        1 VAM      0.043033
     33 HMC2       -4.7600   -1.8150    4.8930 h1        1 VAM      0.043033
     34 HMC3       -5.2590   -1.1380    3.5330 h1        1 VAM      0.043033
     35 H9         -0.3710    0.8980    2.5050 h1        1 VAM      0.070700
     36 H70         0.0530   -0.0670   -1.5170 h2        1 VAM      0.086700
     37 H1          1.4670   -0.1850    2.8410 ho        1 VAM      0.422000
     38 HB         -0.4430   -1.6140    4.6020 ho        1 VAM      0.424000
     39 H6          2.1190    2.2470   -4.7660 ho        1 VAM      0.425000
     40 H5          1.3990    0.6010   -3.6940 h1        1 VAM      0.068700
     41 H2C1        4.5590   -0.3820   -0.7730 h1        1 VAM      0.070700
     42 H2C2        3.7070   -1.5580   -0.0820 h1        1 VAM      0.070700
     43 H2          5.2470   -2.4180   -1.3870 ho        1 VAM      0.409000
     44 H3          2.2420   -1.3180   -2.0810 h1        1 VAM      0.063700
     45 H4          3.6390    1.1710   -2.1080 h1        1 VAM      0.096700
     46 HC          4.9330    0.4570   -4.1990 hs        1 VAM      0.252800
     47 HD          1.4240    2.4100   -1.5480 h1        1 VAM      0.077700
     48 HE         -0.0970    3.0410   -2.8660 ho        1 VAM      0.425000
@<TRIPOS>BOND
     1    1    2 1   
     2    1   25 1   
     3    2    3 1   
     4    2   26 1   
     5    2   27 1   
     6    3    4 1   
     7    3    8 1   
     8    3   28 1   
     9    4    5 1   
    10    5    6 1   
    11    5   11 1   
    12    5   30 1   
    13    6    7 1   
    14    7   32 1   
    15    7   33 1   
    16    7   34 1   
    17    8    9 1   
    18    8   10 1   
    19    8   29 1   
    20    9   22 1   
    21   10   11 1   
    22   10   13 1   
    23   10   35 1   
    24   11   12 1   
    25   11   31 1   
    26   12   38 1   
    27   13   37 1   
    28   14   20 1   
    29   14   39 1   
    30   15   16 1   
    31   15   17 1   
    32   15   41 1   
    33   15   42 1   
    34   16   43 1   
    35   17   18 1   
    36   17   19 1   
    37   17   44 1   
    38   18   22 1   
    39   19   20 1   
    40   19   24 1   
    41   19   45 1   
    42   20   21 1   
    43   20   40 1   
    44   21   22 1   
    45   21   23 1   
    46   21   47 1   
    47   22   36 1   
    48   23   48 1   
    49   24   46 1   
@<TRIPOS>SUBSTRUCTURE
     1 VAM         1 TEMP              0 ****  ****    0 ROOT
