@<TRIPOS>MOLECULE
VAM
   48    49     1     0     0
SMALL
bcc


@<TRIPOS>ATOM
      1 O10         2.8520    3.3220    0.9010 oh        1 VAM     -0.592800
      2 C12         1.9560    2.2400    1.0130 c3        1 VAM      0.137400
      3 C11         2.3160    1.1210    0.0280 c3        1 VAM      0.090100
      4 O11         3.5640    0.6000    0.4810 os        1 VAM     -0.444600
      5 C7          4.0450   -0.4570   -0.3420 c3        1 VAM      0.302900
      6 O7          5.2140   -0.8720    0.3290 os        1 VAM     -0.417600
      7 CM          6.2750    0.0750    0.2830 c3        1 VAM      0.121700
      8 C10         1.2190    0.0410    0.0090 c3        1 VAM      0.127100
      9 O9          0.1130    0.6300   -0.6860 os        1 VAM     -0.413600
     10 C9          1.6700   -1.1990   -0.7810 c3        1 VAM      0.143100
     11 C8          3.0710   -1.6470   -0.3280 c3        1 VAM      0.085100
     12 O8          3.4900   -2.6360   -1.2510 oh        1 VAM     -0.601800
     13 O1          0.7450   -2.2350   -0.4990 oh        1 VAM     -0.589800
     14 O6         -4.4140    2.1230   -0.9500 oh        1 VAM     -0.605800
     15 C3         -2.8210   -0.8940    0.5570 c3        1 VAM      0.115100
     16 O3         -1.5260   -0.6850   -0.0130 os        1 VAM     -0.423600
     17 C4         -3.8770   -0.0490   -0.1470 c3        1 VAM     -0.005600
     18 C5         -3.4780    1.4250   -0.1420 c3        1 VAM      0.146100
     19 C6         -2.0610    1.5880   -0.7220 c3        1 VAM      0.083100
     20 C70        -1.0970    0.6630    0.0440 c3        1 VAM      0.308900
     21 O5         -1.7000    2.9440   -0.5320 oh        1 VAM     -0.603800
     22 S10        -5.4120   -0.3240    0.7110 sh        1 VAM     -0.371900
     23 H10         3.7320    2.9820    1.1110 ho        1 VAM      0.413000
     24 H121        1.9480    1.8400    2.0610 h1        1 VAM      0.058200
     25 H122        0.9470    2.6560    0.7450 h1        1 VAM      0.058200
     26 H11         2.4450    1.5460   -1.0070 h1        1 VAM      0.067700
     27 HA          0.9360   -0.2670    1.0510 h1        1 VAM      0.084700
     28 H7          4.2580   -0.0890   -1.3830 h2        1 VAM      0.055700
     29 H8          3.0200   -2.0790    0.7100 h1        1 VAM      0.079700
     30 HMC1        6.5800    0.2650   -0.7750 h1        1 VAM      0.042367
     31 HMC2        5.9680    1.0300    0.7750 h1        1 VAM      0.042367
     32 HMC3        7.1010   -0.4180    0.8530 h1        1 VAM      0.042367
     33 H9          1.6740   -0.9740   -1.8830 h1        1 VAM      0.068700
     34 H70        -0.9480    1.0020    1.1060 h2        1 VAM      0.054700
     35 H1          1.0170   -2.9930   -1.0350 ho        1 VAM      0.420000
     36 HB          4.3490   -2.9530   -0.9430 ho        1 VAM      0.424000
     37 H6         -4.0980    3.0350   -1.0090 ho        1 VAM      0.429000
     38 H2         -1.2100   -2.8890    0.5550 ho        1 VAM      0.429000
     39 H3         -2.7830   -0.6360    1.6530 h1        1 VAM      0.068700
     40 H4         -3.9830   -0.3850   -1.2120 h1        1 VAM      0.098700
     41 HC         -6.1510    0.5900    0.0940 hs        1 VAM      0.232800
     42 HD         -2.0530    1.3280   -1.8160 h1        1 VAM      0.080700
     43 HE         -0.8280    3.0560   -0.9330 ho        1 VAM      0.424000
     44 H5         -3.5030    1.8390    0.9060 h1        1 VAM      0.068700
     45 C2         -3.0720   -2.4000    0.3740 c3        1 VAM      0.146400
     46 H2C1       -3.1500   -2.6390   -0.7190 h1        1 VAM      0.061700
     47 O2         -2.0440   -3.1540    0.9730 oh        1 VAM     -0.601800
     48 H2C2       -4.0160   -2.6910    0.9070 h1        1 VAM      0.061700
@<TRIPOS>BOND
     1    1    2 1   
     2    1   23 1   
     3    2    3 1   
     4    2   24 1   
     5    2   25 1   
     6    3    4 1   
     7    3    8 1   
     8    3   26 1   
     9    4    5 1   
    10    5    6 1   
    11    5   11 1   
    12    5   28 1   
    13    6    7 1   
    14    7   30 1   
    15    7   31 1   
    16    7   32 1   
    17    8    9 1   
    18    8   10 1   
    19    8   27 1   
    20    9   20 1   
    21   10   11 1   
    22   10   13 1   
    23   10   33 1   
    24   11   12 1   
    25   11   29 1   
    26   12   36 1   
    27   13   35 1   
    28   14   18 1   
    29   14   37 1   
    30   15   16 1   
    31   15   17 1   
    32   15   39 1   
    33   15   45 1   
    34   16   20 1   
    35   17   18 1   
    36   17   22 1   
    37   17   40 1   
    38   18   19 1   
    39   18   44 1   
    40   19   20 1   
    41   19   21 1   
    42   19   42 1   
    43   20   34 1   
    44   21   43 1   
    45   22   41 1   
    46   38   47 1   
    47   45   46 1   
    48   45   47 1   
    49   45   48 1   
@<TRIPOS>SUBSTRUCTURE
     1 VAM         1 TEMP              0 ****  ****    0 ROOT
