@<TRIPOS>MOLECULE
VAM
   48    49     1     0     0
SMALL
bcc


@<TRIPOS>ATOM
      1 O10         0.4080    0.4100   -0.0280 oh        1 VAM     -0.591800
      2 C12         1.7800    0.1040    0.0710 c3        1 VAM      0.131400
      3 C11         2.2270    0.0510    1.5370 c3        1 VAM      0.097100
      4 O11         1.5460   -1.0660    2.1090 os        1 VAM     -0.446600
      5 C7          1.8550   -1.2470    3.4850 c3        1 VAM      0.303900
      6 O7          1.1560   -2.4260    3.8170 os        1 VAM     -0.420600
      7 CM         -0.2590   -2.2800    3.8110 c3        1 VAM      0.121700
      8 C10         3.7560   -0.1130    1.6310 c3        1 VAM      0.126100
      9 O9          4.2870    1.1570    1.2400 os        1 VAM     -0.391600
     10 C9          4.1990   -0.4060    3.0750 c3        1 VAM      0.135100
     11 C8          3.3530   -1.5430    3.6740 c3        1 VAM      0.085100
     12 O8          3.6780   -1.5990    5.0510 oh        1 VAM     -0.602800
     13 O1          5.5560   -0.8160    3.0230 oh        1 VAM     -0.595800
     14 O6          6.4520    3.9090   -1.8800 oh        1 VAM     -0.604800
     15 C2          8.7730    1.1470    1.5360 c3        1 VAM      0.142400
     16 O2          8.6580   -0.0560    2.2630 oh        1 VAM     -0.599800
     17 C3          7.7060    1.2230    0.4350 c3        1 VAM      0.109100
     18 O3          6.4710    1.1460    1.1470 os        1 VAM     -0.426600
     19 C4          7.7730    2.5160   -0.3690 c3        1 VAM     -0.040600
     20 C5          6.5740    2.6140   -1.3120 c3        1 VAM      0.120100
     21 C6          5.2460    2.3880   -0.5600 c3        1 VAM      0.123100
     22 C70         5.3350    1.1080    0.2960 c3        1 VAM      0.346900
     23 O5          4.2000    2.1710   -1.4890 oh        1 VAM     -0.596800
     24 S10         9.2290    2.5650   -1.3960 sh        1 VAM     -0.374900
     25 H10        -0.0710   -0.2930    0.4290 ho        1 VAM      0.407000
     26 H121        2.0010   -0.8750   -0.4300 h1        1 VAM      0.069200
     27 H122        2.3200    0.9430   -0.4500 h1        1 VAM      0.069200
     28 H11         1.9150    0.9920    2.0700 h1        1 VAM      0.070700
     29 HA          4.1080   -0.9400    0.9580 h1        1 VAM      0.077700
     30 H7          1.5140   -0.3640    4.0940 h2        1 VAM      0.055700
     31 H8          3.6090   -2.5190    3.1750 h1        1 VAM      0.077700
     32 HMC1       -0.6360   -3.2950    4.0920 h1        1 VAM      0.042033
     33 HMC2       -0.6180   -1.9900    2.7950 h1        1 VAM      0.042033
     34 HMC3       -0.5730   -1.5170    4.5650 h1        1 VAM      0.042033
     35 H9          4.1030    0.5220    3.7030 h1        1 VAM      0.070700
     36 H70         5.3300    0.1830   -0.3420 h2        1 VAM      0.064700
     37 H1          5.8160   -1.0020    3.9350 ho        1 VAM      0.420000
     38 HB          3.1640   -2.3280    5.4240 ho        1 VAM      0.424000
     39 H6          7.2910    4.1010   -2.3230 ho        1 VAM      0.426000
     40 H2C1        8.6700    2.0270    2.2260 h1        1 VAM      0.052200
     41 H2C2        9.7970    1.1240    1.0780 h1        1 VAM      0.052200
     42 H2          7.7360   -0.1350    2.5520 ho        1 VAM      0.431000
     43 H3          7.7990    0.3350   -0.2520 h1        1 VAM      0.071700
     44 H4          7.7610    3.3910    0.3300 h1        1 VAM      0.096700
     45 HC         10.0780    3.1150   -0.5440 hs        1 VAM      0.215800
     46 HD          5.0180    3.2740    0.0920 h1        1 VAM      0.081700
     47 HE          4.1210    2.9860   -2.0040 ho        1 VAM      0.427000
     48 H5          6.6740    1.8500   -2.1350 h1        1 VAM      0.064700
@<TRIPOS>BOND
     1    1    2 1   
     2    1   25 1   
     3    2    3 1   
     4    2   26 1   
     5    2   27 1   
     6    3    4 1   
     7    3    8 1   
     8    3   28 1   
     9    4    5 1   
    10    5    6 1   
    11    5   11 1   
    12    5   30 1   
    13    6    7 1   
    14    7   32 1   
    15    7   33 1   
    16    7   34 1   
    17    8    9 1   
    18    8   10 1   
    19    8   29 1   
    20    9   22 1   
    21   10   11 1   
    22   10   13 1   
    23   10   35 1   
    24   11   12 1   
    25   11   31 1   
    26   12   38 1   
    27   13   37 1   
    28   14   20 1   
    29   14   39 1   
    30   15   16 1   
    31   15   17 1   
    32   15   40 1   
    33   15   41 1   
    34   16   42 1   
    35   17   18 1   
    36   17   19 1   
    37   17   43 1   
    38   18   22 1   
    39   19   20 1   
    40   19   24 1   
    41   19   44 1   
    42   20   21 1   
    43   20   48 1   
    44   21   22 1   
    45   21   23 1   
    46   21   46 1   
    47   22   36 1   
    48   23   47 1   
    49   24   45 1   
@<TRIPOS>SUBSTRUCTURE
     1 VAM         1 TEMP              0 ****  ****    0 ROOT
