@<TRIPOS>MOLECULE
VAP
   36    37     1     0     0
SMALL
bcc


@<TRIPOS>ATOM
      1 C1          0.0780    0.0740   -0.0040 ca        1 VAP     -0.156000
      2 C2          1.4830    0.0170   -0.0320 ca        1 VAP     -0.100800
      3 C3          2.2370   -0.0060    1.1780 ca        1 VAP      0.084600
      4 C4          1.5000   -0.0210    2.4080 ca        1 VAP      0.062100
      5 C5          0.1040    0.0330    2.4170 ca        1 VAP      0.099100
      6 C6         -0.6140    0.0920    1.1960 ca        1 VAP      0.077100
      7 C7          2.1790   -0.0290   -1.3030 cc        1 VAP      0.016600
      8 C8          3.5300   -0.0910   -1.3250 cd        1 VAP     -0.233200
      9 C9          4.3230   -0.0840   -0.0930 c         1 VAP      0.689700
     10 N10         3.6350   -0.0110    1.1360 n         1 VAP     -0.337000
     11 O11         5.5700   -0.1330   -0.1020 o         1 VAP     -0.636500
     12 C12         4.4160    0.1240    2.3420 c3        1 VAP      0.070300
     13 O13         2.1680   -0.0060    3.6230 os        1 VAP     -0.337900
     14 O14        -0.5510   -0.0930    3.6290 os        1 VAP     -0.331900
     15 O15        -1.9880    0.1810    1.3150 os        1 VAP     -0.319900
     16 C16         1.4040   -0.0150   -2.5680 c3        1 VAP     -0.068900
     17 C17        -2.7280    0.0730    0.1050 c3        1 VAP      0.111700
     18 C18        -1.2580    1.0830    4.0340 c3        1 VAP      0.118700
     19 C19         2.0620   -1.2290    4.3590 c3        1 VAP      0.111700
     20 H1         -0.4730    0.1010   -0.9560 ha        1 VAP      0.146000
     21 H8          4.1160   -0.1400   -2.2550 ha        1 VAP      0.165000
     22 H12         4.0640    1.0150    2.9290 h1        1 VAP      0.061367
     23 H12A        4.3090   -0.7980    2.9740 h1        1 VAP      0.061367
     24 H12B        5.5000    0.2610    2.0800 h1        1 VAP      0.061367
     25 H16         2.0830   -0.0620   -3.4550 hc        1 VAP      0.053367
     26 H16A        0.7130   -0.8940   -2.6100 hc        1 VAP      0.053367
     27 H16B        0.7970    0.9220   -2.6400 hc        1 VAP      0.053367
     28 H17        -2.5180    0.9450   -0.5620 h1        1 VAP      0.046033
     29 H17A       -3.7930    0.0900    0.4510 h1        1 VAP      0.046033
     30 H17B       -2.4990   -0.8860   -0.4190 h1        1 VAP      0.046033
     31 H18        -2.0450    1.3430    3.2850 h1        1 VAP      0.047700
     32 H18A       -0.5460    1.9320    4.1700 h1        1 VAP      0.047700
     33 H18B       -1.7160    0.7850    5.0090 h1        1 VAP      0.047700
     34 H19         2.5200   -2.0680    3.7810 h1        1 VAP      0.048367
     35 H19A        2.6450   -1.0210    5.2900 h1        1 VAP      0.048367
     36 H19B        0.9940   -1.4530    4.5960 h1        1 VAP      0.048367
@<TRIPOS>BOND
     1    1    2 ar  
     2    1    6 ar  
     3    1   20 1   
     4    2    3 ar  
     5    2    7 1   
     6    3    4 ar  
     7    3   10 1   
     8    4    5 ar  
     9    4   13 1   
    10    5    6 ar  
    11    5   14 1   
    12    6   15 1   
    13    7    8 2   
    14    7   16 1   
    15    8    9 1   
    16    8   21 1   
    17    9   10 1   
    18    9   11 2   
    19   10   12 1   
    20   12   22 1   
    21   12   23 1   
    22   12   24 1   
    23   13   19 1   
    24   14   18 1   
    25   15   17 1   
    26   16   25 1   
    27   16   26 1   
    28   16   27 1   
    29   17   28 1   
    30   17   29 1   
    31   17   30 1   
    32   18   31 1   
    33   18   32 1   
    34   18   33 1   
    35   19   34 1   
    36   19   35 1   
    37   19   36 1   
@<TRIPOS>SUBSTRUCTURE
     1 VAP         1 TEMP              0 ****  ****    0 ROOT
