@<TRIPOS>MOLECULE
VAP
   36    37     1     0     0
SMALL
bcc


@<TRIPOS>ATOM
      1 C1         -0.6780   -1.6640   -0.0010 ca        1 VAP     -0.156000
      2 C2          0.6220   -1.1290   -0.0100 ca        1 VAP     -0.100800
      3 C3          0.8320    0.2810   -0.0320 ca        1 VAP      0.084600
      4 C4         -0.3340    1.1160    0.0060 ca        1 VAP      0.062100
      5 C5         -1.6190    0.5660    0.0170 ca        1 VAP      0.099100
      6 C6         -1.7910   -0.8410    0.0030 ca        1 VAP      0.077100
      7 C7          1.7700   -2.0160    0.0140 cc        1 VAP      0.016600
      8 C8          3.0180   -1.4960    0.0140 cd        1 VAP     -0.232200
      9 C9          3.2520   -0.0510   -0.0400 c         1 VAP      0.689700
     10 N10         2.1280    0.8000   -0.0920 n         1 VAP     -0.337000
     11 O11         4.4000    0.4390   -0.0500 o         1 VAP     -0.636500
     12 C12         2.3570    2.2140   -0.2730 c3        1 VAP      0.070300
     13 O13        -0.2090    2.4960   -0.0510 os        1 VAP     -0.337900
     14 O14        -2.6980    1.4200    0.1630 os        1 VAP     -0.331900
     15 O15        -3.1020   -1.2810   -0.0230 os        1 VAP     -0.319900
     16 C16         1.5640   -3.4850    0.0470 c3        1 VAP     -0.068900
     17 C17        -3.2920   -2.6830    0.1330 c3        1 VAP      0.111700
     18 C18        -3.5530    1.4780   -0.9820 c3        1 VAP      0.118700
     19 C19        -0.5510    3.1610    1.1700 c3        1 VAP      0.111700
     20 H1         -0.8040   -2.7580    0.0060 ha        1 VAP      0.146000
     21 H8          3.9280   -2.1140    0.0430 ha        1 VAP      0.165000
     22 H12         2.0430    2.7740    0.6480 h1        1 VAP      0.061367
     23 H12A        3.4490    2.4020   -0.4580 h1        1 VAP      0.061367
     24 H12B        1.7660    2.5880   -1.1520 h1        1 VAP      0.061367
     25 H16         1.0000   -3.8170   -0.8600 hc        1 VAP      0.053367
     26 H16A        2.5420   -4.0260    0.0690 hc        1 VAP      0.053367
     27 H16B        0.9820   -3.7750    0.9580 hc        1 VAP      0.053367
     28 H17        -2.8690   -3.2350   -0.7410 h1        1 VAP      0.046033
     29 H17A       -2.8350   -3.0440    1.0850 h1        1 VAP      0.046033
     30 H17B       -4.4060   -2.7890    0.1640 h1        1 VAP      0.046033
     31 H18        -3.9850    0.4710   -1.1980 h1        1 VAP      0.047700
     32 H18A       -4.3510    2.1980   -0.6710 h1        1 VAP      0.047700
     33 H18B       -2.9890    1.8640   -1.8650 h1        1 VAP      0.047700
     34 H19        -0.3970    4.2420    0.9260 h1        1 VAP      0.048367
     35 H19A       -1.6160    2.9590    1.4400 h1        1 VAP      0.048367
     36 H19B        0.1320    2.8360    1.9910 h1        1 VAP      0.048367
@<TRIPOS>BOND
     1    1    2 ar  
     2    1    6 ar  
     3    1   20 1   
     4    2    3 ar  
     5    2    7 1   
     6    3    4 ar  
     7    3   10 1   
     8    4    5 ar  
     9    4   13 1   
    10    5    6 ar  
    11    5   14 1   
    12    6   15 1   
    13    7    8 2   
    14    7   16 1   
    15    8    9 1   
    16    8   21 1   
    17    9   10 1   
    18    9   11 2   
    19   10   12 1   
    20   12   22 1   
    21   12   23 1   
    22   12   24 1   
    23   13   19 1   
    24   14   18 1   
    25   15   17 1   
    26   16   25 1   
    27   16   26 1   
    28   16   27 1   
    29   17   28 1   
    30   17   29 1   
    31   17   30 1   
    32   18   31 1   
    33   18   32 1   
    34   18   33 1   
    35   19   34 1   
    36   19   35 1   
    37   19   36 1   
@<TRIPOS>SUBSTRUCTURE
     1 VAP         1 TEMP              0 ****  ****    0 ROOT
