@<TRIPOS>MOLECULE
VAP
   36    37     1     0     0
SMALL
bcc


@<TRIPOS>ATOM
      1 C1          0.0790    0.0740   -0.0040 ca        1 VAP     -0.156000
      2 C2          1.4830    0.0160   -0.0320 ca        1 VAP     -0.100800
      3 C3          2.2370   -0.0070    1.1780 ca        1 VAP      0.084600
      4 C4          1.5000   -0.0190    2.4080 ca        1 VAP      0.062100
      5 C5          0.1040    0.0360    2.4160 ca        1 VAP      0.099100
      6 C6         -0.6140    0.0940    1.1950 ca        1 VAP      0.077100
      7 C7          2.1800   -0.0330   -1.3030 cc        1 VAP      0.016600
      8 C8          3.5310   -0.0970   -1.3230 cd        1 VAP     -0.232200
      9 C9          4.3230   -0.0890   -0.0920 c         1 VAP      0.689700
     10 N10         3.6350   -0.0140    1.1370 n         1 VAP     -0.337000
     11 O11         5.5710   -0.1390   -0.1000 o         1 VAP     -0.636500
     12 C12         4.4150    0.1220    2.3440 c3        1 VAP      0.070300
     13 O13         2.1670   -0.0030    3.6240 os        1 VAP     -0.337900
     14 O14        -0.5530   -0.0870    3.6280 os        1 VAP     -0.331900
     15 O15        -1.9880    0.1850    1.3140 os        1 VAP     -0.319900
     16 C16         1.4060   -0.0200   -2.5680 c3        1 VAP     -0.068900
     17 C17        -2.7280    0.0730    0.1030 c3        1 VAP      0.111700
     18 C18        -1.2580    1.0900    4.0310 c3        1 VAP      0.118700
     19 C19         2.0590   -1.2250    4.3610 c3        1 VAP      0.111700
     20 H1         -0.4720    0.1000   -0.9570 ha        1 VAP      0.146000
     21 H8          4.1170   -0.1480   -2.2530 ha        1 VAP      0.165000
     22 H12         4.0650    1.0140    2.9290 h1        1 VAP      0.061367
     23 H12A        5.5000    0.2570    2.0820 h1        1 VAP      0.061367
     24 H12B        4.3070   -0.7990    2.9770 h1        1 VAP      0.061367
     25 H16         0.8000    0.9180   -2.6420 hc        1 VAP      0.053367
     26 H16A        0.7140   -0.8980   -2.6090 hc        1 VAP      0.053367
     27 H16B        2.0850   -0.0680   -3.4550 hc        1 VAP      0.053367
     28 H17        -2.5180    0.9430   -0.5660 h1        1 VAP      0.046033
     29 H17A       -2.4980   -0.8870   -0.4180 h1        1 VAP      0.046033
     30 H17B       -3.7930    0.0910    0.4490 h1        1 VAP      0.046033
     31 H18        -0.5450    1.9380    4.1660 h1        1 VAP      0.047700
     32 H18A       -2.0440    1.3500    3.2820 h1        1 VAP      0.047700
     33 H18B       -1.7170    0.7940    5.0070 h1        1 VAP      0.047700
     34 H19         2.5170   -2.0660    3.7850 h1        1 VAP      0.048367
     35 H19A        0.9910   -1.4470    4.5990 h1        1 VAP      0.048367
     36 H19B        2.6420   -1.0160    5.2930 h1        1 VAP      0.048367
@<TRIPOS>BOND
     1    1    2 ar  
     2    1    6 ar  
     3    1   20 1   
     4    2    3 ar  
     5    2    7 1   
     6    3    4 ar  
     7    3   10 1   
     8    4    5 ar  
     9    4   13 1   
    10    5    6 ar  
    11    5   14 1   
    12    6   15 1   
    13    7    8 2   
    14    7   16 1   
    15    8    9 1   
    16    8   21 1   
    17    9   10 1   
    18    9   11 2   
    19   10   12 1   
    20   12   22 1   
    21   12   23 1   
    22   12   24 1   
    23   13   19 1   
    24   14   18 1   
    25   15   17 1   
    26   16   25 1   
    27   16   26 1   
    28   16   27 1   
    29   17   28 1   
    30   17   29 1   
    31   17   30 1   
    32   18   31 1   
    33   18   32 1   
    34   18   33 1   
    35   19   34 1   
    36   19   35 1   
    37   19   36 1   
@<TRIPOS>SUBSTRUCTURE
     1 VAP         1 TEMP              0 ****  ****    0 ROOT
