@<TRIPOS>MOLECULE
VAP
   36    37     1     0     0
SMALL
bcc


@<TRIPOS>ATOM
      1 C1          0.0810    0.0740   -0.0070 ca        1 VAP     -0.156000
      2 C2          1.4860    0.0140   -0.0310 ca        1 VAP     -0.100800
      3 C3          2.2380   -0.0090    1.1800 ca        1 VAP      0.084600
      4 C4          1.4970   -0.0180    2.4080 ca        1 VAP      0.062100
      5 C5          0.1010    0.0390    2.4140 ca        1 VAP      0.099100
      6 C6         -0.6130    0.0970    1.1910 ca        1 VAP      0.077100
      7 C7          2.1860   -0.0380   -1.3010 cc        1 VAP      0.016600
      8 C8          3.5360   -0.1040   -1.3180 cd        1 VAP     -0.232200
      9 C9          4.3260   -0.0960   -0.0850 c         1 VAP      0.689700
     10 N10         3.6350   -0.0180    1.1420 n         1 VAP     -0.337000
     11 O11         5.5730   -0.1480   -0.0900 o         1 VAP     -0.636500
     12 C12         4.4130    0.1180    2.3500 c3        1 VAP      0.070300
     13 O13         2.1620   -0.0020    3.6260 os        1 VAP     -0.337900
     14 O14        -0.5580   -0.0810    3.6250 os        1 VAP     -0.331900
     15 O15        -1.9880    0.1900    1.3070 os        1 VAP     -0.319900
     16 C16         1.4140   -0.0240   -2.5670 c3        1 VAP     -0.068900
     17 C17        -2.7250    0.0780    0.0950 c3        1 VAP      0.111700
     18 C18        -1.2620    1.0970    4.0240 c3        1 VAP      0.118700
     19 C19         2.0500   -1.2230    4.3650 c3        1 VAP      0.111700
     20 H1         -0.4670    0.1000   -0.9610 ha        1 VAP      0.146000
     21 H8          4.1240   -0.1560   -2.2470 ha        1 VAP      0.165000
     22 H12         4.0630    1.0110    2.9330 h1        1 VAP      0.061367
     23 H12A        5.4990    0.2510    2.0910 h1        1 VAP      0.061367
     24 H12B        4.3020   -0.8030    2.9840 h1        1 VAP      0.061367
     25 H16         0.8090    0.9140   -2.6430 hc        1 VAP      0.053367
     26 H16A        0.7200   -0.9010   -2.6090 hc        1 VAP      0.053367
     27 H16B        2.0950   -0.0750   -3.4530 hc        1 VAP      0.053367
     28 H17        -2.5130    0.9460   -0.5750 h1        1 VAP      0.046033
     29 H17A       -2.4960   -0.8840   -0.4240 h1        1 VAP      0.046033
     30 H17B       -3.7910    0.0970    0.4390 h1        1 VAP      0.046033
     31 H18        -0.5480    1.9450    4.1600 h1        1 VAP      0.047700
     32 H18A       -2.0460    1.3570    3.2730 h1        1 VAP      0.047700
     33 H18B       -1.7240    0.8030    5.0000 h1        1 VAP      0.047700
     34 H19         2.5080   -2.0640    3.7910 h1        1 VAP      0.048367
     35 H19A        0.9810   -1.4420    4.6000 h1        1 VAP      0.048367
     36 H19B        2.6320   -1.0140    5.2970 h1        1 VAP      0.048367
@<TRIPOS>BOND
     1    1    2 ar  
     2    1    6 ar  
     3    1   20 1   
     4    2    3 ar  
     5    2    7 1   
     6    3    4 ar  
     7    3   10 1   
     8    4    5 ar  
     9    4   13 1   
    10    5    6 ar  
    11    5   14 1   
    12    6   15 1   
    13    7    8 2   
    14    7   16 1   
    15    8    9 1   
    16    8   21 1   
    17    9   10 1   
    18    9   11 2   
    19   10   12 1   
    20   12   22 1   
    21   12   23 1   
    22   12   24 1   
    23   13   19 1   
    24   14   18 1   
    25   15   17 1   
    26   16   25 1   
    27   16   26 1   
    28   16   27 1   
    29   17   28 1   
    30   17   29 1   
    31   17   30 1   
    32   18   31 1   
    33   18   32 1   
    34   18   33 1   
    35   19   34 1   
    36   19   35 1   
    37   19   36 1   
@<TRIPOS>SUBSTRUCTURE
     1 VAP         1 TEMP              0 ****  ****    0 ROOT
