@<TRIPOS>MOLECULE
VAP
   36    33     1     0     0
SMALL
bcc


@<TRIPOS>ATOM
      1 C1         -1.0340    0.0690   -1.3140 c1        1 VAP     -0.156000
      2 C2          0.3480    0.0410   -1.3070 c1        1 VAP     -0.089000
      3 C3          1.0580    0.0030   -0.0680 c1        1 VAP      0.092000
      4 C4          0.3520   -0.0040    1.1410 c1        1 VAP      0.035500
      5 C5         -1.0390    0.0240    1.1290 c1        1 VAP      0.035500
      6 C6         -1.7420    0.0620   -0.1120 c1        1 VAP      0.032000
      7 C7          1.1050    0.0340   -2.6170 c2        1 VAP      0.009000
      8 C8          2.5550    0.0220   -2.6150 c1        1 VAP     -0.213000
      9 C9          3.2860   -0.0110   -1.3370 c1        1 VAP      0.328000
     10 N10         2.5500   -0.0220   -0.0670 n3        1 VAP     -0.240000
     11 O11         4.5040    0.0650   -1.3310 o         1 VAP     -0.361000
     12 C12         3.2640    0.0970    1.1530 c3        1 VAP     -0.085000
     13 O13         0.4970   -0.1550    2.5280 os        1 VAP     -0.218000
     14 O14        -2.0230   -0.0890    2.1720 os        1 VAP     -0.218000
     15 O15        -3.0990   -0.3280    0.1570 os        1 VAP     -0.203000
     16 C16         0.3520   -0.0150   -3.9240 c3        1 VAP     -0.191000
     17 C17        -4.0470    0.2030   -0.7780 c3        1 VAP     -0.078000
     18 C18        -2.2570    1.1570    2.8860 c3        1 VAP     -0.074500
     19 C19         0.6520   -1.4980    2.9520 c3        1 VAP     -0.074500
     20 H1         -1.5180    0.0950   -2.1680 ha        1 VAP      0.146000
     21 H8          3.0300    0.0280   -3.4320 ha        1 VAP      0.165000
     22 H12         4.2130    0.3490    0.9550 h1        1 VAP      0.100667
     23 H12A        2.8440    0.8050    1.7220 h1        1 VAP      0.100667
     24 H12B        3.2450   -0.7710    1.6350 h1        1 VAP      0.100667
     25 H16         0.9920   -0.0930   -4.6680 hc        1 VAP      0.092667
     26 H16A       -0.2510   -0.7930   -3.9270 hc        1 VAP      0.092667
     27 H16B       -0.2010    0.8500   -4.0350 hc        1 VAP      0.092667
     28 H17        -3.9770   -0.2920   -1.6350 h1        1 VAP      0.085333
     29 H17A       -3.8490    1.1850   -0.9360 h1        1 VAP      0.085333
     30 H17B       -4.9630    0.1050   -0.4140 h1        1 VAP      0.085333
     31 H18        -1.8700    1.8940    2.3800 h1        1 VAP      0.087333
     32 H18A       -3.2360    1.3050    2.9900 h1        1 VAP      0.087333
     33 H18B       -1.8570    1.1140    3.7290 h1        1 VAP      0.087333
     34 H19         1.5080   -1.5790    3.5220 h1        1 VAP      0.087333
     35 H19A        0.7250   -2.0980    2.1500 h1        1 VAP      0.087333
     36 H19B       -0.1180   -1.7590    3.4850 h1        1 VAP      0.087333
@<TRIPOS>BOND
     1    1    6 1   
     2    1   20 1   
     3    2    3 1   
     4    2    7 1   
     5    3   10 1   
     6    4    5 1   
     7    4   13 1   
     8    5   14 1   
     9    6   15 1   
    10    7    8 1   
    11    7   16 1   
    12    8   21 1   
    13    9   10 1   
    14    9   11 1   
    15   10   12 1   
    16   12   22 1   
    17   12   23 1   
    18   12   24 1   
    19   13   19 1   
    20   14   18 1   
    21   15   17 1   
    22   16   25 1   
    23   16   26 1   
    24   16   27 1   
    25   17   28 1   
    26   17   29 1   
    27   17   30 1   
    28   18   31 1   
    29   18   32 1   
    30   18   33 1   
    31   19   34 1   
    32   19   35 1   
    33   19   36 1   
@<TRIPOS>SUBSTRUCTURE
     1 VAP         1 TEMP              0 ****  ****    0 ROOT
