@<TRIPOS>MOLECULE
VAR
   33    36     1     0     0
SMALL
bcc


@<TRIPOS>ATOM
      1 O1          1.3810    2.8890    0.2410 oh        1 VAR     -0.498100
      2 C1          0.0770    2.4970    0.1730 ca        1 VAR      0.213100
      3 C2         -0.8730    3.5300    0.1820 ca        1 VAR     -0.299300
      4 C3         -2.2440    3.2130    0.1280 ca        1 VAR      0.434200
      5 N1         -2.7440    1.9720    0.0600 nb        1 VAR     -0.717000
      6 C4         -1.8140    0.9760    0.0530 ca        1 VAR      0.435800
      7 N2         -2.0650   -0.4140   -0.0080 na        1 VAR     -0.270700
      8 C5         -3.2730   -1.1510   -0.1000 cc        1 VAR      0.823400
      9 N3         -4.4800   -0.4840   -0.0550 nh        1 VAR     -0.963500
     10 N4         -3.2590   -2.5100   -0.2020 nd        1 VAR     -0.791000
     11 C6         -2.0490   -3.1480   -0.2030 cd        1 VAR      0.464200
     12 C7         -0.8280   -2.5210   -0.1000 cc        1 VAR     -0.321300
     13 C8         -0.8110   -1.0950    0.0140 cc        1 VAR      0.082700
     14 C9          0.2310   -0.1530    0.1100 cd        1 VAR     -0.251000
     15 C10        -0.3710    1.1610    0.1140 ca        1 VAR     -0.189100
     16 C11         1.6360   -0.5100    0.1980 ca        1 VAR      0.589100
     17 C14         2.0180   -1.6460    0.9530 ca        1 VAR     -0.425600
     18 C13         3.3820   -1.9780    0.9680 ca        1 VAR      0.470200
     19 N7          4.3260   -1.2760    0.3270 nb        1 VAR     -0.753000
     20 C12         3.8800   -0.1440   -0.3550 ca        1 VAR      0.875900
     21 N5          2.5530    0.2470   -0.4560 nb        1 VAR     -0.798000
     22 N6          4.8430    0.6900   -0.9310 nh        1 VAR     -0.927500
     23 HO1         1.9550    2.1260    0.0570 ho        1 VAR      0.462000
     24 H2         -0.5400    4.5740    0.2320 ha        1 VAR      0.162000
     25 H3         -2.9980    4.0220    0.1360 h4        1 VAR      0.025100
     26 HN3        -4.5270    0.5060   -0.0830 hn        1 VAR      0.464800
     27 HN3A       -5.3080   -1.0100   -0.1990 hn        1 VAR      0.464800
     28 H6         -2.1320   -4.2470   -0.2990 h4        1 VAR      0.030100
     29 H7          0.1230   -3.0630   -0.1240 ha        1 VAR      0.165000
     30 H14         1.2810   -2.2280    1.5160 ha        1 VAR      0.160000
     31 H13         3.7460   -2.8610    1.5260 h4        1 VAR      0.026100
     32 HN6         5.7440    0.2940   -1.0740 hn        1 VAR      0.427800
     33 HN6A        4.5270    1.3230   -1.6290 hn        1 VAR      0.427800
@<TRIPOS>BOND
     1    1    2 1   
     2    1   23 1   
     3    2    3 ar  
     4    2   15 ar  
     5    3    4 ar  
     6    3   24 1   
     7    4    5 ar  
     8    4   25 1   
     9    5    6 ar  
    10    6    7 1   
    11    6   15 ar  
    12    7    8 1   
    13    7   13 1   
    14    8    9 1   
    15    8   10 2   
    16    9   26 1   
    17    9   27 1   
    18   10   11 1   
    19   11   12 2   
    20   11   28 1   
    21   12   13 1   
    22   12   29 1   
    23   13   14 2   
    24   14   15 1   
    25   14   16 1   
    26   16   17 ar  
    27   16   21 ar  
    28   17   18 ar  
    29   17   30 1   
    30   18   19 ar  
    31   18   31 1   
    32   19   20 ar  
    33   20   21 ar  
    34   20   22 1   
    35   22   32 1   
    36   22   33 1   
@<TRIPOS>SUBSTRUCTURE
     1 VAR         1 TEMP              0 ****  ****    0 ROOT
