@<TRIPOS>MOLECULE
VAR
   33    36     1     0     0
SMALL
bcc


@<TRIPOS>ATOM
      1 O1         -0.0190    0.2230    0.0330 oh        1 VAR     -0.461100
      2 C1          1.3450    0.1230    0.0480 ca        1 VAR      0.207100
      3 C2          2.0910    0.1210    1.2290 ca        1 VAR     -0.357300
      4 C3          3.5020    0.0710    1.1590 ca        1 VAR      0.441200
      5 N1          4.2160    0.0290    0.0290 nb        1 VAR     -0.708000
      6 C4          3.4780    0.0210   -1.1210 ca        1 VAR      0.426800
      7 N2          3.9590   -0.0060   -2.4470 na        1 VAR     -0.267700
      8 C5          5.2730   -0.0680   -2.9810 cc        1 VAR      0.815400
      9 N3          6.3500   -0.1640   -2.1170 nh        1 VAR     -0.961500
     10 N4          5.4840   -0.0730   -4.3230 nd        1 VAR     -0.788000
     11 C6          4.3960   -0.0580   -5.1570 cd        1 VAR      0.453200
     12 C7          3.0870   -0.0250   -4.7380 cc        1 VAR     -0.304300
     13 C8          2.8340    0.0010   -3.3300 cc        1 VAR      0.060700
     14 C9          1.6500    0.0290   -2.5750 cd        1 VAR     -0.218000
     15 C10         2.0240    0.0510   -1.1860 ca        1 VAR     -0.143100
     16 C11         0.3060    0.0130   -3.1320 ca        1 VAR      0.580100
     17 C14        -0.0260    0.9390   -4.1510 ca        1 VAR     -0.419600
     18 C13        -1.3290    0.8770   -4.6680 ca        1 VAR      0.459200
     19 N7         -2.2540    0.0030   -4.2470 nb        1 VAR     -0.753000
     20 C12        -1.8540   -0.8610   -3.2300 ca        1 VAR      0.859900
     21 N5         -0.5820   -0.8990   -2.6720 nb        1 VAR     -0.730000
     22 N6         -2.8230   -1.7160   -2.6860 nh        1 VAR     -0.923500
     23 HO1        -0.3310    0.1910    0.9510 ho        1 VAR      0.423000
     24 H2          1.5970    0.1630    2.2080 ha        1 VAR      0.146000
     25 H3          4.0980    0.0700    2.0900 h4        1 VAR      0.024100
     26 HN3         6.2390   -0.0060   -1.1440 hn        1 VAR      0.459800
     27 HN3A        7.2590   -0.0940   -2.5090 hn        1 VAR      0.459800
     28 H6          4.6660   -0.0750   -6.2290 h4        1 VAR      0.029100
     29 H7          2.2320   -0.0200   -5.4240 ha        1 VAR      0.165000
     30 H14         0.7030    1.6730   -4.5080 ha        1 VAR      0.155000
     31 H13        -1.6560    1.5630   -5.4710 h4        1 VAR      0.022100
     32 HN6        -2.4800   -2.4910   -2.1660 hn        1 VAR      0.421300
     33 HN6A       -3.6180   -1.8940   -3.2560 hn        1 VAR      0.421300
@<TRIPOS>BOND
     1    1    2 1   
     2    1   23 1   
     3    2    3 ar  
     4    2   15 ar  
     5    3    4 ar  
     6    3   24 1   
     7    4    5 ar  
     8    4   25 1   
     9    5    6 ar  
    10    6    7 1   
    11    6   15 ar  
    12    7    8 1   
    13    7   13 1   
    14    8    9 1   
    15    8   10 2   
    16    9   26 1   
    17    9   27 1   
    18   10   11 1   
    19   11   12 2   
    20   11   28 1   
    21   12   13 1   
    22   12   29 1   
    23   13   14 2   
    24   14   15 1   
    25   14   16 1   
    26   16   17 ar  
    27   16   21 ar  
    28   17   18 ar  
    29   17   30 1   
    30   18   19 ar  
    31   18   31 1   
    32   19   20 ar  
    33   20   21 ar  
    34   20   22 1   
    35   22   32 1   
    36   22   33 1   
@<TRIPOS>SUBSTRUCTURE
     1 VAR         1 TEMP              0 ****  ****    0 ROOT
