@<TRIPOS>MOLECULE
VAR
   35    38     1     0     0
SMALL
bcc


@<TRIPOS>ATOM
      1 O1         -0.0050    0.1820   -0.0070 oh        1 VAR     -0.486100
      2 C1          1.3590    0.1340    0.0080 ca        1 VAR      0.226100
      3 C2          2.1190    0.1680    1.1790 ca        1 VAR     -0.321300
      4 C3          3.5340    0.1220    1.1060 ca        1 VAR      0.499200
      5 N1          4.2370    0.0500   -0.0300 nb        1 VAR     -0.750000
      6 C4          3.4790    0.0180   -1.1660 ca        1 VAR      0.426800
      7 N2          3.9570   -0.0390   -2.4880 na        1 VAR     -0.248700
      8 C5          5.2530   -0.0950   -3.0160 cc        1 VAR      0.606400
      9 N3          6.3910   -0.0830   -2.0540 n4        1 VAR     -0.819300
     10 N4          5.5170   -0.1570   -4.3200 nd        1 VAR     -0.612000
     11 C6          4.4450   -0.1660   -5.1940 cd        1 VAR      0.409200
     12 C7          3.1300   -0.1140   -4.7900 cc        1 VAR     -0.166300
     13 C8          2.8370   -0.0460   -3.3890 cc        1 VAR      0.023700
     14 C9          1.6580    0.0070   -2.6270 cd        1 VAR     -0.177000
     15 C10         2.0310    0.0470   -1.2350 ca        1 VAR     -0.151100
     16 C11         0.3000    0.0250   -3.1520 ca        1 VAR      0.558100
     17 C14        -0.1150    1.0710   -4.0110 ca        1 VAR     -0.296600
     18 C13        -1.4500    1.0610   -4.4640 ca        1 VAR      0.472200
     19 N7         -2.3280    0.1020   -4.1140 nb        1 VAR     -0.648000
     20 C12        -1.8240   -0.8700   -3.2820 ca        1 VAR      0.697900
     21 N5         -0.5560   -0.9710   -2.7790 nb        1 VAR     -0.644000
     22 N6         -2.7840   -1.9420   -2.8810 n4        1 VAR     -0.815300
     23 HO1        -0.3190    0.3030    0.9070 ho        1 VAR      0.456000
     24 H2          1.6360    0.2360    2.1660 ha        1 VAR      0.183000
     25 H3          4.1350    0.1480    2.0390 h4        1 VAR      0.064100
     26 HN3         6.3190   -0.8950   -1.4230 hn        1 VAR      0.495800
     27 HN3A        6.3590    0.7820   -1.4930 hn        1 VAR      0.495800
     28 H6          4.7500   -0.2210   -6.2600 h4        1 VAR      0.088100
     29 H7          2.2970   -0.1250   -5.5090 ha        1 VAR      0.190000
     30 H14         0.5750    1.8770   -4.3010 ha        1 VAR      0.196000
     31 H13        -1.8500    1.8530   -5.1340 h4        1 VAR      0.088100
     32 HN6        -3.5690   -1.5140   -2.3720 hn        1 VAR      0.486800
     33 HN6A       -2.3170   -2.6330   -2.2780 hn        1 VAR      0.486800
     34 H33         7.2830   -0.1260   -2.5720 hn        1 VAR      0.495800
     35 H63        -3.1420   -2.4060   -3.7270 hn        1 VAR      0.486800
@<TRIPOS>BOND
     1    1    2 1   
     2    1   23 1   
     3    2    3 ar  
     4    2   15 ar  
     5    3    4 ar  
     6    3   24 1   
     7    4    5 ar  
     8    4   25 1   
     9    5    6 ar  
    10    6    7 1   
    11    6   15 ar  
    12    7    8 1   
    13    7   13 1   
    14    8    9 1   
    15    8   10 2   
    16    9   26 1   
    17    9   27 1   
    18    9   34 1   
    19   10   11 1   
    20   11   12 2   
    21   11   28 1   
    22   12   13 1   
    23   12   29 1   
    24   13   14 2   
    25   14   15 1   
    26   14   16 1   
    27   16   17 ar  
    28   16   21 ar  
    29   17   18 ar  
    30   17   30 1   
    31   18   19 ar  
    32   18   31 1   
    33   19   20 ar  
    34   20   21 ar  
    35   20   22 1   
    36   22   32 1   
    37   22   33 1   
    38   22   35 1   
@<TRIPOS>SUBSTRUCTURE
     1 VAR         1 TEMP              0 ****  ****    0 ROOT
