@<TRIPOS>MOLECULE
VAR
   33    36     1     0     0
SMALL
bcc


@<TRIPOS>ATOM
      1 O1         -0.0240    0.1960    0.0270 oh        1 VAR     -0.466100
      2 C1          1.3420    0.1120    0.0400 ca        1 VAR      0.205100
      3 C2          2.0860    0.1190    1.2230 ca        1 VAR     -0.355300
      4 C3          3.4970    0.0790    1.1560 ca        1 VAR      0.440200
      5 N1          4.2130    0.0400    0.0280 nb        1 VAR     -0.706000
      6 C4          3.4780    0.0230   -1.1240 ca        1 VAR      0.425800
      7 N2          3.9620   -0.0030   -2.4490 na        1 VAR     -0.267700
      8 C5          5.2780   -0.0580   -2.9790 cc        1 VAR      0.816400
      9 N3          6.3530   -0.1410   -2.1130 nv        1 VAR     -0.963500
     10 N4          5.4920   -0.0660   -4.3210 nd        1 VAR     -0.787000
     11 C6          4.4060   -0.0610   -5.1570 cd        1 VAR      0.454200
     12 C7          3.0960   -0.0340   -4.7410 cc        1 VAR     -0.303300
     13 C8          2.8400   -0.0050   -3.3340 cc        1 VAR      0.062700
     14 C9          1.6530    0.0180   -2.5820 cd        1 VAR     -0.218000
     15 C10         2.0230    0.0430   -1.1920 ca        1 VAR     -0.141100
     16 C11         0.3120   -0.0050   -3.1460 ca        1 VAR      0.579100
     17 C14        -0.0220    0.9280   -4.1580 ca        1 VAR     -0.419600
     18 C13        -1.3340    0.8850   -4.6550 ca        1 VAR      0.459200
     19 N7         -2.2590    0.0100   -4.2350 nb        1 VAR     -0.753000
     20 C12        -1.8390   -0.8970   -3.2650 ca        1 VAR      0.859900
     21 N5         -0.5740   -0.9200   -2.6890 nb        1 VAR     -0.729000
     22 N6         -2.7360   -1.9060   -2.8890 nv        1 VAR     -0.923500
     23 HO1        -0.3320    0.1800    0.9470 ho        1 VAR      0.421000
     24 H2          1.5900    0.1590    2.2010 ha        1 VAR      0.146000
     25 H3          4.0910    0.0840    2.0890 h4        1 VAR      0.024100
     26 HN3         7.2630   -0.0750   -2.5020 hn        1 VAR      0.460800
     27 HN3A        6.2390    0.0090   -1.1400 hn        1 VAR      0.460800
     28 H6          4.6790   -0.0800   -6.2290 h4        1 VAR      0.030100
     29 H7          2.2420   -0.0380   -5.4290 ha        1 VAR      0.166000
     30 H14         0.7080    1.6590   -4.5170 ha        1 VAR      0.155000
     31 H13        -1.6720    1.5970   -5.4310 h4        1 VAR      0.022100
     32 HN6        -2.5390   -2.3700   -2.0320 hn        1 VAR      0.421800
     33 HN6A       -3.6960   -1.7300   -3.0760 hn        1 VAR      0.421800
@<TRIPOS>BOND
     1    1    2 1   
     2    1   23 1   
     3    2    3 ar  
     4    2   15 ar  
     5    3    4 ar  
     6    3   24 1   
     7    4    5 ar  
     8    4   25 1   
     9    5    6 ar  
    10    6    7 1   
    11    6   15 ar  
    12    7    8 1   
    13    7   13 1   
    14    8    9 1   
    15    8   10 2   
    16    9   26 1   
    17    9   27 1   
    18   10   11 1   
    19   11   12 2   
    20   11   28 1   
    21   12   13 1   
    22   12   29 1   
    23   13   14 2   
    24   14   15 1   
    25   14   16 1   
    26   16   17 ar  
    27   16   21 ar  
    28   17   18 ar  
    29   17   30 1   
    30   18   19 ar  
    31   18   31 1   
    32   19   20 ar  
    33   20   21 ar  
    34   20   22 1   
    35   22   32 1   
    36   22   33 1   
@<TRIPOS>SUBSTRUCTURE
     1 VAR         1 TEMP              0 ****  ****    0 ROOT
