@<TRIPOS>MOLECULE
VAS
   47    47     1     0     0
SMALL
bcc


@<TRIPOS>ATOM
      1 C           3.0720   -1.1580   -0.7240 c         1 VAS      0.909600
      2 N          -0.9780    2.2330   -0.2610 n3        1 VAS     -0.893800
      3 O           3.3950   -2.1100    0.0380 o         1 VAS     -0.845300
      4 C1          0.6040    0.2800   -0.5990 c3        1 VAS      0.114100
      5 O1          0.7970    0.8070   -1.9020 oh        1 VAS     -0.656800
      6 C2         -0.7680    0.8040   -0.0840 c3        1 VAS      0.157500
      7 C3         -1.8670   -0.0410   -0.7430 c3        1 VAS     -0.070400
      8 C4         -3.2640    0.2320   -0.2110 c3        1 VAS     -0.060700
      9 C5         -4.2950   -0.4070   -1.1350 c3        1 VAS     -0.074900
     10 C6         -5.7060   -0.1910   -0.6280 c3        1 VAS     -0.073900
     11 C7         -5.8680   -0.7090    0.7870 c3        1 VAS     -0.074400
     12 C8         -4.8440   -0.0870    1.7140 c3        1 VAS     -0.073900
     13 C9         -3.4330   -0.3040    1.2040 c3        1 VAS     -0.074900
     14 C10         1.7340    0.6850    0.3440 c3        1 VAS     -0.080400
     15 C11         3.1010    0.2980   -0.1940 c3        1 VAS     -0.185700
     16 C12         4.1890    0.4690    0.8610 c3        1 VAS     -0.052700
     17 C13         5.5530    0.2360    0.2420 c3        1 VAS     -0.084100
     18 C14         4.1460    1.8330    1.5190 c3        1 VAS     -0.084100
     19 OXT         2.7020   -1.3170   -1.9280 o         1 VAS     -0.845300
     20 H1          0.5760   -0.8470   -0.6540 h1        1 VAS      0.071700
     21 HO1         1.5170    0.2800   -2.2980 ho        1 VAS      0.460000
     22 H2A        -0.7890    0.6110    1.0300 h1        1 VAS      0.047700
     23 H3         -1.8440    0.1430   -1.8500 hc        1 VAS      0.049700
     24 H3A        -1.6170   -1.1230   -0.5790 hc        1 VAS      0.049700
     25 H4         -3.4490    1.3420   -0.1930 hc        1 VAS      0.062700
     26 H5         -4.1970    0.0320   -2.1620 hc        1 VAS      0.040450
     27 H5A        -4.0890   -1.5060   -1.2180 hc        1 VAS      0.040450
     28 H6         -5.9470    0.9040   -0.6530 hc        1 VAS      0.030950
     29 H6A        -6.4330   -0.7120   -1.3040 hc        1 VAS      0.030950
     30 H7         -6.9010   -0.4800    1.1560 hc        1 VAS      0.029700
     31 H7A        -5.7470   -1.8240    0.7910 hc        1 VAS      0.029700
     32 H8         -5.0420    1.0130    1.8040 hc        1 VAS      0.030950
     33 H8A        -4.9450   -0.5330    2.7370 hc        1 VAS      0.030950
     34 H9         -3.1920   -1.3990    1.2210 hc        1 VAS      0.040450
     35 H9A        -2.7090    0.2130    1.8860 hc        1 VAS      0.040450
     36 H10         1.7080    1.7930    0.5130 hc        1 VAS      0.023200
     37 H10A        1.5660    0.1830    1.3330 hc        1 VAS      0.023200
     38 H11         3.3360    0.9650   -1.0690 hc        1 VAS      0.039700
     39 H12         4.0220   -0.3240    1.6460 hc        1 VAS      0.067700
     40 H13         5.7710    1.0060   -0.5370 hc        1 VAS      0.021033
     41 H13A        6.3500    0.2860    1.0220 hc        1 VAS      0.021033
     42 H13B        5.5720   -0.7760   -0.2330 hc        1 VAS      0.021033
     43 H14         4.1370    2.6410    0.7490 hc        1 VAS      0.021033
     44 H14A        3.2320    1.9380    2.1510 hc        1 VAS      0.021033
     45 H14B        5.0400    1.9790    2.1720 hc        1 VAS      0.021033
     46 H          -0.1640    2.7200    0.0680 hn        1 VAS      0.341300
     47 H2         -1.0680    2.4300   -1.2420 hn        1 VAS      0.341300
@<TRIPOS>BOND
     1    1    3 1   
     2    1   15 1   
     3    1   19 1   
     4    2    6 1   
     5    2   46 1   
     6    2   47 1   
     7    4    5 1   
     8    4    6 1   
     9    4   14 1   
    10    4   20 1   
    11    5   21 1   
    12    6    7 1   
    13    6   22 1   
    14    7    8 1   
    15    7   23 1   
    16    7   24 1   
    17    8    9 1   
    18    8   13 1   
    19    8   25 1   
    20    9   10 1   
    21    9   26 1   
    22    9   27 1   
    23   10   11 1   
    24   10   28 1   
    25   10   29 1   
    26   11   12 1   
    27   11   30 1   
    28   11   31 1   
    29   12   13 1   
    30   12   32 1   
    31   12   33 1   
    32   13   34 1   
    33   13   35 1   
    34   14   15 1   
    35   14   36 1   
    36   14   37 1   
    37   15   16 1   
    38   15   38 1   
    39   16   17 1   
    40   16   18 1   
    41   16   39 1   
    42   17   40 1   
    43   17   41 1   
    44   17   42 1   
    45   18   43 1   
    46   18   44 1   
    47   18   45 1   
@<TRIPOS>SUBSTRUCTURE
     1 VAS         1 TEMP              0 ****  ****    0 ROOT
