@<TRIPOS>MOLECULE
VAU
   30    30     1     0     0
SMALL
bcc


@<TRIPOS>ATOM
      1 CAJ         1.5770   -0.0330   -0.1130 c3        1 VAU      0.102800
      2 CAR         0.0330   -0.0890    0.0250 c3        1 VAU      0.147800
      3 OAG        -0.2190   -0.2350    1.4150 oh        1 VAU     -0.654800
      4 CAL        -0.5300    1.2110   -0.5480 c3        1 VAU     -0.111400
      5 CAQ        -2.0570    1.2350   -0.6030 c3        1 VAU     -0.002200
      6 CAN        -2.4640    2.4980   -1.4640 c         1 VAU      0.913600
      7 OAC        -3.1840    3.3380   -0.8690 o         1 VAU     -0.792300
      8 OAB        -2.0160    2.5460   -2.6340 o         1 VAU     -0.792300
      9 OAF        -2.5540    1.3260    0.7230 oh        1 VAU     -0.663800
     10 CAK        -2.6350   -0.0110   -1.2640 c3        1 VAU     -0.107400
     11 CAO        -2.0740   -1.2820   -0.6520 c3        1 VAU      0.115100
     12 OAD        -2.5670   -2.4690   -1.2450 oh        1 VAU     -0.609800
     13 CAP        -0.5370   -1.2810   -0.7700 c3        1 VAU      0.088100
     14 OAE         0.0350   -2.4950   -0.3010 oh        1 VAU     -0.673800
     15 NXT         2.2390   -1.1300    0.6470 nz        1 VAU     -0.832600
     16 HAJ1        1.8570   -0.1230   -1.1980 hx        1 VAU      0.103700
     17 HAJ2        1.9460    0.9480    0.3000 hx        1 VAU      0.103700
     18 HXT1        1.8700   -1.1220    1.6080 hn        1 VAU      0.462133
     19 HXT2        1.9860   -2.0360    0.2250 hn        1 VAU      0.462133
     20 HAG        -1.0580    0.2140    1.6180 ho        1 VAU      0.482000
     21 HAL1       -0.1880    2.0680    0.0880 hc        1 VAU      0.081700
     22 HAL2       -0.1550    1.3620   -1.5960 hc        1 VAU      0.081700
     23 HAP        -0.2380   -1.1750   -1.8520 h1        1 VAU      0.061700
     24 HAF        -3.0750    2.1490    0.7780 ho        1 VAU      0.456000
     25 HAK1       -3.7490   -0.0040   -1.1370 hc        1 VAU      0.079200
     26 HAK2       -2.4050    0.0360   -2.3610 hc        1 VAU      0.079200
     27 HAO        -2.3640   -1.3620    0.4350 h1        1 VAU      0.093700
     28 HAD        -2.6920   -2.3000   -2.1870 ho        1 VAU      0.413000
     29 HAE        -0.6760   -3.1460   -0.2130 ho        1 VAU      0.453000
     30 HXT3        3.2500   -1.0130    0.6550 hn        1 VAU      0.462133
@<TRIPOS>BOND
     1    1    2 1   
     2    1   15 1   
     3    1   16 1   
     4    1   17 1   
     5    2    3 1   
     6    2    4 1   
     7    2   13 1   
     8    3   20 1   
     9    4    5 1   
    10    4   21 1   
    11    4   22 1   
    12    5    6 1   
    13    5    9 1   
    14    5   10 1   
    15    6    7 1   
    16    6    8 1   
    17    9   24 1   
    18   10   11 1   
    19   10   25 1   
    20   10   26 1   
    21   11   12 1   
    22   11   13 1   
    23   11   27 1   
    24   12   28 1   
    25   13   14 1   
    26   13   23 1   
    27   14   29 1   
    28   15   18 1   
    29   15   19 1   
    30   15   30 1   
@<TRIPOS>SUBSTRUCTURE
     1 VAU         1 TEMP              0 ****  ****    0 ROOT
