@<TRIPOS>MOLECULE
VAW
   75    78     1     0     0
SMALL
bcc


@<TRIPOS>ATOM
      1 CBD        -0.1530   -0.5690   -0.0030 ca        1 VAW     -0.086800
      2 CAM         1.1720   -1.0020   -0.1030 ca        1 VAW     -0.113000
      3 CAK         1.8250   -1.4330    1.0400 ca        1 VAW     -0.128000
      4 CAJ         1.1810   -1.4420    2.2930 ca        1 VAW     -0.105000
      5 CAL        -0.1290   -1.0170    2.4390 ca        1 VAW     -0.121000
      6 CBC        -0.8020   -0.5750    1.2880 ca        1 VAW     -0.047200
      7 NAU        -2.1070   -0.0930    1.1200 na        1 VAW     -0.169400
      8 CAN        -2.2930    0.2230   -0.2180 cc        1 VAW     -0.055100
      9 CBB        -1.1290   -0.0610   -0.9440 cd        1 VAW     -0.216400
     10 CAR        -0.9200    0.1550   -2.3770 c3        1 VAW     -0.004200
     11 CAP        -0.8210   -1.2060   -3.0750 c3        1 VAW      0.094800
     12 NAT        -0.5030   -1.0830   -4.5290 ny        1 VAW     -0.762000
     13 CAQ        -0.3960   -2.4160   -5.1950 c3        1 VAW      0.100800
     14 CAS        -0.0780   -2.2910   -6.6800 c3        1 VAW     -0.110400
     15 CBJ         0.2500   -3.6620   -7.2640 c3        1 VAW      0.027500
     16 CBH        -0.9380   -4.6230   -7.0950 c3        1 VAW     -0.062500
     17 CAH        -2.2490   -3.9890   -7.4140 c2        1 VAW     -0.190200
     18 CAA        -3.3010   -4.0230   -6.5980 c2        1 VAW     -0.209000
     19 CBA         0.6650   -3.5620   -8.6930 ce        1 VAW     -0.308400
     20 CAZ         1.5910   -2.5230   -9.1490 c         1 VAW      0.649300
     21 OAC         1.7280   -2.0930  -10.2980 o         1 VAW     -0.530000
     22 OAV         2.4190   -2.0060   -8.1810 os        1 VAW     -0.463900
     23 CAB         3.4220   -1.0900   -8.6330 c3        1 VAW      0.124700
     24 CAI         0.2820   -4.4850   -9.6120 c2        1 VAW      0.163100
     25 OAW        -0.4860   -5.5740   -9.3500 os        1 VAW     -0.328900
     26 CBK        -0.7710   -5.8660   -7.9790 c3        1 VAW      0.336900
     27 O1          0.3740   -6.5710   -7.5370 os        1 VAW     -0.438600
     28 C1          0.3380   -7.9670   -7.7970 c3        1 VAW      0.303900
     29 O5         -0.7220   -8.3910   -6.9520 os        1 VAW     -0.443600
     30 C5         -0.8930   -9.8100   -6.9270 c3        1 VAW      0.114100
     31 C6         -2.0670  -10.0810   -5.9790 c3        1 VAW      0.134400
     32 O6         -3.3050   -9.8410   -6.6090 oh        1 VAW     -0.590800
     33 C4          0.3910  -10.4860   -6.4170 c3        1 VAW      0.121100
     34 O4          0.1770  -11.8830   -6.4980 oh        1 VAW     -0.594800
     35 C3          1.5880  -10.0770   -7.2930 c3        1 VAW      0.110100
     36 O3          2.7360  -10.6320   -6.6790 oh        1 VAW     -0.599800
     37 C2          1.6940   -8.5450   -7.3540 c3        1 VAW      0.090100
     38 O2          2.6960   -8.2490   -8.3070 oh        1 VAW     -0.591800
     39 HAM         1.6880   -0.9860   -1.0720 ha        1 VAW      0.115000
     40 HAK         2.8700   -1.7730    0.9790 ha        1 VAW      0.142000
     41 HAJ         1.7390   -1.7920    3.1760 ha        1 VAW      0.148000
     42 HAL        -0.6240   -1.0210    3.4200 ha        1 VAW      0.149000
     43 HAU        -2.7590    0.0520    1.8470 hn        1 VAW      0.315700
     44 HAN        -3.2420    0.6360   -0.5700 h4        1 VAW      0.174000
     45 HAR1       -1.7680    0.7510   -2.8120 hc        1 VAW      0.063200
     46 HAR2        0.0300    0.7370   -2.5340 hc        1 VAW      0.063200
     47 HAP1       -1.7960   -1.7620   -2.9770 hx        1 VAW      0.110700
     48 HAP2       -0.0060   -1.8170   -2.5870 hx        1 VAW      0.110700
     49 HAT         0.3830   -0.5770   -4.6410 hn        1 VAW      0.446800
     50 HAQ1        0.4120   -3.0010   -4.6690 hx        1 VAW      0.107700
     51 HAQ2       -1.3820   -2.9520   -5.0580 hx        1 VAW      0.107700
     52 HAS1       -0.9520   -1.8490   -7.2280 hc        1 VAW      0.080700
     53 HAS2        0.8050   -1.6120   -6.8300 hc        1 VAW      0.080700
     54 HBJ         1.1220   -4.0980   -6.6910 hc        1 VAW      0.079700
     55 HBH        -0.9340   -4.9930   -6.0290 hc        1 VAW      0.076700
     56 HAH        -2.3000   -3.5100   -8.4070 ha        1 VAW      0.145000
     57 HBK        -1.7000   -6.5040   -8.0110 h2        1 VAW      0.131700
     58 HAA1       -3.2860   -4.5260   -5.6210 ha        1 VAW      0.124500
     59 HAA2       -4.2660   -3.5750   -6.8740 ha        1 VAW      0.124500
     60 HAI         0.5420   -4.4450  -10.6890 h4        1 VAW      0.204000
     61 HAB1        4.0050   -0.8600   -7.7080 h1        1 VAW      0.057033
     62 HAB2        2.9370   -0.1760   -9.0550 h1        1 VAW      0.057033
     63 HAB3        4.0610   -1.5750   -9.4090 h1        1 VAW      0.057033
     64 H1          0.1120   -8.1810   -8.8770 h2        1 VAW      0.075700
     65 H2          1.9760   -8.1320   -6.3460 h1        1 VAW      0.073700
     66 H5         -1.1310  -10.1760   -7.9640 h1        1 VAW      0.063700
     67 H6C1       -1.9920  -11.1400   -5.6140 h1        1 VAW      0.072200
     68 H6C2       -2.0410   -9.3650   -5.1130 h1        1 VAW      0.072200
     69 H4          0.5910  -10.1900   -5.3500 h1        1 VAW      0.064700
     70 H6         -3.4340  -10.5340   -7.2680 ho        1 VAW      0.405000
     71 HA          1.0150  -12.3040   -6.2580 ho        1 VAW      0.433000
     72 H3          1.4720  -10.4920   -8.3330 h1        1 VAW      0.070700
     73 HB          3.4920  -10.3900   -7.2320 ho        1 VAW      0.431000
     74 HC          2.7970   -7.2890   -8.3180 ho        1 VAW      0.420000
     75 HAT2       -1.2350   -0.5320   -4.9920 hn        1 VAW      0.446800
@<TRIPOS>BOND
     1    1    2 ar  
     2    1    6 ar  
     3    1    9 1   
     4    2    3 ar  
     5    2   39 1   
     6    3    4 ar  
     7    3   40 1   
     8    4    5 ar  
     9    4   41 1   
    10    5    6 ar  
    11    5   42 1   
    12    6    7 1   
    13    7    8 1   
    14    7   43 1   
    15    8    9 2   
    16    8   44 1   
    17    9   10 1   
    18   10   11 1   
    19   10   45 1   
    20   10   46 1   
    21   11   12 1   
    22   11   47 1   
    23   11   48 1   
    24   12   13 1   
    25   12   49 1   
    26   12   75 1   
    27   13   14 1   
    28   13   50 1   
    29   13   51 1   
    30   14   15 1   
    31   14   52 1   
    32   14   53 1   
    33   15   16 1   
    34   15   19 1   
    35   15   54 1   
    36   16   17 1   
    37   16   26 1   
    38   16   55 1   
    39   17   18 2   
    40   17   56 1   
    41   18   58 1   
    42   18   59 1   
    43   19   20 1   
    44   19   24 2   
    45   20   21 2   
    46   20   22 1   
    47   22   23 1   
    48   23   61 1   
    49   23   62 1   
    50   23   63 1   
    51   24   25 1   
    52   24   60 1   
    53   25   26 1   
    54   26   27 1   
    55   26   57 1   
    56   27   28 1   
    57   28   29 1   
    58   28   37 1   
    59   28   64 1   
    60   29   30 1   
    61   30   31 1   
    62   30   33 1   
    63   30   66 1   
    64   31   32 1   
    65   31   67 1   
    66   31   68 1   
    67   32   70 1   
    68   33   34 1   
    69   33   35 1   
    70   33   69 1   
    71   34   71 1   
    72   35   36 1   
    73   35   37 1   
    74   35   72 1   
    75   36   73 1   
    76   37   38 1   
    77   37   65 1   
    78   38   74 1   
@<TRIPOS>SUBSTRUCTURE
     1 VAW         1 TEMP              0 ****  ****    0 ROOT
