@<TRIPOS>MOLECULE
VAW
   75    78     1     0     0
SMALL
bcc


@<TRIPOS>ATOM
      1 CBD        -0.1380   -0.5710   -0.0010 ca        1 VAW     -0.086800
      2 CAM         1.1870   -0.9990   -0.1080 ca        1 VAW     -0.113000
      3 CAK         1.8480   -1.4290    1.0320 ca        1 VAW     -0.128000
      4 CAJ         1.2110   -1.4400    2.2880 ca        1 VAW     -0.105000
      5 CAL        -0.1000   -1.0190    2.4410 ca        1 VAW     -0.121000
      6 CBC        -0.7810   -0.5790    1.2930 ca        1 VAW     -0.047200
      7 NAU        -2.0870   -0.1010    1.1320 na        1 VAW     -0.169400
      8 CAN        -2.2810    0.2140   -0.2050 cc        1 VAW     -0.055100
      9 CBB        -1.1200   -0.0650   -0.9370 cd        1 VAW     -0.216400
     10 CAR        -0.9200    0.1520   -2.3710 c3        1 VAW     -0.004200
     11 CAP        -0.8190   -1.2090   -3.0690 c3        1 VAW      0.094800
     12 NAT        -0.5090   -1.0840   -4.5250 n4        1 VAW     -0.762000
     13 CAQ        -0.4010   -2.4170   -5.1920 c3        1 VAW      0.100800
     14 CAS        -0.0910   -2.2900   -6.6790 c3        1 VAW     -0.110400
     15 CBJ         0.2380   -3.6600   -7.2650 c3        1 VAW      0.027500
     16 CBH        -0.9450   -4.6240   -7.0900 c3        1 VAW     -0.062500
     17 CAH        -2.2610   -3.9940   -7.4030 c2        1 VAW     -0.190200
     18 CAA        -3.3080   -4.0320   -6.5820 c2        1 VAW     -0.209000
     19 CBA         0.6470   -3.5580   -8.6950 ce        1 VAW     -0.308400
     20 CAZ         1.5690   -2.5170   -9.1540 c         1 VAW      0.649300
     21 OAC         1.6990   -2.0850  -10.3030 o         1 VAW     -0.530000
     22 OAV         2.4000   -1.9980   -8.1890 os        1 VAW     -0.463900
     23 CAB         3.3980   -1.0800   -8.6450 c3        1 VAW      0.124700
     24 CAI         0.2620   -4.4810   -9.6140 c2        1 VAW      0.163100
     25 OAW        -0.5010   -5.5730   -9.3480 os        1 VAW     -0.328900
     26 CBK        -0.7790   -5.8670   -7.9760 c3        1 VAW      0.336900
     27 O1          0.3690   -6.5690   -7.5400 os        1 VAW     -0.438600
     28 C1          0.3350   -7.9650   -7.8010 c3        1 VAW      0.303900
     29 O5         -0.7190   -8.3920   -6.9510 os        1 VAW     -0.443600
     30 C5         -0.8870   -9.8120   -6.9260 c3        1 VAW      0.114100
     31 C6         -2.0560  -10.0850   -5.9730 c3        1 VAW      0.134400
     32 O6         -3.2980   -9.8470   -6.5960 oh        1 VAW     -0.590800
     33 C4          0.4010  -10.4840   -6.4220 c3        1 VAW      0.121100
     34 O4          0.1900  -11.8820   -6.5040 oh        1 VAW     -0.594800
     35 C3          1.5930  -10.0720   -7.3040 c3        1 VAW      0.110100
     36 O3          2.7450  -10.6240   -6.6950 oh        1 VAW     -0.599800
     37 C2          1.6950   -8.5400   -7.3640 c3        1 VAW      0.090100
     38 O2          2.6920   -8.2410   -8.3220 oh        1 VAW     -0.591800
     39 HAM         1.6990   -0.9810   -1.0790 ha        1 VAW      0.115000
     40 HAK         2.8940   -1.7650    0.9650 ha        1 VAW      0.142000
     41 HAJ         1.7740   -1.7880    3.1680 ha        1 VAW      0.148000
     42 HAL        -0.5900   -1.0250    3.4240 ha        1 VAW      0.149000
     43 HAU        -2.7370    0.0420    1.8620 hn        1 VAW      0.315700
     44 HAN        -3.2340    0.6240   -0.5520 h4        1 VAW      0.174000
     45 HAR1        0.0280    0.7370   -2.5330 hc        1 VAW      0.063200
     46 HAR2       -1.7720    0.7440   -2.8010 hc        1 VAW      0.063200
     47 HAP1        0.0000   -1.8170   -2.5860 hx        1 VAW      0.110700
     48 HAP2       -1.7910   -1.7680   -2.9660 hx        1 VAW      0.110700
     49 HAT        -1.2450   -0.5360   -4.9840 hn        1 VAW      0.446800
     50 HAQ1        0.4110   -2.9990   -4.6700 hx        1 VAW      0.107700
     51 HAQ2       -1.3850   -2.9560   -5.0500 hx        1 VAW      0.107700
     52 HAS1       -0.9690   -1.8510   -7.2220 hc        1 VAW      0.080700
     53 HAS2        0.7900   -1.6090   -6.8330 hc        1 VAW      0.080700
     54 HBJ         1.1150   -4.0930   -6.6960 hc        1 VAW      0.079700
     55 HBH        -0.9360   -4.9950   -6.0250 hc        1 VAW      0.076700
     56 HAH        -2.3170   -3.5150   -8.3960 ha        1 VAW      0.145000
     57 HBK        -1.7070   -6.5070   -8.0040 h2        1 VAW      0.131700
     58 HAA1       -3.2870   -4.5340   -5.6050 ha        1 VAW      0.124500
     59 HAA2       -4.2760   -3.5860   -6.8530 ha        1 VAW      0.124500
     60 HAI         0.5180   -4.4410  -10.6910 h4        1 VAW      0.204000
     61 HAB1        2.9100   -0.1670   -9.0650 h1        1 VAW      0.057033
     62 HAB2        3.9840   -0.8490   -7.7220 h1        1 VAW      0.057033
     63 HAB3        4.0360   -1.5630   -9.4240 h1        1 VAW      0.057033
     64 H1          0.1060   -8.1780   -8.8800 h2        1 VAW      0.075700
     65 H2          1.9800   -8.1270   -6.3570 h1        1 VAW      0.073700
     66 H5         -1.1290  -10.1770   -7.9630 h1        1 VAW      0.063700
     67 H6C1       -1.9780  -11.1450   -5.6110 h1        1 VAW      0.072200
     68 H6C2       -2.0270   -9.3710   -5.1070 h1        1 VAW      0.072200
     69 H4          0.6050  -10.1880   -5.3560 h1        1 VAW      0.064700
     70 H6         -3.4280  -10.5390   -7.2560 ho        1 VAW      0.405000
     71 HA          1.0300  -12.3010   -6.2670 ho        1 VAW      0.433000
     72 H3          1.4730  -10.4870   -8.3440 h1        1 VAW      0.070700
     73 HB          3.4970  -10.3800   -7.2520 ho        1 VAW      0.431000
     74 HC          2.7910   -7.2800   -8.3320 ho        1 VAW      0.420000
     75 HAT2        0.3750   -0.5760   -4.6420 hn        1 VAW      0.446800
@<TRIPOS>BOND
     1    1    2 ar  
     2    1    6 ar  
     3    1    9 1   
     4    2    3 ar  
     5    2   39 1   
     6    3    4 ar  
     7    3   40 1   
     8    4    5 ar  
     9    4   41 1   
    10    5    6 ar  
    11    5   42 1   
    12    6    7 1   
    13    7    8 1   
    14    7   43 1   
    15    8    9 2   
    16    8   44 1   
    17    9   10 1   
    18   10   11 1   
    19   10   45 1   
    20   10   46 1   
    21   11   12 1   
    22   11   47 1   
    23   11   48 1   
    24   12   13 1   
    25   12   49 1   
    26   12   75 1   
    27   13   14 1   
    28   13   50 1   
    29   13   51 1   
    30   14   15 1   
    31   14   52 1   
    32   14   53 1   
    33   15   16 1   
    34   15   19 1   
    35   15   54 1   
    36   16   17 1   
    37   16   26 1   
    38   16   55 1   
    39   17   18 2   
    40   17   56 1   
    41   18   58 1   
    42   18   59 1   
    43   19   20 1   
    44   19   24 2   
    45   20   21 2   
    46   20   22 1   
    47   22   23 1   
    48   23   61 1   
    49   23   62 1   
    50   23   63 1   
    51   24   25 1   
    52   24   60 1   
    53   25   26 1   
    54   26   27 1   
    55   26   57 1   
    56   27   28 1   
    57   28   29 1   
    58   28   37 1   
    59   28   64 1   
    60   29   30 1   
    61   30   31 1   
    62   30   33 1   
    63   30   66 1   
    64   31   32 1   
    65   31   67 1   
    66   31   68 1   
    67   32   70 1   
    68   33   34 1   
    69   33   35 1   
    70   33   69 1   
    71   34   71 1   
    72   35   36 1   
    73   35   37 1   
    74   35   72 1   
    75   36   73 1   
    76   37   38 1   
    77   37   65 1   
    78   38   74 1   
@<TRIPOS>SUBSTRUCTURE
     1 VAW         1 TEMP              0 ****  ****    0 ROOT
