@<TRIPOS>MOLECULE
VAW
   75    78     1     0     0
SMALL
bcc


@<TRIPOS>ATOM
      1 CBD        -0.0820   -0.4550    0.0350 ca        1 VAW     -0.086800
      2 CAM         1.2190   -0.9510   -0.0830 ca        1 VAW     -0.113000
      3 CAK         1.8720   -1.3980    1.0540 ca        1 VAW     -0.128000
      4 CAJ         1.2520   -1.3590    2.3180 ca        1 VAW     -0.105000
      5 CAL        -0.0340   -0.8710    2.4820 ca        1 VAW     -0.121000
      6 CBC        -0.7070   -0.4130    1.3370 ca        1 VAW     -0.047200
      7 NAU        -1.9900    0.1280    1.1860 na        1 VAW     -0.169400
      8 CAN        -2.1860    0.4350   -0.1520 cc        1 VAW     -0.056100
      9 CBB        -1.0500    0.0870   -0.8950 cd        1 VAW     -0.214400
     10 CAR        -0.8590    0.2750   -2.3350 c3        1 VAW     -0.004200
     11 CAP        -0.8290   -1.0980   -3.0160 c3        1 VAW      0.094800
     12 NAT        -0.5370   -1.0070   -4.4770 n4        1 VAW     -0.762000
     13 CAQ        -0.4850   -2.3530   -5.1250 c3        1 VAW      0.101800
     14 CAS        -0.1980   -2.2570   -6.6190 c3        1 VAW     -0.111400
     15 CBJ         0.1190   -3.6400   -7.1800 c3        1 VAW      0.027500
     16 CBH        -1.0790   -4.5850   -6.9990 c3        1 VAW     -0.061500
     17 CAH        -2.3810   -3.9510   -7.3520 c2        1 VAW     -0.183200
     18 CAA        -3.4280   -3.9110   -6.5310 c2        1 VAW     -0.216000
     19 CBA         0.5450   -3.5680   -8.6070 ce        1 VAW     -0.305400
     20 CAZ         1.4810   -2.5460   -9.0790 c         1 VAW      0.652300
     21 OAC         1.6270   -2.1410  -10.2350 o         1 VAW     -0.532000
     22 OAV         2.3050   -2.0110   -8.1170 os        1 VAW     -0.463900
     23 CAB         3.3260   -1.1240   -8.5850 c3        1 VAW      0.125700
     24 CAI         0.1720   -4.5150   -9.5070 c2        1 VAW      0.170100
     25 OAW        -0.6100   -5.5910   -9.2250 os        1 VAW     -0.331900
     26 CBK        -0.9050   -5.8520   -7.8510 c3        1 VAW      0.334900
     27 O1          0.2300   -6.5370   -7.3600 os        1 VAW     -0.418600
     28 C1          0.3470   -7.8770   -7.8140 c3        1 VAW      0.339900
     29 O5         -0.7030   -8.5060   -7.0870 os        1 VAW     -0.444600
     30 C5         -0.7280   -9.9250   -7.2520 c3        1 VAW      0.119100
     31 C6         -1.9390  -10.4310   -6.4640 c3        1 VAW      0.130400
     32 O6         -3.0230  -10.4750   -7.3760 oh        1 VAW     -0.601800
     33 C4          0.5770  -10.5260   -6.7100 c3        1 VAW      0.073100
     34 O4          0.6040  -11.9350   -6.8150 oh        1 VAW     -0.583800
     35 C3          1.7710   -9.9170   -7.4590 c3        1 VAW      0.073100
     36 O3          3.0000  -10.3100   -6.8740 oh        1 VAW     -0.600800
     37 C2          1.7380   -8.3810   -7.3830 c3        1 VAW      0.134100
     38 O2          2.6670   -7.8230   -8.2920 oh        1 VAW     -0.590800
     39 HAM         1.7170   -0.9720   -1.0610 ha        1 VAW      0.116000
     40 HAK         2.8990   -1.7870    0.9790 ha        1 VAW      0.142000
     41 HAJ         1.8090   -1.7230    3.1960 ha        1 VAW      0.148000
     42 HAL        -0.5100   -0.8380    3.4720 ha        1 VAW      0.148000
     43 HAU        -2.6200    0.3160    1.9230 hn        1 VAW      0.315700
     44 HAN        -3.1210    0.8880   -0.4930 h4        1 VAW      0.174000
     45 HAR1        0.1120    0.8140   -2.5170 hc        1 VAW      0.063200
     46 HAR2       -1.6880    0.8990   -2.7630 hc        1 VAW      0.063200
     47 HAP1       -0.0300   -1.7360   -2.5360 hx        1 VAW      0.110200
     48 HAP2       -1.8230   -1.6130   -2.8900 hx        1 VAW      0.110200
     49 HAT        -1.2590   -0.4400   -4.9340 hn        1 VAW      0.446800
     50 HAQ1        0.3190   -2.9530   -4.6090 hx        1 VAW      0.107200
     51 HAQ2       -1.4810   -2.8570   -4.9570 hx        1 VAW      0.107200
     52 HAS1       -1.0840   -1.8260   -7.1570 hc        1 VAW      0.080700
     53 HAS2        0.6810   -1.5810   -6.8020 hc        1 VAW      0.080700
     54 HBJ         0.9850   -4.0770   -6.5980 hc        1 VAW      0.085700
     55 HBH        -1.0910   -4.9250   -5.9240 hc        1 VAW      0.072700
     56 HAH        -2.4270   -3.5330   -8.3730 ha        1 VAW      0.147000
     57 HBK        -1.8270   -6.4970   -7.8790 h2        1 VAW      0.124700
     58 HAA1       -3.4170   -4.3490   -5.5230 ha        1 VAW      0.122000
     59 HAA2       -4.3860   -3.4610   -6.8300 ha        1 VAW      0.122000
     60 HAI         0.4520   -4.5110  -10.5790 h4        1 VAW      0.204000
     61 HAB1        2.8600   -0.2140   -9.0340 h1        1 VAW      0.056033
     62 HAB2        3.9070   -0.8810   -7.6620 h1        1 VAW      0.056033
     63 HAB3        3.9630   -1.6410   -9.3430 h1        1 VAW      0.056033
     64 H1          0.1860   -7.9620   -8.9220 h2        1 VAW      0.082700
     65 H2          1.9670   -8.0420   -6.3350 h1        1 VAW      0.074700
     66 H5         -0.8510  -10.1730   -8.3440 h1        1 VAW      0.070700
     67 H6C1       -1.7180  -11.4590   -6.0680 h1        1 VAW      0.051200
     68 H6C2       -2.1720   -9.7340   -5.6160 h1        1 VAW      0.051200
     69 H4          0.6750  -10.3260   -5.6040 h1        1 VAW      0.104700
     70 H6         -3.7740  -10.8440   -6.8960 ho        1 VAW      0.412000
     71 HA          0.4120  -12.1680   -7.7330 ho        1 VAW      0.410000
     72 H3          1.7560  -10.2450   -8.5380 h1        1 VAW      0.056700
     73 HB          2.9470  -11.2640   -6.7210 ho        1 VAW      0.430000
     74 HC          3.5290   -8.1990   -8.0660 ho        1 VAW      0.431000
     75 HAT2        0.3630   -0.5320   -4.6150 hn        1 VAW      0.446800
@<TRIPOS>BOND
     1    1    2 ar  
     2    1    6 ar  
     3    1    9 1   
     4    2    3 ar  
     5    2   39 1   
     6    3    4 ar  
     7    3   40 1   
     8    4    5 ar  
     9    4   41 1   
    10    5    6 ar  
    11    5   42 1   
    12    6    7 1   
    13    7    8 1   
    14    7   43 1   
    15    8    9 2   
    16    8   44 1   
    17    9   10 1   
    18   10   11 1   
    19   10   45 1   
    20   10   46 1   
    21   11   12 1   
    22   11   47 1   
    23   11   48 1   
    24   12   13 1   
    25   12   49 1   
    26   12   75 1   
    27   13   14 1   
    28   13   50 1   
    29   13   51 1   
    30   14   15 1   
    31   14   52 1   
    32   14   53 1   
    33   15   16 1   
    34   15   19 1   
    35   15   54 1   
    36   16   17 1   
    37   16   26 1   
    38   16   55 1   
    39   17   18 2   
    40   17   56 1   
    41   18   58 1   
    42   18   59 1   
    43   19   20 1   
    44   19   24 2   
    45   20   21 2   
    46   20   22 1   
    47   22   23 1   
    48   23   61 1   
    49   23   62 1   
    50   23   63 1   
    51   24   25 1   
    52   24   60 1   
    53   25   26 1   
    54   26   27 1   
    55   26   57 1   
    56   27   28 1   
    57   28   29 1   
    58   28   37 1   
    59   28   64 1   
    60   29   30 1   
    61   30   31 1   
    62   30   33 1   
    63   30   66 1   
    64   31   32 1   
    65   31   67 1   
    66   31   68 1   
    67   32   70 1   
    68   33   34 1   
    69   33   35 1   
    70   33   69 1   
    71   34   71 1   
    72   35   36 1   
    73   35   37 1   
    74   35   72 1   
    75   36   73 1   
    76   37   38 1   
    77   37   65 1   
    78   38   74 1   
@<TRIPOS>SUBSTRUCTURE
     1 VAW         1 TEMP              0 ****  ****    0 ROOT
