@<TRIPOS>MOLECULE
VAW
   74    67     1     0     0
SMALL
bcc


@<TRIPOS>ATOM
      1 CBD        -1.3320    6.3890   -1.1830 c1        1 VAW     -0.038500
      2 CAM        -2.4350    5.6420   -1.6800 c1        1 VAW     -0.126000
      3 CAK        -3.5560    6.2980   -2.1500 c1        1 VAW     -0.126000
      4 CAJ        -3.6040    7.6990   -2.1370 c1        1 VAW     -0.126000
      5 CAL        -2.5180    8.4320   -1.6490 c1        1 VAW     -0.126000
      6 CBC        -1.3820    7.7670   -1.1720 c1        1 VAW     -0.038500
      7 NAU        -0.1920    8.2330   -0.6470 n1        1 VAW     -0.216000
      8 CAN         0.5860    7.1520   -0.3370 c1        1 VAW     -0.077000
      9 CBB        -0.1200    6.0060   -0.6690 c1        1 VAW     -0.140000
     10 CAR         0.5140    4.8180    0.0820 c2        1 VAW     -0.129000
     11 CAP         1.0560    3.7730   -0.9550 c3        1 VAW     -0.076000
     12 NAT         1.7860    2.6850   -0.2390 n3        1 VAW     -0.296000
     13 CAQ         0.9470    1.5290   -0.1460 c3        1 VAW     -0.070000
     14 CAS         1.0590    0.7110   -1.4100 c3        1 VAW     -0.165000
     15 CBJ         1.0420   -0.8120   -1.0390 c3        1 VAW     -0.032000
     16 CBH        -0.4530   -1.2760   -0.4880 c3        1 VAW     -0.093000
     17 CAH        -1.6090   -0.8220   -1.5150 c2        1 VAW     -0.162000
     18 CAA        -2.8700   -0.6320   -1.0690 c1        1 VAW     -0.212000
     19 CBA         1.4920   -1.6170   -2.1390 c2        1 VAW     -0.239000
     20 CAZ         2.6810   -1.1990   -2.9420 c2        1 VAW      0.362000
     21 OAC         3.7880   -1.1900   -2.4310 o         1 VAW     -0.351000
     22 OAV         2.5340   -0.9300   -4.4130 os        1 VAW     -0.294000
     23 CAB         3.6790   -0.2760   -5.0080 c3        1 VAW     -0.060000
     24 CAI         1.0400   -3.2140   -2.0920 c1        1 VAW      0.085000
     25 OAW        -0.1260   -3.4760   -1.4360 o         1 VAW     -0.234000
     26 CBK        -0.4930   -2.5710   -0.2500 c3        1 VAW      0.148000
     27 O1          0.4470   -2.8640    0.8680 os        1 VAW     -0.268000
     28 C1          0.0040   -4.0330    1.5770 c3        1 VAW      0.160000
     29 O5         -0.7870   -3.6180    2.7360 os        1 VAW     -0.302000
     30 C5         -1.1320   -4.7290    3.6180 c3        1 VAW      0.008000
     31 C6         -1.8140   -4.1610    4.9150 c3        1 VAW     -0.019000
     32 O6         -2.6930   -5.1380    5.4580 oh        1 VAW     -0.343000
     33 C4          0.0710   -5.5480    4.0160 c3        1 VAW     -0.031000
     34 O4         -0.3760   -6.7300    4.7500 oh        1 VAW     -0.328000
     35 C3          0.8630   -5.9790    2.8540 c3        1 VAW     -0.030000
     36 O3          2.1220   -6.6240    3.3330 oh        1 VAW     -0.331000
     37 C2          1.2100   -4.8460    1.9640 c3        1 VAW      0.019000
     38 O2          1.8280   -5.3580    0.7790 oh        1 VAW     -0.317000
     39 HAM        -2.4000    4.6480   -1.6880 ha        1 VAW      0.129750
     40 HAK        -4.3340    5.7750   -2.5010 ha        1 VAW      0.129750
     41 HAJ        -4.3890    8.1620   -2.4670 ha        1 VAW      0.129750
     42 HAL        -2.5540    9.4460   -1.6380 ha        1 VAW      0.129750
     43 HAU         0.0250    9.0680   -0.5340 DU        1 VAW      0.175667
     44 HAN         1.4810    7.1830   -0.0350 DU        1 VAW      0.175667
     45 HAR1       -0.1960    4.3710    0.6760 ha        1 VAW      0.085000
     46 HAR2        1.2680    5.1480    0.6540 ha        1 VAW      0.085000
     47 HAP1        0.3170    3.3950   -1.4420 h1        1 VAW      0.093000
     48 HAP2        1.6790    4.2270   -1.5930 h1        1 VAW      0.093000
     49 HAT         2.0110    2.9720    0.6140 hn        1 VAW      0.153000
     50 HAQ1        1.2250    0.9860    0.6130 h1        1 VAW      0.064500
     51 HAQ2        0.0330    1.8080   -0.0240 h1        1 VAW      0.064500
     52 HAS1        1.9420    0.9400   -1.8910 hc        1 VAW      0.108500
     53 HAS2        0.2850    0.9190   -2.0130 hc        1 VAW      0.108500
     54 HBJ         1.6770   -0.8290   -0.3300 hc        1 VAW      0.118000
     55 HBH        -0.7090   -0.7640    0.3250 hc        1 VAW      0.121000
     56 HAH        -1.3990   -0.6840   -2.4590 ha        1 VAW      0.134000
     57 HBK        -1.3750   -2.7960    0.0350 h2        1 VAW      0.140000
     58 HAA1       -3.0750   -0.7670   -0.1480 DU        1 VAW      0.175667
     59 HAA2       -3.5670   -0.3570   -1.6860 ha        1 VAW      0.121000
     60 HAI         1.3590   -3.8190   -2.7590 ha        1 VAW      0.185000
     61 HAB1        3.5910   -0.2910   -6.0100 h1        1 VAW      0.088333
     62 HAB2        3.7210    0.6540   -4.6990 h1        1 VAW      0.088333
     63 HAB3        4.4700   -0.7290   -4.7530 h1        1 VAW      0.088333
     64 H1         -0.5790   -4.5820    0.9660 h2        1 VAW      0.118000
     65 H2          1.8450   -4.2650    2.4250 h1        1 VAW      0.119000
     66 H5         -1.7660   -5.3080    3.1570 h1        1 VAW      0.103000
     67 H6C1       -1.1140   -3.9350    5.5880 h1        1 VAW      0.088000
     68 H6C2       -2.3330   -3.3360    4.6860 h1        1 VAW      0.088000
     69 H4          0.6410   -5.0040    4.6060 h1        1 VAW      0.131000
     70 H6         -3.3360   -4.7260    5.9510 ho        1 VAW      0.215000
     71 HA         -0.8330   -7.2530    4.2160 ho        1 VAW      0.225000
     72 H3          0.3450   -6.6320    2.3470 h1        1 VAW      0.094000
     73 HB          2.1200   -7.5260    3.0960 ho        1 VAW      0.226000
     74 HC          2.6690   -5.5910    0.9610 ho        1 VAW      0.224000
@<TRIPOS>BOND
     1    1    6 1   
     2    2    3 1   
     3    2   39 1   
     4    3   40 1   
     5    4    5 1   
     6    4   41 1   
     7    5   42 1   
     8    7    8 1   
     9    8    9 1   
    10   10   11 1   
    11   10   45 1   
    12   10   46 1   
    13   11   12 1   
    14   11   47 1   
    15   11   48 1   
    16   12   13 1   
    17   12   49 1   
    18   13   14 1   
    19   13   50 1   
    20   13   51 1   
    21   14   15 1   
    22   14   52 1   
    23   14   53 1   
    24   15   16 1   
    25   15   19 1   
    26   15   54 1   
    27   16   17 1   
    28   16   26 1   
    29   16   55 1   
    30   17   18 1   
    31   17   56 1   
    32   18   59 1   
    33   19   20 1   
    34   19   24 1   
    35   20   21 1   
    36   20   22 1   
    37   22   23 1   
    38   23   61 1   
    39   23   62 1   
    40   23   63 1   
    41   24   60 1   
    42   25   26 1   
    43   26   27 1   
    44   26   57 1   
    45   27   28 1   
    46   28   29 1   
    47   28   37 1   
    48   28   64 1   
    49   29   30 1   
    50   30   31 1   
    51   30   33 1   
    52   30   66 1   
    53   31   32 1   
    54   31   67 1   
    55   31   68 1   
    56   32   70 1   
    57   33   34 1   
    58   33   35 1   
    59   33   69 1   
    60   34   71 1   
    61   35   36 1   
    62   35   37 1   
    63   35   72 1   
    64   36   73 1   
    65   37   38 1   
    66   37   65 1   
    67   38   74 1   
@<TRIPOS>SUBSTRUCTURE
     1 VAW         1 TEMP              0 ****  ****    0 ROOT
