@<TRIPOS>MOLECULE
VAW
   74    77     1     0     0
SMALL
bcc


@<TRIPOS>ATOM
      1 CBD        -6.7730   -1.4180    0.3960 ca        1 VAW     -0.088800
      2 CAM        -6.4380   -1.3270    1.7480 ca        1 VAW     -0.082000
      3 CAK        -6.9400   -2.2730    2.6290 ca        1 VAW     -0.159000
      4 CAJ        -7.7740   -3.3150    2.1850 ca        1 VAW     -0.112000
      5 CAL        -8.1330   -3.4430    0.8530 ca        1 VAW     -0.147000
      6 CBC        -7.6330   -2.4920   -0.0510 ca        1 VAW     -0.046200
      7 NAU        -7.8100   -2.3590   -1.4300 na        1 VAW     -0.194400
      8 CAN        -7.1000   -1.2340   -1.8590 cc        1 VAW     -0.105100
      9 CBB        -6.4500   -0.6340   -0.7800 cd        1 VAW     -0.138400
     10 CAR        -5.6170    0.5750   -0.8210 c3        1 VAW     -0.009200
     11 CAP        -4.1410    0.2280   -0.6030 c3        1 VAW      0.164800
     12 NAT        -3.2880    1.4000   -0.5600 n3        1 VAW     -0.824200
     13 CAQ        -1.8780    1.0680   -0.4910 c3        1 VAW      0.164800
     14 CAS        -0.9710    2.2830   -0.6880 c3        1 VAW     -0.083400
     15 CBJ         0.4790    1.9390   -0.3760 c3        1 VAW      0.014500
     16 CBH         1.0120    0.8590   -1.3290 c3        1 VAW     -0.050500
     17 CAH         0.6790    1.1320   -2.7570 c2        1 VAW     -0.170200
     18 CAA         0.0320    0.2720   -3.5400 c2        1 VAW     -0.206000
     19 CBA         1.3650    3.1400   -0.3980 ce        1 VAW     -0.263400
     20 CAZ         0.9030    4.4260    0.1380 c         1 VAW      0.654300
     21 OAC         1.1920    5.5590   -0.2610 o         1 VAW     -0.554000
     22 OAV         0.0970    4.3290    1.2430 os        1 VAW     -0.430900
     23 CAB        -0.3690    5.5590    1.8000 c3        1 VAW      0.125700
     24 CAI         2.6390    3.0810   -0.8510 c2        1 VAW      0.114100
     25 OAW         3.2540    1.9520   -1.3130 os        1 VAW     -0.346900
     26 CBK         2.5360    0.7230   -1.2070 c3        1 VAW      0.331900
     27 O1          2.8260    0.2630    0.1040 os        1 VAW     -0.433600
     28 C1          4.1260   -0.2710    0.2670 c3        1 VAW      0.305900
     29 O5          4.0630   -1.4690   -0.4960 os        1 VAW     -0.438600
     30 C5          5.2530   -2.2550   -0.3920 c3        1 VAW      0.149100
     31 C6          5.0400   -3.4760   -1.2900 c3        1 VAW      0.134400
     32 O6          5.4220   -3.0910   -2.6010 oh        1 VAW     -0.598800
     33 C4          5.4600   -2.6840    1.0720 c3        1 VAW      0.118100
     34 O4          6.6680   -3.4210    1.1280 oh        1 VAW     -0.595800
     35 C3          5.5500   -1.4350    1.9670 c3        1 VAW      0.109100
     36 O3          5.6360   -1.9040    3.3010 oh        1 VAW     -0.606800
     37 C2          4.2980   -0.5680    1.7700 c3        1 VAW      0.089100
     38 O2          4.5150    0.6280    2.4950 oh        1 VAW     -0.602800
     39 HAM        -5.7850   -0.5140    2.0980 ha        1 VAW      0.138000
     40 HAK        -6.6850   -2.2140    3.6970 ha        1 VAW      0.129000
     41 HAJ        -8.1510   -4.0450    2.9180 ha        1 VAW      0.129000
     42 HAL        -8.7850   -4.2580    0.5140 ha        1 VAW      0.131000
     43 HAU        -8.3750   -2.9340   -1.9930 hn        1 VAW      0.297700
     44 HAN        -7.1080   -0.9400   -2.9100 h4        1 VAW      0.164000
     45 HAR1       -5.7440    1.0920   -1.8100 hc        1 VAW      0.050700
     46 HAR2       -5.9570    1.2880   -0.0210 hc        1 VAW      0.050700
     47 HAP1       -4.0370   -0.3030    0.3870 h1        1 VAW      0.033200
     48 HAP2       -3.8240   -0.5020   -1.4060 h1        1 VAW      0.033200
     49 HAT        -3.4720    1.9990   -1.3430 hn        1 VAW      0.353800
     50 HAQ1       -1.6900    0.6260    0.5290 h1        1 VAW      0.029200
     51 HAQ2       -1.5910    0.2830   -1.2550 h1        1 VAW      0.029200
     52 HAS1       -1.0540    2.6550   -1.7420 hc        1 VAW      0.061200
     53 HAS2       -1.3050    3.1110   -0.0060 hc        1 VAW      0.061200
     54 HBJ         0.5250    1.5130    0.6710 hc        1 VAW      0.076700
     55 HBH         0.5710   -0.1280   -1.0080 hc        1 VAW      0.084700
     56 HAH         1.0180    2.1140   -3.1270 ha        1 VAW      0.134000
     57 HBK         2.9850    0.0620   -2.0010 h2        1 VAW      0.116700
     58 HAA1       -0.1950    0.4990   -4.5900 ha        1 VAW      0.116000
     59 HAA2       -0.3150   -0.7100   -3.1910 ha        1 VAW      0.116000
     60 HAI         3.3320    3.9400   -0.9120 h4        1 VAW      0.185000
     61 HAB1        0.4970    6.1760    2.1390 h1        1 VAW      0.051367
     62 HAB2       -0.9650    6.1200    1.0400 h1        1 VAW      0.051367
     63 HAB3       -1.0040    5.2330    2.6600 h1        1 VAW      0.051367
     64 H1          4.9180    0.4220   -0.1270 h2        1 VAW      0.072700
     65 H2          3.3870   -1.0990    2.1590 h1        1 VAW      0.076700
     66 H5          6.1370   -1.6590   -0.7530 h1        1 VAW      0.078700
     67 H6C1        5.6950   -4.3130   -0.9260 h1        1 VAW      0.048200
     68 H6C2        3.9630   -3.7890   -1.2720 h1        1 VAW      0.048200
     69 H4          4.6040   -3.3290    1.4140 h1        1 VAW      0.062700
     70 H6          5.2540   -3.8530   -3.1680 ho        1 VAW      0.404000
     71 HA          6.8460   -3.5810    2.0660 ho        1 VAW      0.426000
     72 H3          6.4720   -0.8400    1.7170 h1        1 VAW      0.066700
     73 HB          5.6150   -1.1220    3.8700 ho        1 VAW      0.428000
     74 HC          3.7310    1.1770    2.3610 ho        1 VAW      0.426000
@<TRIPOS>BOND
     1    1    2 ar  
     2    1    6 ar  
     3    1    9 1   
     4    2    3 ar  
     5    2   39 1   
     6    3    4 ar  
     7    3   40 1   
     8    4    5 ar  
     9    4   41 1   
    10    5    6 ar  
    11    5   42 1   
    12    6    7 1   
    13    7    8 1   
    14    7   43 1   
    15    8    9 2   
    16    8   44 1   
    17    9   10 1   
    18   10   11 1   
    19   10   45 1   
    20   10   46 1   
    21   11   12 1   
    22   11   47 1   
    23   11   48 1   
    24   12   13 1   
    25   12   49 1   
    26   13   14 1   
    27   13   50 1   
    28   13   51 1   
    29   14   15 1   
    30   14   52 1   
    31   14   53 1   
    32   15   16 1   
    33   15   19 1   
    34   15   54 1   
    35   16   17 1   
    36   16   26 1   
    37   16   55 1   
    38   17   18 2   
    39   17   56 1   
    40   18   58 1   
    41   18   59 1   
    42   19   20 1   
    43   19   24 2   
    44   20   21 2   
    45   20   22 1   
    46   22   23 1   
    47   23   61 1   
    48   23   62 1   
    49   23   63 1   
    50   24   25 1   
    51   24   60 1   
    52   25   26 1   
    53   26   27 1   
    54   26   57 1   
    55   27   28 1   
    56   28   29 1   
    57   28   37 1   
    58   28   64 1   
    59   29   30 1   
    60   30   31 1   
    61   30   33 1   
    62   30   66 1   
    63   31   32 1   
    64   31   67 1   
    65   31   68 1   
    66   32   70 1   
    67   33   34 1   
    68   33   35 1   
    69   33   69 1   
    70   34   71 1   
    71   35   36 1   
    72   35   37 1   
    73   35   72 1   
    74   36   73 1   
    75   37   38 1   
    76   37   65 1   
    77   38   74 1   
@<TRIPOS>SUBSTRUCTURE
     1 VAW         1 TEMP              0 ****  ****    0 ROOT
