@<TRIPOS>MOLECULE
VAZ
   46    45     1     0     0
SMALL
bcc


@<TRIPOS>ATOM
      1 SAQ         5.5580    0.0150    2.2660 ss        1 VAZ     -0.433200
      2 CAY         4.4360    0.6890    0.9880 c3        1 VAZ      0.251200
      3 OAJ         3.4260    1.4450    1.6050 oh        1 VAZ     -0.590800
      4 CAZ         3.8930   -0.4520    0.1320 c3        1 VAZ     -0.014900
      5 CAU         4.9280   -0.9000   -0.9640 c         1 VAZ      0.935600
      6 OAI         5.7960   -0.0600   -1.3260 o         1 VAZ     -0.812800
      7 OAE         4.8270   -2.0800   -1.3770 o         1 VAZ     -0.812800
      8 OAP         2.7490    0.0150   -0.6140 os        1 VAZ     -0.382900
      9 CAV         1.5270   -0.0650   -0.0450 c         1 VAZ      0.620100
     10 OAF         1.3880   -0.4590    1.1200 o         1 VAZ     -0.589000
     11 CAX         0.4140    0.3910   -0.9960 c3        1 VAZ      0.074700
     12 CAN         0.5480    1.9080   -1.1490 c3        1 VAZ     -0.086100
     13 SAR        -0.6090    2.5660   -2.2910 s4        1 VAZ      0.214900
     14 OAG        -0.1930    3.9980   -2.4940 o         1 VAZ     -0.524200
     15 NAO        -0.8880   -0.0190   -0.5270 n         1 VAZ     -0.567900
     16 CAS        -1.7400   -0.7940   -1.3020 c         1 VAZ      0.658100
     17 OAC        -1.5240   -0.9500   -2.5220 o         1 VAZ     -0.626100
     18 CAL        -2.9550   -1.3950   -0.6250 c3        1 VAZ     -0.151400
     19 CAK        -3.9390   -0.3410   -0.1590 c3        1 VAZ     -0.073400
     20 CB         -5.1860   -0.9880    0.4070 c3        1 VAZ     -0.065400
     21 CA         -6.2510    0.0370    0.7970 c3        1 VAZ      0.020500
     22 C          -7.5950   -0.7220    1.0580 c         1 VAZ      0.886600
     23 O          -8.0000   -1.5220    0.1690 o         1 VAZ     -0.846800
     24 OXT        -8.2190   -0.4780    2.1320 o         1 VAZ     -0.846800
     25 N          -5.8370    0.9160    1.8840 n3        1 VAZ     -0.891800
     26 CAA         7.1380    0.1860    1.5140 c3        1 VAZ     -0.023000
     27 HAA1        7.7930   -0.6020    1.9470 h1        1 VAZ      0.068367
     28 HAA2        7.0690    0.0460    0.4050 h1        1 VAZ      0.068367
     29 HAA3        7.5720    1.1860    1.7300 h1        1 VAZ      0.068367
     30 HAJ         2.8500    0.8300    2.0820 ho        1 VAZ      0.418000
     31 HAZ         3.5990   -1.3310    0.7630 h1        1 VAZ      0.078700
     32 HAX         0.6140   -0.0950   -2.0030 h1        1 VAZ      0.118700
     33 HAN1        0.3760    2.4160   -0.1650 h1        1 VAZ      0.111700
     34 HAN2        1.6120    2.1280   -1.4280 h1        1 VAZ      0.111700
     35 HAO        -1.0140   -0.0240    0.4610 hn        1 VAZ      0.325500
     36 HAL1       -3.4520   -2.0730   -1.3700 hc        1 VAZ      0.068700
     37 HAL2       -2.6250   -2.0240    0.2440 hc        1 VAZ      0.068700
     38 HAK1       -3.4630    0.3110    0.6190 hc        1 VAZ      0.044700
     39 HAK2       -4.2190    0.3180   -1.0210 hc        1 VAZ      0.044700
     40 HBC1       -5.6500   -1.6680   -0.3580 hc        1 VAZ      0.048700
     41 HBC2       -4.9140   -1.6180    1.2940 hc        1 VAZ      0.048700
     42 HA         -6.4380    0.7050   -0.0950 h1        1 VAZ      0.041700
     43 HN1        -6.6670    1.3680    2.2340 hn        1 VAZ      0.330800
     44 HN2        -5.4880    0.3490    2.6370 hn        1 VAZ      0.330800
     45 HAY         5.0130    1.4080    0.3450 h2        1 VAZ      0.120700
     46 HAR        -0.1470    1.9670   -3.3510 hs        1 VAZ      0.162000
@<TRIPOS>BOND
     1    1    2 1   
     2    1   26 1   
     3    2    3 1   
     4    2    4 1   
     5    2   45 1   
     6    3   30 1   
     7    4    5 1   
     8    4    8 1   
     9    4   31 1   
    10    5    6 1   
    11    5    7 1   
    12    8    9 1   
    13    9   10 2   
    14    9   11 1   
    15   11   12 1   
    16   11   15 1   
    17   11   32 1   
    18   12   13 1   
    19   12   33 1   
    20   12   34 1   
    21   13   14 2   
    22   13   46 1   
    23   15   16 1   
    24   15   35 1   
    25   16   17 2   
    26   16   18 1   
    27   18   19 1   
    28   18   36 1   
    29   18   37 1   
    30   19   20 1   
    31   19   38 1   
    32   19   39 1   
    33   20   21 1   
    34   20   40 1   
    35   20   41 1   
    36   21   22 1   
    37   21   25 1   
    38   21   42 1   
    39   22   23 1   
    40   22   24 1   
    41   25   43 1   
    42   25   44 1   
    43   26   27 1   
    44   26   28 1   
    45   26   29 1   
@<TRIPOS>SUBSTRUCTURE
     1 VAZ         1 TEMP              0 ****  ****    0 ROOT
