@<TRIPOS>MOLECULE
VAZ
   48    48     1     0     0
SMALL
bcc


@<TRIPOS>ATOM
      1 SAQ         2.6320    0.1130   -2.3650 ss        1 VAZ     -0.317200
      2 CAY         4.1340    0.9090   -1.7890 c3        1 VAZ      0.215200
      3 OAJ         4.5270    0.5570   -0.4880 oh        1 VAZ     -0.574800
      4 CAZ         3.8640    2.4130   -1.9080 c3        1 VAZ      0.043100
      5 CAU         5.0610    3.1780   -2.4290 c         1 VAZ      0.717600
      6 OAI         5.7250    3.1810   -3.4530 o         1 VAZ     -0.545500
      7 OAE         5.4670    4.0620   -1.4440 os        1 VAZ     -0.486900
      8 OAP         3.6510    2.9740   -0.6010 os        1 VAZ     -0.445600
      9 CAV         4.7150    3.8550   -0.2390 c3        1 VAZ      0.499400
     10 OAF         4.1460    5.0700    0.0770 oh        1 VAZ     -0.577800
     11 CAX         5.6090    3.3020    0.9160 c3        1 VAZ      0.148700
     12 CAN         4.7090    3.0640    2.1210 c3        1 VAZ     -0.097100
     13 SAR         5.5120    2.3700    3.5280 s4        1 VAZ      0.224900
     14 OAG         4.5110    1.4160    4.0880 o         1 VAZ     -0.484200
     15 NAO         6.7200    4.1680    1.2090 n         1 VAZ     -0.551900
     16 CAS         7.9050    4.0910    0.4840 c         1 VAZ      0.666100
     17 OAC         8.1020    3.1510   -0.3150 o         1 VAZ     -0.636100
     18 CAL         8.9560    5.1550    0.7340 c3        1 VAZ     -0.157400
     19 CAK         8.8480    6.2850   -0.2750 c3        1 VAZ     -0.088400
     20 CB          9.6850    6.0800   -1.5230 c3        1 VAZ     -0.096400
     21 CA          8.8830    5.7910   -2.7780 c3        1 VAZ     -0.073500
     22 C           9.7980    6.0580   -4.0750 c         1 VAZ      0.935600
     23 O           9.7290    5.1720   -4.9630 o         1 VAZ     -0.765300
     24 OXT        10.4440    7.1210   -4.0540 o         1 VAZ     -0.765300
     25 N           8.3350    4.4070   -2.8370 n4        1 VAZ     -0.825600
     26 CAA         3.1240   -1.5600   -2.5540 c3        1 VAZ     -0.034000
     27 HAA1        3.5610   -1.9680   -1.6150 h1        1 VAZ      0.076033
     28 HAA2        2.1950   -2.1250   -2.8040 h1        1 VAZ      0.076033
     29 HAA3        3.8600   -1.6830   -3.3790 h1        1 VAZ      0.076033
     30 HAJ         3.7880    0.7510    0.1100 ho        1 VAZ      0.431000
     31 HAZ         2.9380    2.6270   -2.5130 h1        1 VAZ      0.140700
     32 HAX         6.0080    2.3090    0.5330 h1        1 VAZ      0.123700
     33 HAN1        3.8580    2.4130    1.7850 h1        1 VAZ      0.112200
     34 HAN2        4.2450    4.0310    2.4490 h1        1 VAZ      0.112200
     35 HAO         6.4890    5.0440    1.6240 hn        1 VAZ      0.320500
     36 HAL1        8.8590    5.5680    1.7730 hc        1 VAZ      0.078700
     37 HAL2        9.9610    4.6580    0.6660 hc        1 VAZ      0.078700
     38 HAK1        7.7730    6.4520   -0.5480 hc        1 VAZ      0.054200
     39 HAK2        9.1990    7.2240    0.2330 hc        1 VAZ      0.054200
     40 HBC1       10.2510    7.0320   -1.7500 hc        1 VAZ      0.089700
     41 HBC2       10.4590    5.2850   -1.3600 hc        1 VAZ      0.089700
     42 HA          8.0160    6.5020   -2.8630 hx        1 VAZ      0.083700
     43 HN1         7.3810    4.3610   -2.4830 hn        1 VAZ      0.451467
     44 HN2         8.9180    3.7670   -2.2910 hn        1 VAZ      0.451467
     45 HAY         5.0020    0.6050   -2.4390 h2        1 VAZ      0.115700
     46 HAR         6.3460    1.6090    2.8810 hs        1 VAZ      0.158000
     47 HAO2        3.4900    5.3020   -0.5980 ho        1 VAZ      0.443000
     48 HN3         8.3600    4.1150   -3.8350 hn        1 VAZ      0.451467
@<TRIPOS>BOND
     1    1    2 1   
     2    1   26 1   
     3    2    3 1   
     4    2    4 1   
     5    2   45 1   
     6    3   30 1   
     7    4    5 1   
     8    4    8 1   
     9    4   31 1   
    10    5    6 2   
    11    5    7 1   
    12    7    9 1   
    13    8    9 1   
    14    9   10 1   
    15    9   11 1   
    16   10   47 1   
    17   11   12 1   
    18   11   15 1   
    19   11   32 1   
    20   12   13 1   
    21   12   33 1   
    22   12   34 1   
    23   13   14 2   
    24   13   46 1   
    25   15   16 1   
    26   15   35 1   
    27   16   17 2   
    28   16   18 1   
    29   18   19 1   
    30   18   36 1   
    31   18   37 1   
    32   19   20 1   
    33   19   38 1   
    34   19   39 1   
    35   20   21 1   
    36   20   40 1   
    37   20   41 1   
    38   21   22 1   
    39   21   25 1   
    40   21   42 1   
    41   22   23 1   
    42   22   24 1   
    43   25   43 1   
    44   25   44 1   
    45   25   48 1   
    46   26   27 1   
    47   26   28 1   
    48   26   29 1   
@<TRIPOS>SUBSTRUCTURE
     1 VAZ         1 TEMP              0 ****  ****    0 ROOT
