@<TRIPOS>MOLECULE
VAZ
   48    48     1     0     0
SMALL
bcc


@<TRIPOS>ATOM
      1 SAQ         2.5780    0.7350   -2.8760 ss        1 VAZ     -0.318200
      2 CAY         3.9000    0.9130   -1.6730 c3        1 VAZ      0.223200
      3 OAJ         3.4980    0.6660   -0.3470 oh        1 VAZ     -0.588800
      4 CAZ         4.4130    2.3450   -1.8520 c3        1 VAZ      0.047100
      5 CAU         5.8630    2.4060   -2.2880 c         1 VAZ      0.704600
      6 OAI         6.4690    2.0650   -3.2970 o         1 VAZ     -0.575500
      7 OAE         6.5810    3.0400   -1.3160 os        1 VAZ     -0.543900
      8 OAP         4.4040    3.0080   -0.5860 os        1 VAZ     -0.474600
      9 CAV         5.6770    3.6270   -0.3020 c3        1 VAZ      0.684100
     10 OAF         5.6530    4.8980   -0.4890 o         1 VAZ     -0.790500
     11 CAX         6.2120    3.1120    1.1000 c3        1 VAZ      0.132500
     12 CAN         5.0590    2.5920    1.9380 c3        1 VAZ     -0.110100
     13 SAR         5.5170    1.8360    3.4590 s4        1 VAZ      0.207900
     14 OAG         6.2450    2.9380    4.1940 o         1 VAZ     -0.525200
     15 NAO         6.9420    4.2510    1.7650 ny        1 VAZ     -0.690800
     16 CAS         8.3810    4.3250    1.3230 c         1 VAZ      0.565100
     17 OAC         9.1550    3.5670    1.8920 o         1 VAZ     -0.447100
     18 CAL         8.6990    5.3190    0.2430 c3        1 VAZ     -0.156400
     19 CAK         9.3810    4.6120   -0.9150 c3        1 VAZ     -0.093400
     20 CB          9.5870    5.5270   -2.1020 c3        1 VAZ     -0.085400
     21 CA          8.3350    6.2000   -2.6320 c3        1 VAZ     -0.073500
     22 C           8.7370    7.0890   -3.9090 c         1 VAZ      0.935600
     23 O           7.9980    6.9400   -4.9140 o         1 VAZ     -0.766800
     24 OXT         9.7160    7.8360   -3.7360 o         1 VAZ     -0.766800
     25 N           7.2380    5.2580   -2.9850 nz        1 VAZ     -0.841600
     26 CAA         2.3470   -1.0000   -2.9560 c3        1 VAZ     -0.036000
     27 HAA1        2.0990   -1.4300   -1.9610 h1        1 VAZ      0.071367
     28 HAA2        1.4910   -1.1650   -3.6520 h1        1 VAZ      0.071367
     29 HAA3        3.2460   -1.5190   -3.3580 h1        1 VAZ      0.071367
     30 HAJ         2.8310    1.3310   -0.1170 ho        1 VAZ      0.426000
     31 HAZ         3.7590    2.9340   -2.5550 h1        1 VAZ      0.118700
     32 HAX         6.9630    2.2900    0.9160 hx        1 VAZ      0.106700
     33 HAN1        4.3010    3.4090    2.0620 h1        1 VAZ      0.136200
     34 HAN2        4.5460    1.8050    1.3090 h1        1 VAZ      0.136200
     35 HAO         6.9020    4.1480    2.7950 hn        1 VAZ      0.485300
     36 HAL1        7.7660    5.8320   -0.1250 hc        1 VAZ      0.109700
     37 HAL2        9.3830    6.0960    0.6830 hc        1 VAZ      0.109700
     38 HAK1        8.7660    3.7200   -1.2170 hc        1 VAZ      0.065200
     39 HAK2       10.3790    4.2240   -0.5760 hc        1 VAZ      0.065200
     40 HBC1       10.2970    6.3610   -1.8410 hc        1 VAZ      0.089700
     41 HBC2       10.0730    4.9350   -2.9250 hc        1 VAZ      0.089700
     42 HA          7.9220    6.9260   -1.8780 hx        1 VAZ      0.080700
     43 HN1         7.5930    4.3070   -3.1000 hn        1 VAZ      0.457800
     44 HN2         6.5100    5.2500   -2.2560 hn        1 VAZ      0.457800
     45 HAY         4.7040    0.1540   -1.8690 h2        1 VAZ      0.103700
     46 HAR         4.3270    1.8470    3.9870 hs        1 VAZ      0.192000
     47 HAO2        6.4540    5.1200    1.4740 hn        1 VAZ      0.485300
     48 HN3         6.8490    5.5840   -3.8910 hn        1 VAZ      0.457800
@<TRIPOS>BOND
     1    1    2 1   
     2    1   26 1   
     3    2    3 1   
     4    2    4 1   
     5    2   45 1   
     6    3   30 1   
     7    4    5 1   
     8    4    8 1   
     9    4   31 1   
    10    5    6 2   
    11    5    7 1   
    12    7    9 1   
    13    8    9 1   
    14    9   10 1   
    15    9   11 1   
    16   11   12 1   
    17   11   15 1   
    18   11   32 1   
    19   12   13 1   
    20   12   33 1   
    21   12   34 1   
    22   13   14 2   
    23   13   46 1   
    24   15   16 1   
    25   15   35 1   
    26   15   47 1   
    27   16   17 2   
    28   16   18 1   
    29   18   19 1   
    30   18   36 1   
    31   18   37 1   
    32   19   20 1   
    33   19   38 1   
    34   19   39 1   
    35   20   21 1   
    36   20   40 1   
    37   20   41 1   
    38   21   22 1   
    39   21   25 1   
    40   21   42 1   
    41   22   23 1   
    42   22   24 1   
    43   25   43 1   
    44   25   44 1   
    45   25   48 1   
    46   26   27 1   
    47   26   28 1   
    48   26   29 1   
@<TRIPOS>SUBSTRUCTURE
     1 VAZ         1 TEMP              0 ****  ****    0 ROOT
