@<TRIPOS>MOLECULE
VAZ
   48    48     1     0     0
SMALL
bcc


@<TRIPOS>ATOM
      1 SAQ         2.3120    0.8750   -2.7470 ss        1 VAZ     -0.324200
      2 CAY         3.7940    1.0130   -1.7390 c3        1 VAZ      0.226200
      3 OAJ         3.6350    0.5400   -0.4240 oh        1 VAZ     -0.585800
      4 CAZ         4.1620    2.5000   -1.7700 c3        1 VAZ      0.054100
      5 CAU         5.5640    2.7530   -2.2850 c         1 VAZ      0.728600
      6 OAI         6.1310    2.5490   -3.3600 o         1 VAZ     -0.641500
      7 OAE         6.2870    3.3550   -1.3100 os        1 VAZ     -0.546900
      8 OAP         4.1990    2.9910   -0.4280 os        1 VAZ     -0.478600
      9 CAV         5.3910    3.7660   -0.1820 c3        1 VAZ      0.689100
     10 OAF         5.2000    5.0250   -0.2580 o         1 VAZ     -0.736500
     11 CAX         6.1010    3.2260    1.1370 c3        1 VAZ      0.124500
     12 CAN         5.0550    2.6000    2.0400 c3        1 VAZ     -0.104100
     13 SAR         5.6520    1.9520    3.5650 s4        1 VAZ      0.205900
     14 OAG         6.1960    3.1720    4.2690 o         1 VAZ     -0.523200
     15 NAO         6.8140    4.3930    1.7760 n4        1 VAZ     -0.692800
     16 CAS         8.3030    4.3230    1.6130 c         1 VAZ      0.556100
     17 OAC         8.8900    3.4450    2.2330 o         1 VAZ     -0.448100
     18 CAL         8.9280    5.3250    0.6790 c3        1 VAZ     -0.144400
     19 CAK         8.4400    5.0720   -0.7320 c3        1 VAZ     -0.122400
     20 CB          9.3270    5.7170   -1.7720 c3        1 VAZ     -0.080400
     21 CA          8.6290    5.8670   -3.1140 c3        1 VAZ     -0.071500
     22 C           9.7120    6.4660   -4.1410 c         1 VAZ      0.934600
     23 O          10.0870    5.6700   -5.0370 o         1 VAZ     -0.764300
     24 OXT        10.0500    7.6390   -3.9090 o         1 VAZ     -0.764300
     25 N           8.0790    4.5930   -3.6580 n4        1 VAZ     -0.822600
     26 CAA         2.1660   -0.8550   -2.9930 c3        1 VAZ     -0.035000
     27 HAA1        2.1340   -1.4060   -2.0260 h1        1 VAZ      0.070367
     28 HAA2        1.2060   -1.0100   -3.5370 h1        1 VAZ      0.070367
     29 HAA3        3.0030   -1.2560   -3.6070 h1        1 VAZ      0.070367
     30 HAJ         2.9780    1.1050    0.0110 ho        1 VAZ      0.425000
     31 HAZ         3.4090    3.1070   -2.3470 h1        1 VAZ      0.120700
     32 HAX         6.8770    2.4630    0.8440 hx        1 VAZ      0.102700
     33 HAN1        4.6060    1.7500    1.4480 h1        1 VAZ      0.133700
     34 HAN2        4.2210    3.3370    2.1820 h1        1 VAZ      0.133700
     35 HAO         6.5900    4.4350    2.7850 hn        1 VAZ      0.490800
     36 HAL1       10.0440    5.1990    0.7430 hc        1 VAZ      0.102200
     37 HAL2        8.6790    6.3700    1.0060 hc        1 VAZ      0.102200
     38 HAK1        7.3830    5.4490   -0.8420 hc        1 VAZ      0.075700
     39 HAK2        8.4160    3.9600   -0.9010 hc        1 VAZ      0.075700
     40 HBC1        9.6230    6.7570   -1.4630 hc        1 VAZ      0.081700
     41 HBC2       10.2730    5.1270   -1.8930 hc        1 VAZ      0.081700
     42 HA          7.7810    6.6010   -3.0270 hx        1 VAZ      0.093700
     43 HN1         8.7950    4.2080   -4.3050 hn        1 VAZ      0.451467
     44 HN2         7.8530    3.9130   -2.9280 hn        1 VAZ      0.451467
     45 HAY         4.6100    0.3740   -2.1720 h2        1 VAZ      0.103700
     46 HAR         4.4820    1.7780    4.1080 hs        1 VAZ      0.189000
     47 HAO2        6.4470    5.2540    1.3060 hn        1 VAZ      0.490800
     48 HN3         7.2330    4.7770   -4.1970 hn        1 VAZ      0.451467
@<TRIPOS>BOND
     1    1    2 1   
     2    1   26 1   
     3    2    3 1   
     4    2    4 1   
     5    2   45 1   
     6    3   30 1   
     7    4    5 1   
     8    4    8 1   
     9    4   31 1   
    10    5    6 2   
    11    5    7 1   
    12    7    9 1   
    13    8    9 1   
    14    9   10 1   
    15    9   11 1   
    16   11   12 1   
    17   11   15 1   
    18   11   32 1   
    19   12   13 1   
    20   12   33 1   
    21   12   34 1   
    22   13   14 2   
    23   13   46 1   
    24   15   16 1   
    25   15   35 1   
    26   15   47 1   
    27   16   17 2   
    28   16   18 1   
    29   18   19 1   
    30   18   36 1   
    31   18   37 1   
    32   19   20 1   
    33   19   38 1   
    34   19   39 1   
    35   20   21 1   
    36   20   40 1   
    37   20   41 1   
    38   21   22 1   
    39   21   25 1   
    40   21   42 1   
    41   22   23 1   
    42   22   24 1   
    43   25   43 1   
    44   25   44 1   
    45   25   48 1   
    46   26   27 1   
    47   26   28 1   
    48   26   29 1   
@<TRIPOS>SUBSTRUCTURE
     1 VAZ         1 TEMP              0 ****  ****    0 ROOT
