@<TRIPOS>MOLECULE
VB1
   44    43     1     0     0
SMALL
bcc


@<TRIPOS>ATOM
      1 C1          6.6880    0.9250   -0.1790 c         1 VB1      0.886600
      2 C2          5.3680    0.2540    0.3280 c3        1 VB1      0.022500
      3 C3          4.2480    0.5890   -0.6590 c3        1 VB1     -0.065400
      4 CAV        -4.9160    0.4000   -0.0180 c3        1 VB1     -0.044300
      5 C4          3.0020   -0.2420   -0.4320 c3        1 VB1     -0.073400
      6 C7          1.9770    0.0350   -1.5130 c3        1 VB1     -0.150400
      7 C10         0.7490   -0.8460   -1.3890 c         1 VB1      0.658100
      8 N11        -0.1020   -0.6200   -0.3240 n         1 VB1     -0.559900
      9 C12        -1.4130   -1.2160   -0.2330 c3        1 VB1      0.022700
     10 C13        -2.4970   -0.1370    0.0820 c         1 VB1      0.628100
     11 N14         5.0320    0.5620    1.7120 n3        1 VB1     -0.890800
     12 O15         0.5190   -1.7630   -2.2080 o         1 VB1     -0.642100
     13 C16        -1.5230   -2.2760    0.8660 c3        1 VB1      0.007700
     14 S17        -0.7350   -3.8190    0.4860 sh        1 VB1     -0.435900
     15 O18        -2.1770    0.9000    0.7080 o         1 VB1     -0.655100
     16 O19         7.0270    0.7240   -1.3790 o         1 VB1     -0.848800
     17 O20         7.3610    1.6140    0.6410 o         1 VB1     -0.848800
     18 N29        -3.7520   -0.3800   -0.3940 n         1 VB1     -0.509900
     19 C31        -6.1860   -0.5090    0.1740 c         1 VB1      0.910600
     20 C33        -5.2700    1.4870   -1.0410 c3        1 VB1     -0.075400
     21 O42        -6.1340   -1.7150   -0.1950 o         1 VB1     -0.833800
     22 O43        -7.1900    0.0450    0.6970 o         1 VB1     -0.833800
     23 H321       -3.2660    2.3190   -1.1300 hc        1 VB1      0.022367
     24 H322       -4.5690    3.3920   -1.7980 hc        1 VB1      0.022367
     25 H323       -4.3890    3.1740   -0.0070 hc        1 VB1      0.022367
     26 H331       -5.2920    1.0520   -2.0740 hc        1 VB1      0.045700
     27 H332       -6.3120    1.8300   -0.7960 hc        1 VB1      0.045700
     28 HAV        -4.7080    0.9040    0.9710 h1        1 VB1      0.061700
     29 H29        -3.9730   -1.2940   -0.7370 hn        1 VB1      0.332500
     30 H12        -1.6440   -1.7080   -1.2290 h1        1 VB1      0.099700
     31 H161       -1.1130   -1.8840    1.8280 h1        1 VB1      0.085700
     32 H162       -2.6020   -2.5340    1.0230 h1        1 VB1      0.085700
     33 H11         0.0580    0.1670    0.2670 hn        1 VB1      0.332500
     34 H17         0.2140   -3.4060   -0.3500 hs        1 VB1      0.244800
     35 H7C1        1.6720    1.1130   -1.4840 hc        1 VB1      0.064700
     36 H7C2        2.4290   -0.1660   -2.5210 hc        1 VB1      0.064700
     37 H4C1        3.2710   -1.3310   -0.4390 hc        1 VB1      0.046700
     38 H4C2        2.5670   -0.0130    0.5760 hc        1 VB1      0.046700
     39 H3C1        3.9900    1.6780   -0.5920 hc        1 VB1      0.046700
     40 H3C2        4.6540    0.4020   -1.6900 hc        1 VB1      0.046700
     41 H2          5.5480   -0.8600    0.2880 h1        1 VB1      0.042700
     42 H141        5.8950    0.5820    2.2310 hn        1 VB1      0.329800
     43 H142        4.6570    1.4930    1.7520 hn        1 VB1      0.329800
     44 C32        -4.3230    2.6560   -0.9950 c3        1 VB1     -0.089100
@<TRIPOS>BOND
     1    1    2 1   
     2    1   16 1   
     3    1   17 1   
     4    2    3 1   
     5    2   11 1   
     6    2   41 1   
     7    3    5 1   
     8    3   39 1   
     9    3   40 1   
    10    4   18 1   
    11    4   19 1   
    12    4   20 1   
    13    4   28 1   
    14    5    6 1   
    15    5   37 1   
    16    5   38 1   
    17    6    7 1   
    18    6   35 1   
    19    6   36 1   
    20    7    8 1   
    21    7   12 2   
    22    8    9 1   
    23    8   33 1   
    24    9   10 1   
    25    9   13 1   
    26    9   30 1   
    27   10   15 2   
    28   10   18 1   
    29   11   42 1   
    30   11   43 1   
    31   13   14 1   
    32   13   31 1   
    33   13   32 1   
    34   14   34 1   
    35   18   29 1   
    36   19   21 1   
    37   19   22 1   
    38   20   26 1   
    39   20   27 1   
    40   20   44 1   
    41   23   44 1   
    42   24   44 1   
    43   25   44 1   
@<TRIPOS>SUBSTRUCTURE
     1 VB1         1 TEMP              0 ****  ****    0 ROOT
