@<TRIPOS>MOLECULE
VBP
   38    34     1     0     0
SMALL
bcc


@<TRIPOS>ATOM
      1 C10        -0.1390    0.9250    1.6730 c1        1 VBP     -0.099000
      2 C11         0.8700    0.0780    1.0060 c3        1 VBP     -0.098000
      3 C12         1.2280    0.3990   -0.3770 c2        1 VBP     -0.249000
      4 C13         0.5580    0.3000   -1.5780 c2        1 VBP     -0.063000
      5 C14         1.4500    0.7050   -2.6260 c2        1 VBP     -0.343000
      6 C15         1.1640    0.7640   -3.9720 c1        1 VBP      0.016000
      7 C16         0.8960    0.8200   -5.1420 c1        1 VBP     -0.389000
      8 C17         2.6990    1.0350   -1.9960 c2        1 VBP      0.340000
      9 C20         0.2280    3.1680    0.5670 c2        1 VBP      0.350000
     10 C22        -0.9380    5.0880   -2.3230 c1        1 VBP      0.452000
     11 N01        -3.0840    2.3230   -4.3770 n2        1 VBP     -0.359000
     12 C02        -3.9480    2.2070   -5.1660 c1        1 VBP      0.057000
     13 N04         1.6070    3.2790    0.5630 ns        1 VBP     -0.301000
     14 C05        -4.0000    2.9690    1.8880 c1        1 VBP      0.254000
     15 C06        -2.7540    2.9890    1.4780 c2        1 VBP     -0.528000
     16 C07        -1.5210    2.7370    2.2380 c2        1 VBP      0.451000
     17 O08        -1.4090    2.9540    3.4450 o         1 VBP     -0.273000
     18 N09        -0.3970    2.2010    1.4780 n         1 VBP     -0.206000
     19 O18         3.8170    1.4730   -2.3040 o         1 VBP     -0.433000
     20 O19         2.5600    0.8260   -0.5940 os        1 VBP     -0.250000
     21 H10        -0.0900   -2.1660   -0.8240 ha        1 VBP      0.001500
     22 H10A       -0.3540   -2.7500   -0.6020 ha        1 VBP      0.001500
     23 H12         0.4460   -0.9690    1.0400 hc        1 VBP      0.119500
     24 H13        -0.4720   -0.0150   -1.7230 ha        1 VBP      0.126000
     25 H15         0.6740    0.8630   -6.1720 ha        1 VBP      0.198000
     26 H16         1.7920    0.0820    1.6570 hc        1 VBP      0.119500
     27 HN01       -1.6230    2.1160   -1.4740 ha        1 VBP      0.001500
     28 HN0A       -2.2990    2.0600   -1.5130 ha        1 VBP      0.001500
     29 H02         2.7280    3.4360   -1.2300 h1        1 VBP      0.100333
     30 H05         2.1280    2.4640    0.8340 hn        1 VBP      0.248000
     31 H06        -2.5890    3.2370    0.3930 ha        1 VBP      0.258000
     32 H03         3.0660    4.6720    0.0790 h1        1 VBP      0.100333
     33 H03A        1.5360    4.7960   -0.9150 h1        1 VBP      0.100333
     34 O21        -0.5190    3.9460   -0.0810 o         1 VBP     -0.439000
     35 O24        -0.1020    5.9250   -2.1960 o         1 VBP     -0.227500
     36 H013       -2.3660    2.4220   -3.7260 hn        1 VBP      0.298000
     37 C03         2.2590    4.0840   -0.4360 c3        1 VBP     -0.110000
     38 O23        -1.7990    4.2830   -2.4890 o         1 VBP     -0.227500
@<TRIPOS>BOND
     1    1    2 1   
     2    1   18 1   
     3    2    3 1   
     4    2   23 1   
     5    2   26 1   
     6    3    4 1   
     7    3   20 1   
     8    4    5 1   
     9    4   24 1   
    10    5    6 1   
    11    5    8 1   
    12    6    7 1   
    13    7   25 1   
    14    8   19 1   
    15    8   20 1   
    16    9   13 1   
    17    9   18 1   
    18    9   34 1   
    19   10   35 1   
    20   10   38 1   
    21   11   12 1   
    22   11   36 1   
    23   13   30 1   
    24   13   37 1   
    25   14   15 1   
    26   15   16 1   
    27   15   31 1   
    28   16   17 1   
    29   16   18 1   
    30   21   22 1   
    31   27   28 1   
    32   29   37 1   
    33   32   37 1   
    34   33   37 1   
@<TRIPOS>SUBSTRUCTURE
     1 VBP         1 TEMP              0 ****  ****    0 ROOT
