@<TRIPOS>MOLECULE
VBP
   37    38     1     0     0
SMALL
bcc


@<TRIPOS>ATOM
      1 C10        -0.9450    0.8500   -1.5140 c3        1 VBP      0.149300
      2 C11        -2.2240    0.3560   -0.9060 ca        1 VBP     -0.141300
      3 C12        -3.1380    1.2650   -0.3610 ca        1 VBP     -0.138000
      4 C13        -4.3730    0.8220    0.1050 ca        1 VBP     -0.121500
      5 C14        -4.7160   -0.5330    0.0390 ca        1 VBP     -0.116600
      6 C15        -3.7860   -1.4420   -0.4780 ca        1 VBP     -0.121500
      7 C16        -2.5480   -1.0040   -0.9450 ca        1 VBP     -0.138000
      8 C17        -6.0790   -1.0060    0.5120 c         1 VBP      0.905200
      9 C20         1.1310    0.0400   -0.4510 c         1 VBP      0.802500
     10 C22         5.6760   -1.3440    0.1330 c         1 VBP      0.888600
     11 N01         4.9930    1.0840    0.1880 n3        1 VBP     -0.902800
     12 C02         4.5880   -0.2590   -0.1960 c3        1 VBP     -0.005500
     13 N04         2.1800    0.2060    0.4960 n         1 VBP     -0.349000
     14 C05         2.2350    1.3590    1.2500 cc        1 VBP      0.096600
     15 C06         1.3180    2.3570    1.1290 cd        1 VBP     -0.377200
     16 C07         0.2440    2.2660    0.1420 c         1 VBP      0.724700
     17 O08        -0.5570    3.1970   -0.0840 o         1 VBP     -0.659500
     18 N09         0.1580    1.0610   -0.5900 n         1 VBP     -0.482400
     19 O18        -6.3570   -2.2370    0.4110 o         1 VBP     -0.842300
     20 O19        -6.8830   -0.1480    0.9800 o         1 VBP     -0.842300
     21 H10        -0.6020    0.1150   -2.3000 h1        1 VBP      0.064200
     22 H10A       -1.1440    1.8450   -2.0110 h1        1 VBP      0.064200
     23 H12        -2.8660    2.3310   -0.3030 ha        1 VBP      0.127000
     24 H13        -5.1060    1.5250    0.5300 ha        1 VBP      0.144500
     25 H15        -4.0590   -2.5080   -0.5090 ha        1 VBP      0.144500
     26 H16        -1.8180   -1.7240   -1.3450 ha        1 VBP      0.127000
     27 HN01        5.4290    1.0300    1.0950 hn        1 VBP      0.335800
     28 HN0A        5.6970    1.3940   -0.4560 hn        1 VBP      0.335800
     29 H02         4.4050   -0.2720   -1.3080 h1        1 VBP      0.058700
     30 H05         3.0710    1.4170    1.9740 h4        1 VBP      0.164000
     31 H06         1.3440    3.2590    1.7490 ha        1 VBP      0.156000
     32 C03         3.2990   -0.7250    0.5140 c3        1 VBP      0.104000
     33 O23         5.8130   -2.2980   -0.6750 o         1 VBP     -0.831800
     34 H03         2.9730   -1.6830    0.0160 h1        1 VBP      0.078700
     35 H03A        3.5360   -0.9360    1.5950 h1        1 VBP      0.078700
     36 O21         1.0670   -1.0000   -1.1440 o         1 VBP     -0.647500
     37 O24         6.3600   -1.1730    1.1830 o         1 VBP     -0.831800
@<TRIPOS>BOND
     1    1    2 1   
     2    1   18 1   
     3    1   21 1   
     4    1   22 1   
     5    2    3 ar  
     6    2    7 ar  
     7    3    4 ar  
     8    3   23 1   
     9    4    5 ar  
    10    4   24 1   
    11    5    6 ar  
    12    5    8 1   
    13    6    7 ar  
    14    6   25 1   
    15    7   26 1   
    16    8   19 1   
    17    8   20 1   
    18    9   13 1   
    19    9   18 1   
    20    9   36 2   
    21   10   12 1   
    22   10   33 1   
    23   10   37 1   
    24   11   12 1   
    25   11   27 1   
    26   11   28 1   
    27   12   29 1   
    28   12   32 1   
    29   13   14 1   
    30   13   32 1   
    31   14   15 2   
    32   14   30 1   
    33   15   16 1   
    34   15   31 1   
    35   16   17 2   
    36   16   18 1   
    37   32   34 1   
    38   32   35 1   
@<TRIPOS>SUBSTRUCTURE
     1 VBP         1 TEMP              0 ****  ****    0 ROOT
