@<TRIPOS>MOLECULE
VBP
   38    36     1     0     0
SMALL
bcc


@<TRIPOS>ATOM
      1 C10         0.3630    0.0230    0.3350 c3        1 VBP     -0.022000
      2 C11         1.6310    0.8460    0.0350 c3        1 VBP     -0.028000
      3 C12         1.5990    2.1360    0.6690 c1        1 VBP     -0.155000
      4 C13         1.5910    3.2170    1.1820 c1        1 VBP     -0.221000
      5 C14         4.8370    0.2850   -1.2350 c1        1 VBP     -0.068000
      6 C15         3.9410    0.1710   -0.4440 c1        1 VBP     -0.334000
      7 C16         2.8610    0.0290    0.4810 c3        1 VBP     -0.001000
      8 C17         5.9150    0.4300   -2.2360 c2        1 VBP      0.410000
      9 C20        -1.2250    1.1310   -1.2290 c2        1 VBP      0.421000
     10 C22        -1.6430    4.9180   -2.4650 c2        1 VBP      0.272000
     11 N01        -2.8050    7.0740   -2.1450 n2        1 VBP     -0.175000
     12 C02        -2.7900    5.8740   -2.5660 c2        1 VBP     -0.059000
     13 N04        -0.5200    2.2080   -1.7530 n         1 VBP     -0.379000
     14 C05        -3.9420    2.0660    1.5340 c1        1 VBP      0.259000
     15 C06        -3.1930    1.3210    0.7540 c2        1 VBP     -0.538000
     16 C07        -1.8980    0.6870    1.0860 c2        1 VBP      0.412000
     17 O08        -1.6860    0.1940    2.2080 o         1 VBP     -0.343000
     18 N09        -0.9050    0.6840    0.1020 n         1 VBP     -0.349000
     19 O18         5.6010    0.9320   -3.3510 o         1 VBP     -0.547000
     20 O19         7.0730    0.0450   -1.9180 o         1 VBP     -0.547000
     21 H10         0.4010   -0.9040   -0.3090 h1        1 VBP      0.113500
     22 H10A        0.3920   -0.2940    1.4190 h1        1 VBP      0.113500
     23 H12         1.7180    0.9950   -1.0830 hc        1 VBP      0.131000
     24 H13         1.5950    4.1760    1.6310 ha        1 VBP      0.218000
     25 H15         3.1770    0.3550    1.5100 hc        1 VBP      0.084500
     26 H16         2.5740   -1.0590    0.5520 hc        1 VBP      0.084500
     27 HN01       -4.2340    2.0410   -2.3720 ha        1 VBP      0.001000
     28 HN0A       -3.6710    2.1260   -2.7390 ha        1 VBP      0.001000
     29 H02        -1.2660    1.9270   -3.7140 h2        1 VBP      0.141500
     30 H05         0.1300    2.7140   -1.1870 hn        1 VBP      0.270000
     31 H06        -3.5850    1.1060   -0.2720 ha        1 VBP      0.239000
     32 H03         0.0940    3.2110   -3.4770 h2        1 VBP      0.141500
     33 H03A       -3.6920    5.4580   -3.0610 h4        1 VBP      0.175000
     34 O21        -2.1150    0.5580   -1.8960 o         1 VBP     -0.374000
     35 O24        -1.8980    3.7070   -3.0260 os        1 VBP     -0.289000
     36 H013       -1.9740    7.4140   -1.7030 hn        1 VBP      0.165000
     37 C03        -0.8270    2.7260   -3.0460 c3        1 VBP      0.118000
     38 O23        -0.5450    5.1300   -1.9440 o         1 VBP     -0.342000
@<TRIPOS>BOND
     1    1    2 1   
     2    1   18 1   
     3    1   21 1   
     4    1   22 1   
     5    2    3 1   
     6    2    7 1   
     7    2   23 1   
     8    3    4 1   
     9    4   24 1   
    10    5    6 1   
    11    5    8 1   
    12    6    7 1   
    13    7   25 1   
    14    7   26 1   
    15    8   19 1   
    16    8   20 1   
    17    9   13 1   
    18    9   18 1   
    19    9   34 1   
    20   10   12 1   
    21   10   35 1   
    22   10   38 1   
    23   11   12 1   
    24   11   36 1   
    25   12   33 1   
    26   13   30 1   
    27   13   37 1   
    28   14   15 1   
    29   15   16 1   
    30   15   31 1   
    31   16   17 1   
    32   16   18 1   
    33   27   28 1   
    34   29   37 1   
    35   32   37 1   
    36   35   37 1   
@<TRIPOS>SUBSTRUCTURE
     1 VBP         1 TEMP              0 ****  ****    0 ROOT
