@<TRIPOS>MOLECULE
VBZ
   41    43     1     0     0
SMALL
bcc


@<TRIPOS>ATOM
      1 O2         28.7160   44.8280   -0.2940 oh        1 VBZ     -0.587800
      2 C2         27.7380   45.8080   -0.5590 c3        1 VBZ      0.126100
      3 C3         28.0090   47.1200    0.2080 c3        1 VBZ      0.084100
      4 O3         29.2030   47.1130    0.9620 oh        1 VBZ     -0.587800
      5 C4         28.0290   48.2960   -0.8060 c3        1 VBZ      0.117800
      6 O4         28.2960   49.5210   -0.1540 oh        1 VBZ     -0.585800
      7 C5         26.6390   48.3810   -1.4660 c3        1 VBZ     -0.090700
      8 C6         26.4710   49.6320   -2.3250 c3        1 VBZ      0.133400
      9 O6         27.1580   49.6060   -3.5600 oh        1 VBZ     -0.599800
     10 C7         26.3850   47.0720   -2.2090 c3        1 VBZ     -0.102400
     11 C8         29.1040   48.0090   -1.8830 c3        1 VBZ      0.124800
     12 N1         28.8630   46.7300   -2.5480 n3        1 VBZ     -0.728600
     13 C1         27.6040   46.1390   -2.0730 c3        1 VBZ      0.137500
     14 C9         28.9490   46.7720   -4.0020 c3        1 VBZ      0.221100
     15 C10        30.2200   47.3780   -4.5200 ca        1 VBZ     -0.093300
     16 C11        31.3830   46.6070   -4.6080 ca        1 VBZ     -0.115500
     17 C12        32.5500   47.1620   -5.1310 ca        1 VBZ     -0.133500
     18 C15        30.2350   48.7100   -4.9500 ca        1 VBZ     -0.115500
     19 C14        31.4040   49.2600   -5.4730 ca        1 VBZ     -0.133500
     20 C13        32.5620   48.4880   -5.5650 ca        1 VBZ     -0.125000
     21 H2         29.4890   45.0050   -0.8460 ho        1 VBZ      0.416000
     22 HA         26.7780   45.3460   -0.1950 h1        1 VBZ      0.082700
     23 H3         27.2040   47.3030    0.9740 h1        1 VBZ      0.086700
     24 H1         27.4220   45.1840   -2.6390 h1        1 VBZ      0.076700
     25 HB         29.8760   46.6380    0.4580 ho        1 VBZ      0.410000
     26 H4         29.0370   49.3560    0.4480 ho        1 VBZ      0.423000
     27 H5         25.8870   48.4830   -0.6320 hc        1 VBZ      0.065700
     28 H8C1       29.1230   48.8760   -2.6030 h1        1 VBZ      0.067700
     29 H8C2       30.1130   47.9430   -1.3880 h1        1 VBZ      0.067700
     30 H6C1       25.3750   49.8060   -2.5030 h1        1 VBZ      0.059700
     31 H6C2       26.9130   50.5150   -1.7830 h1        1 VBZ      0.059700
     32 H7C1       25.4870   46.5570   -1.7800 hc        1 VBZ      0.048200
     33 H7C2       26.1690   47.2550   -3.2910 hc        1 VBZ      0.048200
     34 H6         26.6990   48.9880   -4.1400 ho        1 VBZ      0.392000
     35 H9C1       28.8840   45.7040   -4.3610 h1        1 VBZ      0.037700
     36 H9C2       28.0780   47.3380   -4.4530 h1        1 VBZ      0.037700
     37 H11        31.3740   45.5630   -4.2630 ha        1 VBZ      0.141000
     38 H15        29.3210   49.3220   -4.8670 ha        1 VBZ      0.141000
     39 H12        33.4630   46.5530   -5.2000 ha        1 VBZ      0.132000
     40 H13        33.4830   48.9240   -5.9780 ha        1 VBZ      0.131000
     41 H14        31.4120   50.3070   -5.8110 ha        1 VBZ      0.132000
@<TRIPOS>BOND
     1    1    2 1   
     2    1   21 1   
     3    2    3 1   
     4    2   13 1   
     5    2   22 1   
     6    3    4 1   
     7    3    5 1   
     8    3   23 1   
     9    4   25 1   
    10    5    6 1   
    11    5    7 1   
    12    5   11 1   
    13    6   26 1   
    14    7    8 1   
    15    7   10 1   
    16    7   27 1   
    17    8    9 1   
    18    8   30 1   
    19    8   31 1   
    20    9   34 1   
    21   10   13 1   
    22   10   32 1   
    23   10   33 1   
    24   11   12 1   
    25   11   28 1   
    26   11   29 1   
    27   12   13 1   
    28   12   14 1   
    29   13   24 1   
    30   14   15 1   
    31   14   35 1   
    32   14   36 1   
    33   15   16 ar  
    34   15   18 ar  
    35   16   17 ar  
    36   16   37 1   
    37   17   20 ar  
    38   17   39 1   
    39   18   19 ar  
    40   18   38 1   
    41   19   20 ar  
    42   19   41 1   
    43   20   40 1   
@<TRIPOS>SUBSTRUCTURE
     1 VBZ         1 TEMP              0 ****  ****    0 ROOT
