@<TRIPOS>MOLECULE
VBZ
   41    43     1     0     0
SMALL
bcc


@<TRIPOS>ATOM
      1 O2          0.0160   -0.5580    0.3510 oh        1 VBZ     -0.591800
      2 C2          1.3230   -0.1060    0.0730 c3        1 VBZ      0.124100
      3 C3          2.1270    0.1360    1.3710 c3        1 VBZ      0.087100
      4 O3          1.4350   -0.1780    2.5600 oh        1 VBZ     -0.593800
      5 C4          3.4430   -0.6900    1.2940 c3        1 VBZ      0.110800
      6 O4          4.2100   -0.5590    2.4720 oh        1 VBZ     -0.589800
      7 C5          4.2530   -0.1350    0.1080 c3        1 VBZ     -0.090700
      8 C6          5.6850   -0.6550    0.0270 c3        1 VBZ      0.134400
      9 O6          5.8140   -1.9000   -0.6300 oh        1 VBZ     -0.605800
     10 C7          3.4560   -0.3720   -1.1730 c3        1 VBZ     -0.107400
     11 C8          3.0540   -2.1740    1.0780 c3        1 VBZ      0.132800
     12 N1          2.2950   -2.3620   -0.1550 n3        1 VBZ     -0.729600
     13 C1          2.1260   -1.0730   -0.8430 c3        1 VBZ      0.138500
     14 C9          2.8120   -3.4040   -1.0340 c3        1 VBZ      0.204100
     15 C10         2.9370   -4.7430   -0.3680 ca        1 VBZ     -0.092300
     16 C11         1.7930   -5.4430    0.0300 ca        1 VBZ     -0.118500
     17 C12         1.9120   -6.7040    0.6120 ca        1 VBZ     -0.131000
     18 C15         4.1990   -5.3130   -0.1760 ca        1 VBZ     -0.118500
     19 C14         4.3150   -6.5760    0.4040 ca        1 VBZ     -0.131000
     20 C13         3.1720   -7.2720    0.8000 ca        1 VBZ     -0.125000
     21 H2          0.0330   -1.5200    0.4400 ho        1 VBZ      0.418000
     22 HA          1.1730    0.8710   -0.4650 h1        1 VBZ      0.083700
     23 H3          2.3820    1.2280    1.4780 h1        1 VBZ      0.083700
     24 H1          1.5380   -1.2510   -1.7860 h1        1 VBZ      0.077700
     25 HB          0.7950   -0.8760    2.3700 ho        1 VBZ      0.414000
     26 H4          3.5890   -0.6000    3.2140 ho        1 VBZ      0.425000
     27 H5          4.3490    0.9760    0.2820 hc        1 VBZ      0.064700
     28 H8C1        3.9760   -2.8160    1.1240 h1        1 VBZ      0.053200
     29 H8C2        2.3880   -2.4940    1.9290 h1        1 VBZ      0.053200
     30 H6C1        6.1230   -0.7040    1.0600 h1        1 VBZ      0.059700
     31 H6C2        6.2940    0.0470   -0.6080 h1        1 VBZ      0.059700
     32 H7C1        4.0510   -0.9980   -1.8880 hc        1 VBZ      0.063700
     33 H7C2        3.2390    0.6020   -1.6790 hc        1 VBZ      0.063700
     34 H6          5.5100   -2.5840   -0.0220 ho        1 VBZ      0.399000
     35 H9C1        2.0830   -3.5000   -1.8900 h1        1 VBZ      0.051700
     36 H9C2        3.8170   -3.1200   -1.4720 h1        1 VBZ      0.051700
     37 H11         0.8000   -4.9920   -0.1180 ha        1 VBZ      0.135500
     38 H15         5.1030   -4.7680   -0.4890 ha        1 VBZ      0.135500
     39 H12         1.0100   -7.2510    0.9240 ha        1 VBZ      0.133500
     40 H13         3.2650   -8.2670    1.2580 ha        1 VBZ      0.133000
     41 H14         5.3090   -7.0230    0.5500 ha        1 VBZ      0.133500
@<TRIPOS>BOND
     1    1    2 1   
     2    1   21 1   
     3    2    3 1   
     4    2   13 1   
     5    2   22 1   
     6    3    4 1   
     7    3    5 1   
     8    3   23 1   
     9    4   25 1   
    10    5    6 1   
    11    5    7 1   
    12    5   11 1   
    13    6   26 1   
    14    7    8 1   
    15    7   10 1   
    16    7   27 1   
    17    8    9 1   
    18    8   30 1   
    19    8   31 1   
    20    9   34 1   
    21   10   13 1   
    22   10   32 1   
    23   10   33 1   
    24   11   12 1   
    25   11   28 1   
    26   11   29 1   
    27   12   13 1   
    28   12   14 1   
    29   13   24 1   
    30   14   15 1   
    31   14   35 1   
    32   14   36 1   
    33   15   16 ar  
    34   15   18 ar  
    35   16   17 ar  
    36   16   37 1   
    37   17   20 ar  
    38   17   39 1   
    39   18   19 ar  
    40   18   38 1   
    41   19   20 ar  
    42   19   41 1   
    43   20   40 1   
@<TRIPOS>SUBSTRUCTURE
     1 VBZ         1 TEMP              0 ****  ****    0 ROOT
