@<TRIPOS>MOLECULE
VBZ
   41    43     1     0     0
SMALL
bcc


@<TRIPOS>ATOM
      1 O2          0.0050   -0.5850    0.3590 oh        1 VBZ     -0.591800
      2 C2          1.3130   -0.1270    0.0920 c3        1 VBZ      0.124100
      3 C3          2.1090    0.1040    1.3970 c3        1 VBZ      0.087100
      4 O3          1.4110   -0.2220    2.5790 oh        1 VBZ     -0.593800
      5 C4          3.4270   -0.7180    1.3190 c3        1 VBZ      0.110800
      6 O4          4.1880   -0.5960    2.5020 oh        1 VBZ     -0.589800
      7 C5          4.2420   -0.1490    0.1420 c3        1 VBZ     -0.090700
      8 C6          5.6750   -0.6660    0.0640 c3        1 VBZ      0.134400
      9 O6          5.8110   -1.9040   -0.6040 oh        1 VBZ     -0.605800
     10 C7          3.4520   -0.3770   -1.1450 c3        1 VBZ     -0.107400
     11 C8          3.0430   -2.2010    1.0870 c3        1 VBZ      0.132800
     12 N1          2.2910   -2.3780   -0.1520 n3        1 VBZ     -0.729600
     13 C1          2.1220   -1.0840   -0.8290 c3        1 VBZ      0.138500
     14 C9          2.8150   -3.4110   -1.0380 c3        1 VBZ      0.204100
     15 C10         2.9390   -4.7560   -0.3830 ca        1 VBZ     -0.092300
     16 C11         1.7950   -5.4620    0.0030 ca        1 VBZ     -0.118500
     17 C12         1.9140   -6.7280    0.5740 ca        1 VBZ     -0.131000
     18 C15         4.2020   -5.3250   -0.1900 ca        1 VBZ     -0.118500
     19 C14         4.3180   -6.5930    0.3790 ca        1 VBZ     -0.131000
     20 C13         3.1750   -7.2950    0.7620 ca        1 VBZ     -0.125000
     21 H2          0.0230   -1.5480    0.4390 ho        1 VBZ      0.418000
     22 HA          1.1620    0.8550   -0.4370 h1        1 VBZ      0.083700
     23 H3          2.3610    1.1960    1.5150 h1        1 VBZ      0.083700
     24 H1          1.5400   -1.2540   -1.7760 h1        1 VBZ      0.077700
     25 HB          0.7740   -0.9200    2.3790 ho        1 VBZ      0.414000
     26 H4          3.5620   -0.6450    3.2400 ho        1 VBZ      0.425000
     27 H5          4.3350    0.9600    0.3270 hc        1 VBZ      0.064700
     28 H8C1        3.9660   -2.8410    1.1320 h1        1 VBZ      0.053200
     29 H8C2        2.3730   -2.5300    1.9310 h1        1 VBZ      0.053200
     30 H6C1        6.2870    0.0430   -0.5610 h1        1 VBZ      0.059700
     31 H6C2        6.1080   -0.7240    1.0990 h1        1 VBZ      0.059700
     32 H7C1        3.2360    0.6020   -1.6430 hc        1 VBZ      0.063700
     33 H7C2        4.0530   -0.9950   -1.8620 hc        1 VBZ      0.063700
     34 H6          5.5050   -2.5940   -0.0040 ho        1 VBZ      0.399000
     35 H9C1        2.0900   -3.5010   -1.8980 h1        1 VBZ      0.051700
     36 H9C2        3.8210   -3.1210   -1.4680 h1        1 VBZ      0.051700
     37 H11         0.8020   -5.0120   -0.1460 ha        1 VBZ      0.135500
     38 H15         5.1060   -4.7750   -0.4950 ha        1 VBZ      0.135500
     39 H12         1.0120   -7.2800    0.8770 ha        1 VBZ      0.133500
     40 H13         3.2680   -8.2940    1.2120 ha        1 VBZ      0.133000
     41 H14         5.3130   -7.0390    0.5250 ha        1 VBZ      0.133500
@<TRIPOS>BOND
     1    1    2 1   
     2    1   21 1   
     3    2    3 1   
     4    2   13 1   
     5    2   22 1   
     6    3    4 1   
     7    3    5 1   
     8    3   23 1   
     9    4   25 1   
    10    5    6 1   
    11    5    7 1   
    12    5   11 1   
    13    6   26 1   
    14    7    8 1   
    15    7   10 1   
    16    7   27 1   
    17    8    9 1   
    18    8   30 1   
    19    8   31 1   
    20    9   34 1   
    21   10   13 1   
    22   10   32 1   
    23   10   33 1   
    24   11   12 1   
    25   11   28 1   
    26   11   29 1   
    27   12   13 1   
    28   12   14 1   
    29   13   24 1   
    30   14   15 1   
    31   14   35 1   
    32   14   36 1   
    33   15   16 ar  
    34   15   18 ar  
    35   16   17 ar  
    36   16   37 1   
    37   17   20 ar  
    38   17   39 1   
    39   18   19 ar  
    40   18   38 1   
    41   19   20 ar  
    42   19   41 1   
    43   20   40 1   
@<TRIPOS>SUBSTRUCTURE
     1 VBZ         1 TEMP              0 ****  ****    0 ROOT
