@<TRIPOS>MOLECULE
VC2
   29    30     1     0     0
SMALL
bcc


@<TRIPOS>ATOM
      1 O           3.1720   -0.0790   -0.7480 o         1 VC2     -0.820300
      2 C           2.5730   -0.7010    0.1690 c         1 VC2      0.940600
      3 OXT         2.1250   -1.8730    0.0680 o         1 VC2     -0.820300
      4 CA          2.4880   -0.0070    1.5810 c3        1 VC2      0.035500
      5 N           1.2430   -0.2980    2.3110 n3        1 VC2     -0.675600
      6 CB          2.6870    1.5180    1.5460 c3        1 VC2      0.134100
      7 CG2         1.8440    2.2120    0.5090 c3        1 VC2     -0.086600
      8 CG1         4.1430    1.8730    1.3960 c3        1 VC2     -0.086600
      9 SAI         2.1120    2.0530    3.2100 ss        1 VC2     -0.461200
     10 CAO         1.0890    0.5900    3.4670 c3        1 VC2      0.281600
     11 CAG         1.4290   -0.0850    4.7960 c3        1 VC2     -0.033300
     12 SAH         1.3910   -1.8430    4.5320 ss        1 VC2     -0.375200
     13 CAK         1.0730   -1.6750    2.6990 c3        1 VC2      0.329600
     14 CAF        -0.3470   -2.2060    2.5620 c3        1 VC2      0.019700
     15 SAE        -0.6080   -3.1250    4.0640 sh        1 VC2     -0.335900
     16 H2          3.3720   -0.4480    2.1420 h1        1 VC2      0.036700
     17 H4          0.7650    1.9580    0.6410 hc        1 VC2      0.048533
     18 H5          2.1660    1.8760   -0.5110 hc        1 VC2      0.048533
     19 H6          1.9650    3.3200    0.5880 hc        1 VC2      0.048533
     20 H7          4.7460    1.4650    2.2430 hc        1 VC2      0.048533
     21 H8          4.2760    2.9810    1.3630 hc        1 VC2      0.048533
     22 H9          4.5140    1.4270    0.4350 hc        1 VC2      0.048533
     23 H10         0.0170    0.9270    3.4870 h2        1 VC2      0.078700
     24 H11         2.4460    0.2120    5.1450 h1        1 VC2      0.072200
     25 H12         0.6880    0.1950    5.5780 h1        1 VC2      0.072200
     26 H13         1.7860   -2.3450    2.1380 h2        1 VC2      0.152700
     27 H14        -1.1040   -1.3910    2.4850 h1        1 VC2      0.079200
     28 H15        -1.3230   -4.1290    3.5840 hs        1 VC2      0.092800
     29 H3         -0.4260   -2.8420    1.6500 h1        1 VC2      0.079200
@<TRIPOS>BOND
     1    1    2 1   
     2    2    3 1   
     3    2    4 1   
     4    4    5 1   
     5    4    6 1   
     6    4   16 1   
     7    5   10 1   
     8    5   13 1   
     9    6    7 1   
    10    6    8 1   
    11    6    9 1   
    12    7   17 1   
    13    7   18 1   
    14    7   19 1   
    15    8   20 1   
    16    8   21 1   
    17    8   22 1   
    18    9   10 1   
    19   10   11 1   
    20   10   23 1   
    21   11   12 1   
    22   11   24 1   
    23   11   25 1   
    24   12   13 1   
    25   13   14 1   
    26   13   26 1   
    27   14   15 1   
    28   14   27 1   
    29   14   29 1   
    30   15   28 1   
@<TRIPOS>SUBSTRUCTURE
     1 VC2         1 TEMP              0 ****  ****    0 ROOT
