@<TRIPOS>MOLECULE
VC2
   29    30     1     0     0
SMALL
bcc


@<TRIPOS>ATOM
      1 O           3.1720   -0.0810   -0.7470 o         1 VC2     -0.820300
      2 C           2.5930   -0.7060    0.1790 c         1 VC2      0.940600
      3 OXT         2.1800   -1.8930    0.0960 o         1 VC2     -0.820300
      4 CA          2.4870    0.0060    1.5810 c3        1 VC2      0.035500
      5 N           1.2520   -0.3110    2.3160 n3        1 VC2     -0.675600
      6 CB          2.6400    1.5360    1.5220 c3        1 VC2      0.134100
      7 CG2         1.7750    2.1880    0.4750 c3        1 VC2     -0.086600
      8 CG1         4.0840    1.9330    1.3650 c3        1 VC2     -0.086600
      9 SAI         2.0490    2.0800    3.1780 ss        1 VC2     -0.461200
     10 CAO         1.0710    0.5900    3.4580 c3        1 VC2      0.281600
     11 CAG         1.4320   -0.0540    4.7970 c3        1 VC2     -0.033300
     12 SAH         1.4480   -1.8160    4.5600 ss        1 VC2     -0.375200
     13 CAK         1.1240   -1.6860    2.7250 c3        1 VC2      0.329600
     14 CAF        -0.2800   -2.2620    2.5980 c3        1 VC2      0.019700
     15 SAE        -0.5120   -3.1650    4.1140 sh        1 VC2     -0.335900
     16 H2          3.3840   -0.3980    2.1470 h1        1 VC2      0.036700
     17 H4          2.1080    1.8470   -0.5410 hc        1 VC2      0.048533
     18 H5          1.8630    3.3000    0.5360 hc        1 VC2      0.048533
     19 H6          0.7050    1.9030    0.6120 hc        1 VC2      0.048533
     20 H7          4.6990    1.5560    2.2180 hc        1 VC2      0.048533
     21 H8          4.1830    3.0430    1.3150 hc        1 VC2      0.048533
     22 H9          4.4690    1.4840    0.4110 hc        1 VC2      0.048533
     23 H10        -0.0110    0.8950    3.4740 h2        1 VC2      0.078700
     24 H11         0.6830    0.2150    5.5760 h1        1 VC2      0.072200
     25 H12         2.4390    0.2800    5.1400 h1        1 VC2      0.072200
     26 H13         1.8570   -2.3430    2.1740 h2        1 VC2      0.152700
     27 H14        -0.3400   -2.9140    1.6950 h1        1 VC2      0.079200
     28 H15        -1.1960   -4.1970    3.6500 hs        1 VC2      0.092800
     29 H3         -1.0610   -1.4720    2.5080 h1        1 VC2      0.079200
@<TRIPOS>BOND
     1    1    2 1   
     2    2    3 1   
     3    2    4 1   
     4    4    5 1   
     5    4    6 1   
     6    4   16 1   
     7    5   10 1   
     8    5   13 1   
     9    6    7 1   
    10    6    8 1   
    11    6    9 1   
    12    7   17 1   
    13    7   18 1   
    14    7   19 1   
    15    8   20 1   
    16    8   21 1   
    17    8   22 1   
    18    9   10 1   
    19   10   11 1   
    20   10   23 1   
    21   11   12 1   
    22   11   24 1   
    23   11   25 1   
    24   12   13 1   
    25   13   14 1   
    26   13   26 1   
    27   14   15 1   
    28   14   27 1   
    29   14   29 1   
    30   15   28 1   
@<TRIPOS>SUBSTRUCTURE
     1 VC2         1 TEMP              0 ****  ****    0 ROOT
