@<TRIPOS>MOLECULE
VC3
   21    22     1     0     0
SMALL
bcc


@<TRIPOS>ATOM
      1 N1         -0.0270    0.0150   -0.0340 no        1 VC3      0.313200
      2 N2          6.5240   -0.3460   -0.9210 nc        1 VC3     -0.494800
      3 C3          5.7010    0.0080    0.1200 cd        1 VC3      0.330800
      4 N4          7.7690   -0.2110   -0.4850 na        1 VC3     -0.006600
      5 C5          1.4570    0.0090    0.0000 ca        1 VC3     -0.179200
      6 C6          6.5090    0.3840    1.2670 cd        1 VC3     -0.271300
      7 O7         -0.6350   -0.0080    1.0030 o         1 VC3     -0.211000
      8 O8         -0.5860    0.0420   -1.0990 o         1 VC3     -0.211000
      9 C9          4.2510    0.0040    0.0660 ca        1 VC3     -0.057500
     10 C10         7.8330    0.2310    0.8410 cc        1 VC3     -0.148300
     11 C11         2.1230   -0.0220    1.2370 ca        1 VC3     -0.069000
     12 C12         2.1810    0.0350   -1.2030 ca        1 VC3     -0.069000
     13 C13         3.5130   -0.0260    1.2600 ca        1 VC3     -0.128000
     14 C14         3.5720    0.0320   -1.1620 ca        1 VC3     -0.128000
     15 H4          8.5330   -0.4270   -1.0830 hn        1 VC3      0.326700
     16 H6          6.1530    0.7200    2.2340 ha        1 VC3      0.170000
     17 H10         8.7800    0.3950    1.3540 h4        1 VC3      0.182000
     18 H11         1.5470   -0.0450    2.1780 ha        1 VC3      0.170500
     19 H12         1.6510    0.0570   -2.1710 ha        1 VC3      0.170500
     20 H13         4.0360   -0.0580    2.2280 ha        1 VC3      0.155500
     21 H14         4.1360    0.0510   -2.1080 ha        1 VC3      0.155500
@<TRIPOS>BOND
     1    1    5 1   
     2    1    7 1   
     3    1    8 1   
     4    2    3 2   
     5    2    4 1   
     6    3    6 1   
     7    3    9 1   
     8    4   10 1   
     9    4   15 1   
    10    5   11 ar  
    11    5   12 ar  
    12    6   10 2   
    13    6   16 1   
    14    9   13 ar  
    15    9   14 ar  
    16   10   17 1   
    17   11   13 ar  
    18   11   18 1   
    19   12   14 ar  
    20   12   19 1   
    21   13   20 1   
    22   14   21 1   
@<TRIPOS>SUBSTRUCTURE
     1 VC3         1 TEMP              0 ****  ****    0 ROOT
