@<TRIPOS>MOLECULE
VC3
   21    22     1     0     0
SMALL
bcc


@<TRIPOS>ATOM
      1 N1         73.8540   66.7610    0.9030 no        1 VC3      0.313200
      2 N2         79.1220   65.8970    4.8190 nc        1 VC3     -0.494800
      3 C3         78.6890   65.3510    3.6360 cd        1 VC3      0.330800
      4 N4         80.2710   65.3050    5.1140 na        1 VC3     -0.006600
      5 C5         75.1060   66.4010    1.6150 ca        1 VC3     -0.179200
      6 C6         79.6470   64.3560    3.1850 cd        1 VC3     -0.271300
      7 O7         73.7500   66.4950   -0.2650 o         1 VC3     -0.211000
      8 O8         72.9740   67.3090    1.5110 o         1 VC3     -0.211000
      9 C9         77.4620   65.7190    2.9550 ca        1 VC3     -0.057500
     10 C10        80.6510   64.3540    4.1610 cc        1 VC3     -0.148300
     11 C11        76.1420   65.7600    0.9150 ca        1 VC3     -0.069000
     12 C12        75.2430   66.7050    2.9780 ca        1 VC3     -0.069000
     13 C13        77.3110   65.4260    1.5900 ca        1 VC3     -0.128000
     14 C14        76.4190   66.3620    3.6390 ca        1 VC3     -0.128000
     15 H4         80.7670   65.5610    5.9370 hn        1 VC3      0.326700
     16 H6         79.5830   63.7460    2.2920 ha        1 VC3      0.170000
     17 H10        81.5680   63.7750    4.2510 h4        1 VC3      0.182000
     18 H11        76.0290   65.5280   -0.1570 ha        1 VC3      0.170500
     19 H12        74.4260   67.2100    3.5210 ha        1 VC3      0.170500
     20 H13        78.1280   64.9300    1.0420 ha        1 VC3      0.155500
     21 H14        76.5230   66.6030    4.7090 ha        1 VC3      0.155500
@<TRIPOS>BOND
     1    1    5 1   
     2    1    7 1   
     3    1    8 1   
     4    2    3 2   
     5    2    4 1   
     6    3    6 1   
     7    3    9 1   
     8    4   10 1   
     9    4   15 1   
    10    5   11 ar  
    11    5   12 ar  
    12    6   10 2   
    13    6   16 1   
    14    9   13 ar  
    15    9   14 ar  
    16   10   17 1   
    17   11   13 ar  
    18   11   18 1   
    19   12   14 ar  
    20   12   19 1   
    21   13   20 1   
    22   14   21 1   
@<TRIPOS>SUBSTRUCTURE
     1 VC3         1 TEMP              0 ****  ****    0 ROOT
