@<TRIPOS>MOLECULE
VC3
   21    22     1     0     0
SMALL
bcc


@<TRIPOS>ATOM
      1 N1         -0.0270    0.0150   -0.0340 no        1 VC3      0.313200
      2 N2          6.5240   -0.3610   -0.9170 nc        1 VC3     -0.494800
      3 C3          5.7010    0.0060    0.1200 cd        1 VC3      0.330800
      4 N4          7.7690   -0.2220   -0.4820 na        1 VC3     -0.006600
      5 C5          1.4570    0.0090    0.0010 ca        1 VC3     -0.179200
      6 C6          6.5090    0.3960    1.2630 cd        1 VC3     -0.271300
      7 O7         -0.6350    0.0070    1.0040 o         1 VC3     -0.211000
      8 O8         -0.5860    0.0280   -1.0980 o         1 VC3     -0.211000
      9 C9          4.2510    0.0020    0.0670 ca        1 VC3     -0.057500
     10 C10         7.8340    0.2360    0.8380 cc        1 VC3     -0.148300
     11 C11         2.1230   -0.0060    1.2380 ca        1 VC3     -0.069000
     12 C12         2.1810    0.0180   -1.2020 ca        1 VC3     -0.069000
     13 C13         3.5130   -0.0110    1.2610 ca        1 VC3     -0.128000
     14 C14         3.5720    0.0140   -1.1620 ca        1 VC3     -0.128000
     15 H4          8.5320   -0.4460   -1.0780 hn        1 VC3      0.326700
     16 H6          6.1540    0.7440    2.2250 ha        1 VC3      0.170000
     17 H10         8.7800    0.4060    1.3490 h4        1 VC3      0.182000
     18 H11         1.5470   -0.0170    2.1790 ha        1 VC3      0.170500
     19 H12         1.6510    0.0280   -2.1700 ha        1 VC3      0.170500
     20 H13         4.0360   -0.0300    2.2290 ha        1 VC3      0.155500
     21 H14         4.1360    0.0210   -2.1080 ha        1 VC3      0.155500
@<TRIPOS>BOND
     1    1    5 1   
     2    1    7 1   
     3    1    8 1   
     4    2    3 2   
     5    2    4 1   
     6    3    6 1   
     7    3    9 1   
     8    4   10 1   
     9    4   15 1   
    10    5   11 ar  
    11    5   12 ar  
    12    6   10 2   
    13    6   16 1   
    14    9   13 ar  
    15    9   14 ar  
    16   10   17 1   
    17   11   13 ar  
    18   11   18 1   
    19   12   14 ar  
    20   12   19 1   
    21   13   20 1   
    22   14   21 1   
@<TRIPOS>SUBSTRUCTURE
     1 VC3         1 TEMP              0 ****  ****    0 ROOT
