@<TRIPOS>MOLECULE
VCA
   53    52     1     0     0
SMALL
bcc


@<TRIPOS>ATOM
      1 O2         10.0210   -0.8260   -0.3240 o         1 VCA     -0.853800
      2 C1          9.0910   -0.3390    0.3830 c         1 VCA      0.907600
      3 O1          9.2570    0.6020    1.2120 o         1 VCA     -0.853800
      4 C2          7.6860   -0.9490    0.2340 c3        1 VCA     -0.194400
      5 C3          6.6310    0.1240    0.1260 c3        1 VCA     -0.065400
      6 C4          5.2310   -0.4540    0.1650 c3        1 VCA     -0.078400
      7 C5          4.1810    0.6290    0.0370 c3        1 VCA     -0.078400
      8 C6          2.7810    0.0530    0.0860 c3        1 VCA     -0.078400
      9 C7          1.7330    1.1370   -0.0440 c3        1 VCA     -0.079400
     10 C8          0.3340    0.5610    0.0050 c3        1 VCA     -0.079400
     11 C9         -0.7140    1.6450   -0.1240 c3        1 VCA     -0.077400
     12 C10        -2.1120    1.0650   -0.0750 c3        1 VCA     -0.051200
     13 C11        -3.1600    2.1040   -0.2000 c2        1 VCA     -0.164200
     14 C12        -4.4720    1.8430   -0.1940 c2        1 VCA     -0.185200
     15 C13        -5.0370    0.4790   -0.0620 c3        1 VCA     -0.047200
     16 C14        -6.5510    0.4800   -0.0770 c3        1 VCA     -0.076400
     17 C15        -7.1000   -0.9240    0.0600 c3        1 VCA     -0.080400
     18 C16        -8.6140   -0.9260    0.0460 c3        1 VCA     -0.078400
     19 C17        -9.1640   -2.3290    0.1820 c3        1 VCA     -0.080400
     20 C18       -10.6710   -2.3370    0.1690 c3        1 VCA     -0.092100
     21 H21         7.6620   -1.6120   -0.6660 hc        1 VCA      0.018700
     22 H22         7.4930   -1.5850    1.1350 hc        1 VCA      0.018700
     23 H31         6.7720    0.8540    0.9680 hc        1 VCA      0.043700
     24 H32         6.7740    0.6930   -0.8300 hc        1 VCA      0.043700
     25 H41         5.1070   -1.1970   -0.6650 hc        1 VCA      0.025700
     26 H42         5.0820   -1.0080    1.1290 hc        1 VCA      0.025700
     27 H51         4.3100    1.3750    0.8650 hc        1 VCA      0.036700
     28 H52         4.3270    1.1800   -0.9290 hc        1 VCA      0.036700
     29 H61         2.6540   -0.6940   -0.7410 hc        1 VCA      0.034200
     30 H62         2.6360   -0.4970    1.0530 hc        1 VCA      0.034200
     31 H71         1.8610    1.8840    0.7830 hc        1 VCA      0.038200
     32 H72         1.8790    1.6870   -1.0110 hc        1 VCA      0.038200
     33 H81         0.2070   -0.1870   -0.8220 hc        1 VCA      0.037200
     34 H82         0.1890    0.0110    0.9730 hc        1 VCA      0.037200
     35 H91        -0.5870    2.3920    0.7030 hc        1 VCA      0.040700
     36 H92        -0.5680    2.1950   -1.0910 hc        1 VCA      0.040700
     37 H101       -2.2350    0.3100   -0.9000 hc        1 VCA      0.047200
     38 H102       -2.2530    0.5080    0.8930 hc        1 VCA      0.047200
     39 H11        -2.8000    3.1410   -0.3020 ha        1 VCA      0.122000
     40 H12        -5.2030    2.6610   -0.2910 ha        1 VCA      0.117000
     41 H131       -4.6530   -0.1670   -0.9000 hc        1 VCA      0.047700
     42 H132       -4.6700    0.0140    0.8950 hc        1 VCA      0.047700
     43 H141       -6.9350    1.1180    0.7630 hc        1 VCA      0.039700
     44 H142       -6.9180    0.9360   -1.0340 hc        1 VCA      0.039700
     45 H151       -6.7150   -1.5610   -0.7790 hc        1 VCA      0.040700
     46 H152       -6.7320   -1.3800    1.0170 hc        1 VCA      0.040700
     47 H161       -8.9990   -0.2880    0.8850 hc        1 VCA      0.038700
     48 H162       -8.9820   -0.4700   -0.9110 hc        1 VCA      0.038700
     49 H171       -8.7760   -2.9660   -0.6560 hc        1 VCA      0.038700
     50 H172       -8.7940   -2.7840    1.1390 hc        1 VCA      0.038700
     51 H181      -11.0760   -1.7280    1.0130 hc        1 VCA      0.031367
     52 H182      -11.0590   -1.9100   -0.7880 hc        1 VCA      0.031367
     53 H183      -11.0550   -3.3800    0.2710 hc        1 VCA      0.031367
@<TRIPOS>BOND
     1    1    2 1   
     2    2    3 1   
     3    2    4 1   
     4    4    5 1   
     5    4   21 1   
     6    4   22 1   
     7    5    6 1   
     8    5   23 1   
     9    5   24 1   
    10    6    7 1   
    11    6   25 1   
    12    6   26 1   
    13    7    8 1   
    14    7   27 1   
    15    7   28 1   
    16    8    9 1   
    17    8   29 1   
    18    8   30 1   
    19    9   10 1   
    20    9   31 1   
    21    9   32 1   
    22   10   11 1   
    23   10   33 1   
    24   10   34 1   
    25   11   12 1   
    26   11   35 1   
    27   11   36 1   
    28   12   13 1   
    29   12   37 1   
    30   12   38 1   
    31   13   14 2   
    32   13   39 1   
    33   14   15 1   
    34   14   40 1   
    35   15   16 1   
    36   15   41 1   
    37   15   42 1   
    38   16   17 1   
    39   16   43 1   
    40   16   44 1   
    41   17   18 1   
    42   17   45 1   
    43   17   46 1   
    44   18   19 1   
    45   18   47 1   
    46   18   48 1   
    47   19   20 1   
    48   19   49 1   
    49   19   50 1   
    50   20   51 1   
    51   20   52 1   
    52   20   53 1   
@<TRIPOS>SUBSTRUCTURE
     1 VCA         1 TEMP              0 ****  ****    0 ROOT
