@<TRIPOS>MOLECULE
VCA
   53    52     1     0     0
SMALL
bcc


@<TRIPOS>ATOM
      1 O2          0.3100    0.1400    0.9840 o         1 VCA     -0.853800
      2 C1          1.2050    0.8270    0.4110 c         1 VCA      0.907600
      3 O1          1.5090    2.0070    0.7490 o         1 VCA     -0.853800
      4 C2          1.9450    0.1890   -0.7780 c3        1 VCA     -0.194400
      5 C3          3.4340    0.4080   -0.6790 c3        1 VCA     -0.065400
      6 C4          4.1570   -0.0500   -1.9290 c3        1 VCA     -0.078400
      7 C5          5.6520    0.1570   -1.8120 c3        1 VCA     -0.078400
      8 C6          6.3750   -0.2910   -3.0640 c3        1 VCA     -0.078400
      9 C7          7.8690   -0.0850   -2.9450 c3        1 VCA     -0.079400
     10 C8          8.5900   -0.5330   -4.1980 c3        1 VCA     -0.079400
     11 C9         10.0850   -0.3270   -4.0770 c3        1 VCA     -0.077400
     12 C10        10.8030   -0.7760   -5.3330 c3        1 VCA     -0.051200
     13 C11        12.2700   -0.5860   -5.2440 c2        1 VCA     -0.164200
     14 C12        13.1230   -0.9140   -6.2200 c2        1 VCA     -0.185200
     15 C13        12.7050   -1.5070   -7.5120 c3        1 VCA     -0.047200
     16 C14        13.8790   -1.7670   -8.4330 c3        1 VCA     -0.076400
     17 C15        13.4220   -2.3730   -9.7430 c3        1 VCA     -0.080400
     18 C16        14.5940   -2.6330  -10.6650 c3        1 VCA     -0.078400
     19 C17        14.1380   -3.2390  -11.9760 c3        1 VCA     -0.080400
     20 C18        15.3010   -3.5000  -12.8980 c3        1 VCA     -0.092100
     21 H21         1.5510    0.6570   -1.7160 hc        1 VCA      0.018700
     22 H22         1.7130   -0.9050   -0.8160 hc        1 VCA      0.018700
     23 H31         3.6260    1.5000   -0.4990 hc        1 VCA      0.043700
     24 H32         3.8350   -0.1480    0.2090 hc        1 VCA      0.043700
     25 H41         3.7690    0.5180   -2.8150 hc        1 VCA      0.025700
     26 H42         3.9420   -1.1350   -2.1130 hc        1 VCA      0.025700
     27 H51         5.8650    1.2420   -1.6220 hc        1 VCA      0.036700
     28 H52         6.0410   -0.4150   -0.9290 hc        1 VCA      0.036700
     29 H61         5.9860    0.2820   -3.9470 hc        1 VCA      0.034200
     30 H62         6.1590   -1.3760   -3.2550 hc        1 VCA      0.034200
     31 H71         8.0840    0.9990   -2.7540 hc        1 VCA      0.038200
     32 H72         8.2580   -0.6580   -2.0620 hc        1 VCA      0.038200
     33 H81         8.3740   -1.6180   -4.3880 hc        1 VCA      0.037200
     34 H82         8.2010    0.0410   -5.0800 hc        1 VCA      0.037200
     35 H91        10.4740   -0.9010   -3.1960 hc        1 VCA      0.040700
     36 H92        10.3010    0.7570   -3.8880 hc        1 VCA      0.040700
     37 H101       10.5780   -1.8610   -5.5270 hc        1 VCA      0.047200
     38 H102       10.4070   -0.2040   -6.2170 hc        1 VCA      0.047200
     39 H11        12.6430   -0.1470   -4.3030 ha        1 VCA      0.122000
     40 H12        14.2050   -0.7480   -6.0930 ha        1 VCA      0.117000
     41 H131       12.1570   -2.4710   -7.3190 hc        1 VCA      0.047700
     42 H132       11.9730   -0.8190   -8.0200 hc        1 VCA      0.047700
     43 H141       14.6050   -2.4600   -7.9310 hc        1 VCA      0.039700
     44 H142       14.4210   -0.8060   -8.6310 hc        1 VCA      0.039700
     45 H151       12.6960   -1.6800  -10.2440 hc        1 VCA      0.040700
     46 H152       12.8790   -3.3340   -9.5440 hc        1 VCA      0.040700
     47 H161       15.3200   -3.3260  -10.1640 hc        1 VCA      0.038700
     48 H162       15.1370   -1.6720  -10.8640 hc        1 VCA      0.038700
     49 H171       13.5940   -4.1990  -11.7750 hc        1 VCA      0.038700
     50 H172       13.4110   -2.5450  -12.4750 hc        1 VCA      0.038700
     51 H181       14.9440   -3.9460  -13.8580 hc        1 VCA      0.031367
     52 H182       16.0250   -4.2090  -12.4280 hc        1 VCA      0.031367
     53 H183       15.8420   -2.5510  -13.1300 hc        1 VCA      0.031367
@<TRIPOS>BOND
     1    1    2 1   
     2    2    3 1   
     3    2    4 1   
     4    4    5 1   
     5    4   21 1   
     6    4   22 1   
     7    5    6 1   
     8    5   23 1   
     9    5   24 1   
    10    6    7 1   
    11    6   25 1   
    12    6   26 1   
    13    7    8 1   
    14    7   27 1   
    15    7   28 1   
    16    8    9 1   
    17    8   29 1   
    18    8   30 1   
    19    9   10 1   
    20    9   31 1   
    21    9   32 1   
    22   10   11 1   
    23   10   33 1   
    24   10   34 1   
    25   11   12 1   
    26   11   35 1   
    27   11   36 1   
    28   12   13 1   
    29   12   37 1   
    30   12   38 1   
    31   13   14 2   
    32   13   39 1   
    33   14   15 1   
    34   14   40 1   
    35   15   16 1   
    36   15   41 1   
    37   15   42 1   
    38   16   17 1   
    39   16   43 1   
    40   16   44 1   
    41   17   18 1   
    42   17   45 1   
    43   17   46 1   
    44   18   19 1   
    45   18   47 1   
    46   18   48 1   
    47   19   20 1   
    48   19   49 1   
    49   19   50 1   
    50   20   51 1   
    51   20   52 1   
    52   20   53 1   
@<TRIPOS>SUBSTRUCTURE
     1 VCA         1 TEMP              0 ****  ****    0 ROOT
