@<TRIPOS>MOLECULE
VCA
   53    52     1     0     0
SMALL
bcc


@<TRIPOS>ATOM
      1 O2          0.1910    1.1960    0.5320 o         1 VCA     -0.853800
      2 C1          1.2580    0.5180    0.5690 c         1 VCA      0.907600
      3 O1          1.7700    0.0700    1.6350 o         1 VCA     -0.853800
      4 C2          1.9540    0.2070   -0.7690 c3        1 VCA     -0.194400
      5 C3          3.4410    0.4480   -0.6830 c3        1 VCA     -0.065400
      6 C4          4.1630   -0.0280   -1.9260 c3        1 VCA     -0.078400
      7 C5          5.6510    0.2340   -1.8380 c3        1 VCA     -0.078400
      8 C6          6.3750   -0.2500   -3.0760 c3        1 VCA     -0.078400
      9 C7          7.8620    0.0150   -2.9870 c3        1 VCA     -0.079400
     10 C8          8.5850   -0.4710   -4.2250 c3        1 VCA     -0.079400
     11 C9         10.0720   -0.2050   -4.1350 c3        1 VCA     -0.077400
     12 C10        10.7930   -0.6930   -5.3740 c3        1 VCA     -0.051200
     13 C11        12.2520   -0.4450   -5.3150 c2        1 VCA     -0.164200
     14 C12        13.1060   -0.7930   -6.2840 c2        1 VCA     -0.185200
     15 C13        12.6960   -1.4710   -7.5350 c3        1 VCA     -0.047200
     16 C14        13.8680   -1.7360   -8.4570 c3        1 VCA     -0.076400
     17 C15        13.4200   -2.4290   -9.7260 c3        1 VCA     -0.080400
     18 C16        14.5900   -2.6940  -10.6490 c3        1 VCA     -0.078400
     19 C17        14.1430   -3.3880  -11.9190 c3        1 VCA     -0.080400
     20 C18        15.3040   -3.6540  -12.8420 c3        1 VCA     -0.092100
     21 H21         1.5030    0.8360   -1.5770 hc        1 VCA      0.018700
     22 H22         1.7530   -0.8670   -1.0160 hc        1 VCA      0.018700
     23 H31         3.6340    1.5420   -0.5340 hc        1 VCA      0.043700
     24 H32         3.8390   -0.0840    0.2230 hc        1 VCA      0.043700
     25 H41         3.7430    0.4910   -2.8280 hc        1 VCA      0.025700
     26 H42         3.9840   -1.1270   -2.0660 hc        1 VCA      0.025700
     27 H51         5.8300    1.3340   -1.7040 hc        1 VCA      0.036700
     28 H52         6.0680   -0.2800   -0.9330 hc        1 VCA      0.036700
     29 H61         5.9550    0.2630   -3.9820 hc        1 VCA      0.034200
     30 H62         6.1960   -1.3500   -3.2090 hc        1 VCA      0.034200
     31 H71         8.0400    1.1150   -2.8550 hc        1 VCA      0.038200
     32 H72         8.2810   -0.4980   -2.0810 hc        1 VCA      0.038200
     33 H81         8.4070   -1.5710   -4.3560 hc        1 VCA      0.037200
     34 H82         8.1650    0.0410   -5.1300 hc        1 VCA      0.037200
     35 H91        10.4920   -0.7170   -3.2290 hc        1 VCA      0.040200
     36 H92        10.2500    0.8950   -4.0040 hc        1 VCA      0.040200
     37 H101       10.6070   -1.7950   -5.5070 hc        1 VCA      0.047200
     38 H102       10.3650   -0.1840   -6.2820 hc        1 VCA      0.047200
     39 H11        12.6180    0.0580   -4.4050 ha        1 VCA      0.122000
     40 H12        14.1820   -0.5800   -6.1800 ha        1 VCA      0.117000
     41 H131       12.1880   -2.4430   -7.2840 hc        1 VCA      0.047700
     42 H132       11.9320   -0.8400   -8.0690 hc        1 VCA      0.047700
     43 H141       14.6270   -2.3710   -7.9280 hc        1 VCA      0.039700
     44 H142       14.3700   -0.7660   -8.7150 hc        1 VCA      0.039700
     45 H151       12.6610   -1.7940  -10.2540 hc        1 VCA      0.040700
     46 H152       12.9180   -3.3980   -9.4670 hc        1 VCA      0.040700
     47 H161       15.3490   -3.3290  -10.1220 hc        1 VCA      0.038700
     48 H162       15.0920   -1.7250  -10.9080 hc        1 VCA      0.038700
     49 H171       13.6390   -4.3560  -11.6580 hc        1 VCA      0.038700
     50 H172       13.3820   -2.7520  -12.4440 hc        1 VCA      0.038700
     51 H181       14.9530   -4.1650  -13.7700 hc        1 VCA      0.031367
     52 H182       16.0620   -4.3070  -12.3440 hc        1 VCA      0.031367
     53 H183       15.8040   -2.6990  -13.1330 hc        1 VCA      0.031367
@<TRIPOS>BOND
     1    1    2 1   
     2    2    3 1   
     3    2    4 1   
     4    4    5 1   
     5    4   21 1   
     6    4   22 1   
     7    5    6 1   
     8    5   23 1   
     9    5   24 1   
    10    6    7 1   
    11    6   25 1   
    12    6   26 1   
    13    7    8 1   
    14    7   27 1   
    15    7   28 1   
    16    8    9 1   
    17    8   29 1   
    18    8   30 1   
    19    9   10 1   
    20    9   31 1   
    21    9   32 1   
    22   10   11 1   
    23   10   33 1   
    24   10   34 1   
    25   11   12 1   
    26   11   35 1   
    27   11   36 1   
    28   12   13 1   
    29   12   37 1   
    30   12   38 1   
    31   13   14 2   
    32   13   39 1   
    33   14   15 1   
    34   14   40 1   
    35   15   16 1   
    36   15   41 1   
    37   15   42 1   
    38   16   17 1   
    39   16   43 1   
    40   16   44 1   
    41   17   18 1   
    42   17   45 1   
    43   17   46 1   
    44   18   19 1   
    45   18   47 1   
    46   18   48 1   
    47   19   20 1   
    48   19   49 1   
    49   19   50 1   
    50   20   51 1   
    51   20   52 1   
    52   20   53 1   
@<TRIPOS>SUBSTRUCTURE
     1 VCA         1 TEMP              0 ****  ****    0 ROOT
