@<TRIPOS>MOLECULE
VCE
   29    29     1     0     0
SMALL
bcc


@<TRIPOS>ATOM
      1 OA'         2.1020    0.6080   -1.4030 o         1 VCE     -0.566500
      2 OA         -0.3640   -1.3190    6.4620 o         1 VCE     -0.588500
      3 OB'         0.9070   -1.2570   -1.1670 o         1 VCE     -0.566500
      4 OB         -1.7920   -3.0040    6.3170 o         1 VCE     -0.588500
      5 C8          2.7660    0.0720    1.5220 c2        1 VCE     -0.201000
      6 C5         -0.2220   -3.8110    2.3080 c3        1 VCE     -0.176000
      7 C4          0.1240   -2.5830    1.5580 c2        1 VCE     -0.164000
      8 C6         -0.5320   -3.6790    3.7370 c1        1 VCE     -0.139000
      9 C10         5.2610   -0.5420    1.2860 c3        1 VCE     -0.400000
     10 C11         5.2000    0.9110    1.5860 c1        1 VCE      0.117000
     11 O3          0.4150   -0.1980    1.5170 os        1 VCE     -0.177000
     12 C'          1.5240   -0.2650   -0.6910 c2        1 VCE      0.364000
     13 C7          1.6340   -0.1410    0.8240 c2        1 VCE      0.023000
     14 C2         -0.0910   -1.2960    3.6350 c2        1 VCE      0.227000
     15 C3          0.1940   -1.3950    2.2010 c2        1 VCE     -0.015000
     16 C1         -0.5140   -2.4240    4.3470 c2        1 VCE     -0.313000
     17 C9          4.0600    0.2850    0.8780 c3        1 VCE     -0.239000
     18 HO2        -0.0730   -0.0950    5.1320 ho        1 VCE      0.290000
     19 H8          2.7480    0.0880    2.6240 ha        1 VCE      0.122000
     20 H5          0.6290   -4.5460    2.2190 hc        1 VCE      0.116000
     21 H4          0.3260   -2.6350    0.4710 ha        1 VCE      0.181000
     22 H6         -1.1190   -4.2930    1.8230 hc        1 VCE      0.116000
     23 H10         4.0620    0.7070   -2.4560 ha        1 VCE     -0.000500
     24 H10A        4.7030    0.7890   -2.6700 ha        1 VCE     -0.000500
     25 H11         5.1550   -1.2660    2.1150 hc        1 VCE      0.129000
     26 H11A        5.9310   -0.9280    0.4990 hc        1 VCE      0.129000
     27 H9          3.9370    0.5200   -0.2150 hc        1 VCE      0.207000
     28 C          -0.9160   -2.2660    5.7960 c2        1 VCE      0.381000
     29 O2          0.1060   -0.0710    4.1580 oh        1 VCE     -0.267000
@<TRIPOS>BOND
     1    1   12 1   
     2    2   28 1   
     3    3   12 1   
     4    4   28 1   
     5    5   13 1   
     6    5   17 1   
     7    5   19 1   
     8    6    7 1   
     9    6    8 1   
    10    6   20 1   
    11    6   22 1   
    12    7   15 1   
    13    7   21 1   
    14    8   16 1   
    15    9   10 1   
    16    9   17 1   
    17    9   25 1   
    18    9   26 1   
    19   10   17 1   
    20   11   13 1   
    21   11   15 1   
    22   12   13 1   
    23   14   15 1   
    24   14   16 1   
    25   14   29 1   
    26   16   28 1   
    27   17   27 1   
    28   18   29 1   
    29   23   24 1   
@<TRIPOS>SUBSTRUCTURE
     1 VCE         1 TEMP              0 ****  ****    0 ROOT
