@<TRIPOS>MOLECULE
VCE
   29    29     1     0     0
SMALL
bcc


@<TRIPOS>ATOM
      1 OA'         2.6630    0.4750   -1.3470 o         1 VCE     -0.567000
      2 OA         -0.6280   -1.0680    6.2770 o         1 VCE     -0.588500
      3 OB'         1.4930   -1.4050   -1.1330 o         1 VCE     -0.567000
      4 OB         -1.9720   -2.8180    6.1020 o         1 VCE     -0.588500
      5 C8          2.8800    0.2530    1.6780 c2        1 VCE     -0.197000
      6 C5          0.0250   -3.7970    2.3270 c3        1 VCE     -0.177000
      7 C4          0.3950   -2.6030    1.5350 c2        1 VCE     -0.160000
      8 C6         -0.4340   -3.5920    3.7060 c1        1 VCE     -0.140000
      9 C10         5.4210   -0.1500    1.8710 c3        1 VCE     -0.400000
     10 C11         5.2050    1.3130    2.0110 c1        1 VCE      0.117000
     11 O3          0.5840   -0.2150    1.3610 os        1 VCE     -0.178000
     12 C'          2.0080   -0.3570   -0.6520 c2        1 VCE      0.362000
     13 C7          1.8850   -0.1080    0.8450 c2        1 VCE      0.023000
     14 C2         -0.0760   -1.2030    3.4940 c2        1 VCE      0.227000
     15 C3          0.3500   -1.3750    2.1020 c2        1 VCE     -0.017000
     16 C1         -0.5250   -2.3040    4.2330 c2        1 VCE     -0.313000
     17 C9          4.2370    0.5270    1.2120 c3        1 VCE     -0.239000
     18 HO2        -0.2480    0.0850    4.9070 ho        1 VCE      0.290000
     19 H8          2.6920    0.3510    2.7590 ha        1 VCE      0.124000
     20 H5          0.9110   -4.4930    2.3710 hc        1 VCE      0.116500
     21 H4          0.7100   -2.7110    0.4800 ha        1 VCE      0.181000
     22 H6         -0.7960   -4.3510    1.7870 hc        1 VCE      0.116500
     23 H10         2.2970   -0.8290   -3.2510 ha        1 VCE     -0.002000
     24 H10A        2.3940   -0.9500   -3.9150 ha        1 VCE     -0.002000
     25 H11         6.2310   -0.5420    1.2340 hc        1 VCE      0.129000
     26 H11A        5.2450   -0.8030    2.7460 hc        1 VCE      0.129000
     27 H9          4.2640    0.6540    0.0950 hc        1 VCE      0.209000
     28 C          -1.0760   -2.0760    5.6220 c2        1 VCE      0.381000
     29 O2          0.0260    0.0580    3.9550 oh        1 VCE     -0.268000
@<TRIPOS>BOND
     1    1   12 1   
     2    2   28 1   
     3    3   12 1   
     4    4   28 1   
     5    5   13 1   
     6    5   17 1   
     7    5   19 1   
     8    6    7 1   
     9    6    8 1   
    10    6   20 1   
    11    6   22 1   
    12    7   15 1   
    13    7   21 1   
    14    8   16 1   
    15    9   10 1   
    16    9   17 1   
    17    9   25 1   
    18    9   26 1   
    19   10   17 1   
    20   11   13 1   
    21   11   15 1   
    22   12   13 1   
    23   14   15 1   
    24   14   16 1   
    25   14   29 1   
    26   16   28 1   
    27   17   27 1   
    28   18   29 1   
    29   23   24 1   
@<TRIPOS>SUBSTRUCTURE
     1 VCE         1 TEMP              0 ****  ****    0 ROOT
