@<TRIPOS>MOLECULE
VCE
   29    30     1     0     0
SMALL
bcc


@<TRIPOS>ATOM
      1 OA'         3.6360    0.2640   -2.7310 o         1 VCE     -0.825300
      2 OA         -3.9480    1.8200   -0.3200 o         1 VCE     -0.849800
      3 OB'         2.9180   -1.8430   -2.5730 o         1 VCE     -0.825300
      4 OB         -4.6010    0.6800    1.4670 o         1 VCE     -0.849800
      5 C8          2.3660    0.2250    0.1180 c2        1 VCE     -0.315200
      6 C5         -1.1590   -1.6670    1.5390 ca        1 VCE     -0.207000
      7 C4         -0.1540   -1.4870    0.5910 ca        1 VCE     -0.135000
      8 C6         -2.3030   -0.8760    1.5000 ca        1 VCE     -0.091000
      9 C10         4.3360    0.0230    1.7550 cx        1 VCE     -0.160900
     10 C11         4.1230    1.4850    1.4950 cx        1 VCE     -0.160900
     11 O3          0.6300   -0.4000   -1.4310 os        1 VCE     -0.220200
     12 C'          2.8970   -0.6300   -2.2340 c         1 VCE      0.927800
     13 C7          1.9590   -0.2300   -1.0860 ce        1 VCE      0.074900
     14 C2         -1.4590    0.3080   -0.4310 ca        1 VCE      0.170100
     15 C3         -0.2960   -0.5070   -0.3940 ca        1 VCE      0.038100
     16 C1         -2.4760    0.1120    0.5260 ca        1 VCE     -0.218600
     17 C9          3.7690    0.4760    0.4290 cx        1 VCE     -0.004500
     18 HO2        -2.3630    1.7240   -1.3560 ho        1 VCE      0.467000
     19 H8          1.6410    0.4350    0.9190 ha        1 VCE      0.113000
     20 H5         -1.0440   -2.4360    2.3140 ha        1 VCE      0.097000
     21 H4          0.7590   -2.0990    0.6020 ha        1 VCE      0.136000
     22 H6         -3.1070   -1.0080    2.2420 ha        1 VCE      0.139000
     23 H10         5.3650   -0.3730    1.7870 hc        1 VCE      0.047950
     24 H10A        3.6720   -0.4930    2.4700 hc        1 VCE      0.047950
     25 H11         3.3080    2.0090    2.0240 hc        1 VCE      0.047950
     26 H11A        5.0000    2.1360    1.3390 hc        1 VCE      0.047950
     27 H9          4.4290    0.4160   -0.4660 hc        1 VCE      0.111700
     28 C          -3.7540    0.9220    0.5590 c         1 VCE      0.917200
     29 O2         -1.5130    1.2430   -1.4250 oh        1 VCE     -0.519100
@<TRIPOS>BOND
     1    1   12 1   
     2    2   28 1   
     3    3   12 1   
     4    4   28 1   
     5    5   13 2   
     6    5   17 1   
     7    5   19 1   
     8    6    7 ar  
     9    6    8 ar  
    10    6   20 1   
    11    7   15 ar  
    12    7   21 1   
    13    8   16 ar  
    14    8   22 1   
    15    9   10 1   
    16    9   17 1   
    17    9   23 1   
    18    9   24 1   
    19   10   17 1   
    20   10   25 1   
    21   10   26 1   
    22   11   13 1   
    23   11   15 1   
    24   12   13 1   
    25   14   15 ar  
    26   14   16 ar  
    27   14   29 1   
    28   16   28 1   
    29   17   27 1   
    30   18   29 1   
@<TRIPOS>SUBSTRUCTURE
     1 VCE         1 TEMP              0 ****  ****    0 ROOT
