@<TRIPOS>MOLECULE
VD1
   61    63     1     0     0
SMALL
bcc


@<TRIPOS>ATOM
      1 O2         -0.2380    0.3660    0.9280 oh        1 VD1     -0.594300
      2 C3          1.0740    0.2650    0.3830 c3        1 VD1      0.183300
      3 C2          2.1190    0.1550    1.4590 c2        1 VD1     -0.194400
      4 C28         3.0140    1.1170    1.6830 c2        1 VD1     -0.198000
      5 C1          2.0600   -1.1380    2.2180 c3        1 VD1      0.183300
      6 O1          3.0960   -1.2730    3.1810 oh        1 VD1     -0.594300
      7 C4          1.0830   -0.9580   -0.5370 c3        1 VD1     -0.034700
      8 C5          1.1790   -2.2580    0.1870 c2        1 VD1     -0.105400
      9 C10         2.2090   -2.3220    1.2570 c3        1 VD1     -0.034700
     10 C6          0.4000   -3.2950   -0.1720 ce        1 VD1     -0.122000
     11 C7          0.4000   -4.6020    0.4490 ce        1 VD1     -0.146000
     12 C8          0.1180   -5.7550   -0.1800 c2        1 VD1     -0.081400
     13 C9         -0.2370   -5.8630   -1.6280 c3        1 VD1     -0.044200
     14 C11         0.4670   -7.0020   -2.3460 c3        1 VD1     -0.072400
     15 C12         0.4800   -8.3130   -1.5790 c3        1 VD1     -0.067400
     16 C13         1.0010   -8.1060   -0.1640 c3        1 VD1     -0.040000
     17 C18         2.4340   -7.6040   -0.1830 c3        1 VD1     -0.083100
     18 C14         0.0530   -7.0710    0.5070 c3        1 VD1     -0.036500
     19 C15         0.3620   -7.1950    1.9910 c3        1 VD1     -0.074400
     20 C17         0.8550   -9.3130    0.7900 c3        1 VD1     -0.054700
     21 C16         0.7090   -8.6720    2.1860 c3        1 VD1     -0.078400
     22 C20         1.9630  -10.3620    0.7780 c3        1 VD1     -0.054700
     23 C21         1.6640  -11.4360    1.8090 c3        1 VD1     -0.093100
     24 C22         2.1310  -10.9920   -0.5990 c3        1 VD1     -0.078400
     25 C23         3.1190  -12.1310   -0.6140 c3        1 VD1     -0.092100
     26 HO2        -0.2100    1.0600    1.5970 ho        1 VD1      0.400000
     27 H3          1.2660    1.1870   -0.2410 h1        1 VD1      0.044700
     28 H281        3.0300    2.0530    1.1100 ha        1 VD1      0.119500
     29 H282        3.8010    1.0210    2.4450 ha        1 VD1      0.119500
     30 H1          1.0570   -1.1960    2.7340 h1        1 VD1      0.044700
     31 HO1         2.9650   -0.5700    3.8290 ho        1 VD1      0.400000
     32 H41         0.1530   -0.9240   -1.1650 hc        1 VD1      0.062950
     33 H42         1.9700   -0.8640   -1.2210 hc        1 VD1      0.062950
     34 H101        2.1420   -3.2700    1.8500 hc        1 VD1      0.062950
     35 H102        3.2330   -2.2920    0.7940 hc        1 VD1      0.062950
     36 H6         -0.3230   -3.1610   -0.9990 ha        1 VD1      0.124000
     37 H7          0.6300   -4.6200    1.5300 ha        1 VD1      0.128000
     38 H91        -0.0010   -4.9080   -2.1660 hc        1 VD1      0.047200
     39 H92        -1.3500   -6.0190   -1.6950 hc        1 VD1      0.047200
     40 H111       -0.0380   -7.1660   -3.3350 hc        1 VD1      0.040700
     41 H112        1.5260   -6.6970   -2.5630 hc        1 VD1      0.040700
     42 H121        1.1160   -9.0500   -2.1330 hc        1 VD1      0.041700
     43 H122       -0.5580   -8.7360   -1.5340 hc        1 VD1      0.041700
     44 H181        3.0770   -8.2720   -0.8050 hc        1 VD1      0.038033
     45 H182        2.4830   -6.5700   -0.6050 hc        1 VD1      0.038033
     46 H183        2.8480   -7.5750    0.8550 hc        1 VD1      0.038033
     47 H14        -1.0060   -7.4440    0.3610 hc        1 VD1      0.054700
     48 H151       -0.5110   -6.8910    2.6160 hc        1 VD1      0.044700
     49 H152        1.2310   -6.5510    2.2770 hc        1 VD1      0.044700
     50 H17        -0.1080   -9.8350    0.5290 hc        1 VD1      0.046700
     51 H161       -0.0930   -9.1940    2.7630 hc        1 VD1      0.042200
     52 H162        1.6620   -8.7650    2.7640 hc        1 VD1      0.042200
     53 H20         2.9340   -9.8630    1.0570 hc        1 VD1      0.049700
     54 H211        1.4570  -10.9880    2.8100 hc        1 VD1      0.034033
     55 H212        0.7740  -12.0360    1.5000 hc        1 VD1      0.034033
     56 H213        2.5370  -12.1240    1.9140 hc        1 VD1      0.034033
     57 H221        1.1350  -11.3530   -0.9670 hc        1 VD1      0.040200
     58 H222        2.4890  -10.2050   -1.3150 hc        1 VD1      0.040200
     59 H231        3.3570  -12.4170   -1.6670 hc        1 VD1      0.032033
     60 H232        4.0690  -11.8390   -0.1040 hc        1 VD1      0.032033
     61 H233        2.7030  -13.0290   -0.0960 hc        1 VD1      0.032033
@<TRIPOS>BOND
     1    1    2 1   
     2    1   26 1   
     3    2    3 1   
     4    2    7 1   
     5    2   27 1   
     6    3    4 2   
     7    3    5 1   
     8    4   28 1   
     9    4   29 1   
    10    5    6 1   
    11    5    9 1   
    12    5   30 1   
    13    6   31 1   
    14    7    8 1   
    15    7   32 1   
    16    7   33 1   
    17    8    9 1   
    18    8   10 2   
    19    9   34 1   
    20    9   35 1   
    21   10   11 1   
    22   10   36 1   
    23   11   12 2   
    24   11   37 1   
    25   12   13 1   
    26   12   18 1   
    27   13   14 1   
    28   13   38 1   
    29   13   39 1   
    30   14   15 1   
    31   14   40 1   
    32   14   41 1   
    33   15   16 1   
    34   15   42 1   
    35   15   43 1   
    36   16   17 1   
    37   16   18 1   
    38   16   20 1   
    39   17   44 1   
    40   17   45 1   
    41   17   46 1   
    42   18   19 1   
    43   18   47 1   
    44   19   21 1   
    45   19   48 1   
    46   19   49 1   
    47   20   21 1   
    48   20   22 1   
    49   20   50 1   
    50   21   51 1   
    51   21   52 1   
    52   22   23 1   
    53   22   24 1   
    54   22   53 1   
    55   23   54 1   
    56   23   55 1   
    57   23   56 1   
    58   24   25 1   
    59   24   57 1   
    60   24   58 1   
    61   25   59 1   
    62   25   60 1   
    63   25   61 1   
@<TRIPOS>SUBSTRUCTURE
     1 VD1         1 TEMP              0 ****  ****    0 ROOT
