@<TRIPOS>MOLECULE
VD1
   61    63     1     0     0
SMALL
bcc


@<TRIPOS>ATOM
      1 O2         -0.0640    0.0400   -0.5500 oh        1 VD1     -0.599300
      2 C3          1.2530    0.2630   -0.0510 c3        1 VD1      0.184800
      3 C2          1.2660    0.4400    1.4410 c2        1 VD1     -0.171400
      4 C28         1.5460    1.6070    2.0220 c2        1 VD1     -0.174000
      5 C1          0.9380   -0.8130    2.1950 c3        1 VD1      0.184800
      6 O1          1.0220   -0.5480    3.5920 oh        1 VD1     -0.599300
      7 C4          2.1050   -0.9290   -0.4920 c3        1 VD1     -0.053700
      8 C5          1.8990   -2.1530    0.3330 c2        1 VD1     -0.102400
      9 C10         1.8980   -1.9410    1.8040 c3        1 VD1     -0.053700
     10 C6          1.7560   -3.3570   -0.2510 ce        1 VD1     -0.124000
     11 C7          1.6290   -4.6160    0.4520 ce        1 VD1     -0.151000
     12 C8          0.8970   -5.6630    0.0390 c2        1 VD1     -0.077400
     13 C9          0.0190   -5.6590   -1.1700 c3        1 VD1     -0.045200
     14 C11         0.1440   -6.9120   -2.0200 c3        1 VD1     -0.073400
     15 C12         0.1490   -8.2060   -1.2260 c3        1 VD1     -0.067400
     16 C13         1.1830   -8.1520   -0.1110 c3        1 VD1     -0.039000
     17 C18         2.5830   -7.9900   -0.6760 c3        1 VD1     -0.082100
     18 C14         0.7980   -6.9420    0.7890 c3        1 VD1     -0.037500
     19 C15         1.5930   -7.1640    2.0660 c3        1 VD1     -0.074400
     20 C17         1.1340   -9.3140    0.9090 c3        1 VD1     -0.054700
     21 C16         1.6540   -8.6850    2.2190 c3        1 VD1     -0.078400
     22 C20         1.9020  -10.5880    0.5660 c3        1 VD1     -0.054700
     23 C21         1.7720  -11.5860    1.7040 c3        1 VD1     -0.093100
     24 C22         1.4120  -11.2110   -0.7340 c3        1 VD1     -0.078400
     25 C23         2.0490  -12.5450   -1.0290 c3        1 VD1     -0.092100
     26 HO2        -0.6430    0.6700   -0.1060 ho        1 VD1      0.403000
     27 H3          1.6550    1.1960   -0.5460 h1        1 VD1      0.045200
     28 H281        1.5630    1.7220    3.1150 ha        1 VD1      0.124500
     29 H282        1.7770    2.5120    1.4440 ha        1 VD1      0.124500
     30 H1         -0.1210   -1.1150    1.9400 h1        1 VD1      0.045200
     31 HO1         0.8410   -1.3840    4.0380 ho        1 VD1      0.403000
     32 H41         3.1840   -0.6250   -0.4160 hc        1 VD1      0.057950
     33 H42         1.8770   -1.1380   -1.5720 hc        1 VD1      0.057950
     34 H101        2.9350   -1.6720    2.1430 hc        1 VD1      0.057950
     35 H102        1.5950   -2.8730    2.3490 hc        1 VD1      0.057950
     36 H6          1.7520   -3.4220   -1.3550 ha        1 VD1      0.126000
     37 H7          2.2050   -4.6960    1.3930 ha        1 VD1      0.124000
     38 H91        -1.0440   -5.5600   -0.8160 hc        1 VD1      0.050200
     39 H92         0.2330   -4.7650   -1.8150 hc        1 VD1      0.050200
     40 H111        1.0880   -6.8510   -2.6240 hc        1 VD1      0.040700
     41 H112       -0.7110   -6.9360   -2.7470 hc        1 VD1      0.040700
     42 H121       -0.8660   -8.3830   -0.7830 hc        1 VD1      0.042200
     43 H122        0.3610   -9.0580   -1.9220 hc        1 VD1      0.042200
     44 H181        2.7910   -8.7760   -1.4420 hc        1 VD1      0.037367
     45 H182        3.3420   -8.0750    0.1390 hc        1 VD1      0.037367
     46 H183        2.6990   -6.9880   -1.1560 hc        1 VD1      0.037367
     47 H14        -0.2960   -7.0610    1.0600 hc        1 VD1      0.054700
     48 H151        2.6240   -6.7400    1.9780 hc        1 VD1      0.043700
     49 H152        1.0970   -6.6830    2.9440 hc        1 VD1      0.043700
     50 H17         0.0530   -9.5960    1.0480 hc        1 VD1      0.046700
     51 H161        1.0260   -9.0220    3.0790 hc        1 VD1      0.042200
     52 H162        2.7070   -9.0040    2.4180 hc        1 VD1      0.042200
     53 H20         2.9920  -10.3290    0.4430 hc        1 VD1      0.049700
     54 H211        0.7230  -11.9600    1.7760 hc        1 VD1      0.034033
     55 H212        2.4500  -12.4570    1.5310 hc        1 VD1      0.034033
     56 H213        2.0500  -11.1220    2.6800 hc        1 VD1      0.034033
     57 H221        1.6470  -10.5120   -1.5810 hc        1 VD1      0.040700
     58 H222        0.2970  -11.3270   -0.6940 hc        1 VD1      0.040700
     59 H231        3.1580  -12.4890   -0.9160 hc        1 VD1      0.032033
     60 H232        1.6640  -13.3350   -0.3390 hc        1 VD1      0.032033
     61 H233        1.8160  -12.8570   -2.0760 hc        1 VD1      0.032033
@<TRIPOS>BOND
     1    1    2 1   
     2    1   26 1   
     3    2    3 1   
     4    2    7 1   
     5    2   27 1   
     6    3    4 2   
     7    3    5 1   
     8    4   28 1   
     9    4   29 1   
    10    5    6 1   
    11    5    9 1   
    12    5   30 1   
    13    6   31 1   
    14    7    8 1   
    15    7   32 1   
    16    7   33 1   
    17    8    9 1   
    18    8   10 2   
    19    9   34 1   
    20    9   35 1   
    21   10   11 1   
    22   10   36 1   
    23   11   12 2   
    24   11   37 1   
    25   12   13 1   
    26   12   18 1   
    27   13   14 1   
    28   13   38 1   
    29   13   39 1   
    30   14   15 1   
    31   14   40 1   
    32   14   41 1   
    33   15   16 1   
    34   15   42 1   
    35   15   43 1   
    36   16   17 1   
    37   16   18 1   
    38   16   20 1   
    39   17   44 1   
    40   17   45 1   
    41   17   46 1   
    42   18   19 1   
    43   18   47 1   
    44   19   21 1   
    45   19   48 1   
    46   19   49 1   
    47   20   21 1   
    48   20   22 1   
    49   20   50 1   
    50   21   51 1   
    51   21   52 1   
    52   22   23 1   
    53   22   24 1   
    54   22   53 1   
    55   23   54 1   
    56   23   55 1   
    57   23   56 1   
    58   24   25 1   
    59   24   57 1   
    60   24   58 1   
    61   25   59 1   
    62   25   60 1   
    63   25   61 1   
@<TRIPOS>SUBSTRUCTURE
     1 VD1         1 TEMP              0 ****  ****    0 ROOT
