@<TRIPOS>MOLECULE
VD1
   61    63     1     0     0
SMALL
bcc


@<TRIPOS>ATOM
      1 O2          5.7170   -0.7640   -1.4520 oh        1 VD1     -0.594300
      2 C3          5.5840   -0.7830   -0.0330 c3        1 VD1      0.183300
      3 C2          5.6120    0.6030    0.5490 c2        1 VD1     -0.194400
      4 C28         6.6100    1.0300    1.3220 c2        1 VD1     -0.198000
      5 C1          4.4070    1.4230    0.1940 c3        1 VD1      0.183300
      6 O1          4.3990    2.7050    0.8080 oh        1 VD1     -0.594300
      7 C4          4.2690   -1.5010    0.2830 c3        1 VD1     -0.034700
      8 C5          3.0570   -0.6550    0.0840 c2        1 VD1     -0.105400
      9 C10         3.1300    0.7150    0.6560 c3        1 VD1     -0.034700
     10 C6          1.9720   -1.1570   -0.5330 ce        1 VD1     -0.122000
     11 C7          0.7400   -0.4410   -0.7850 ce        1 VD1     -0.146000
     12 C8         -0.4790   -1.0010   -0.8430 c2        1 VD1     -0.081400
     13 C9         -0.7510   -2.4590   -0.6530 c3        1 VD1     -0.044200
     14 C11        -1.9460   -2.7460    0.2400 c3        1 VD1     -0.072400
     15 C12        -3.1660   -1.8900   -0.0520 c3        1 VD1     -0.067400
     16 C13        -2.7970   -0.4140   -0.0730 c3        1 VD1     -0.040000
     17 C18        -2.2710    0.0330    1.2800 c3        1 VD1     -0.083100
     18 C14        -1.7150   -0.2460   -1.1790 c3        1 VD1     -0.036500
     19 C15        -1.6720    1.2530   -1.4290 c3        1 VD1     -0.074400
     20 C17        -3.8970    0.5470   -0.5790 c3        1 VD1     -0.054700
     21 C16        -3.1120    1.7180   -1.2070 c3        1 VD1     -0.078400
     22 C20        -4.9180    1.0500    0.4370 c3        1 VD1     -0.054700
     23 C21        -5.8810    2.0130   -0.2370 c3        1 VD1     -0.093100
     24 C22        -5.6900   -0.0960    1.0790 c3        1 VD1     -0.078400
     25 C23        -6.8040    0.3700    1.9810 c3        1 VD1     -0.092100
     26 HO2         6.4790   -0.2090   -1.6530 ho        1 VD1      0.400000
     27 H3          6.4380   -1.3910    0.3900 h1        1 VD1      0.044700
     28 H281        7.4800    0.4040    1.5630 ha        1 VD1      0.119500
     29 H282        6.6130    2.0300    1.7770 ha        1 VD1      0.119500
     30 H1          4.3850    1.5450   -0.9300 h1        1 VD1      0.044700
     31 HO1         5.1640    3.1810    0.4660 ho        1 VD1      0.400000
     32 H41         4.2160   -2.4220   -0.3560 hc        1 VD1      0.062950
     33 H42         4.3070   -1.8230    1.3590 hc        1 VD1      0.062950
     34 H101        3.1310    0.6540    1.7780 hc        1 VD1      0.062950
     35 H102        2.2500    1.3430    0.3600 hc        1 VD1      0.062950
     36 H6          2.0010   -2.1980   -0.9050 ha        1 VD1      0.124000
     37 H7          0.8440    0.6450   -0.9610 ha        1 VD1      0.128000
     38 H91        -0.9350   -2.9060   -1.6690 hc        1 VD1      0.047200
     39 H92         0.1460   -2.9750   -0.2190 hc        1 VD1      0.047200
     40 H111       -2.2260   -3.8270    0.1230 hc        1 VD1      0.040700
     41 H112       -1.6450   -2.5980    1.3120 hc        1 VD1      0.040700
     42 H121       -3.6020   -2.1780   -1.0450 hc        1 VD1      0.041700
     43 H122       -3.9460   -2.0930    0.7260 hc        1 VD1      0.041700
     44 H181       -1.2880   -0.4520    1.4980 hc        1 VD1      0.038033
     45 H182       -2.1220    1.1400    1.2910 hc        1 VD1      0.038033
     46 H183       -2.9890   -0.2390    2.0900 hc        1 VD1      0.038033
     47 H14        -2.1230   -0.7240   -2.1210 hc        1 VD1      0.054700
     48 H151       -0.9830    1.7620   -0.7100 hc        1 VD1      0.044700
     49 H152       -1.3200    1.4830   -2.4630 hc        1 VD1      0.044700
     50 H17        -4.4630    0.0140   -1.3930 hc        1 VD1      0.046700
     51 H161       -3.1230    2.6080   -0.5290 hc        1 VD1      0.042200
     52 H162       -3.5840    2.0190   -2.1740 hc        1 VD1      0.042200
     53 H20        -4.3730    1.6060    1.2520 hc        1 VD1      0.049700
     54 H211       -6.5360    2.5000    0.5250 hc        1 VD1      0.034033
     55 H212       -5.3310    2.8160   -0.7820 hc        1 VD1      0.034033
     56 H213       -6.5290    1.4700   -0.9660 hc        1 VD1      0.034033
     57 H221       -6.1080   -0.7580    0.2750 hc        1 VD1      0.040200
     58 H222       -4.9770   -0.7150    1.6870 hc        1 VD1      0.040200
     59 H231       -6.4390    1.1540    2.6880 hc        1 VD1      0.032033
     60 H232       -7.6490    0.7960    1.3880 hc        1 VD1      0.032033
     61 H233       -7.1970   -0.4880    2.5780 hc        1 VD1      0.032033
@<TRIPOS>BOND
     1    1    2 1   
     2    1   26 1   
     3    2    3 1   
     4    2    7 1   
     5    2   27 1   
     6    3    4 2   
     7    3    5 1   
     8    4   28 1   
     9    4   29 1   
    10    5    6 1   
    11    5    9 1   
    12    5   30 1   
    13    6   31 1   
    14    7    8 1   
    15    7   32 1   
    16    7   33 1   
    17    8    9 1   
    18    8   10 2   
    19    9   34 1   
    20    9   35 1   
    21   10   11 1   
    22   10   36 1   
    23   11   12 2   
    24   11   37 1   
    25   12   13 1   
    26   12   18 1   
    27   13   14 1   
    28   13   38 1   
    29   13   39 1   
    30   14   15 1   
    31   14   40 1   
    32   14   41 1   
    33   15   16 1   
    34   15   42 1   
    35   15   43 1   
    36   16   17 1   
    37   16   18 1   
    38   16   20 1   
    39   17   44 1   
    40   17   45 1   
    41   17   46 1   
    42   18   19 1   
    43   18   47 1   
    44   19   21 1   
    45   19   48 1   
    46   19   49 1   
    47   20   21 1   
    48   20   22 1   
    49   20   50 1   
    50   21   51 1   
    51   21   52 1   
    52   22   23 1   
    53   22   24 1   
    54   22   53 1   
    55   23   54 1   
    56   23   55 1   
    57   23   56 1   
    58   24   25 1   
    59   24   57 1   
    60   24   58 1   
    61   25   59 1   
    62   25   60 1   
    63   25   61 1   
@<TRIPOS>SUBSTRUCTURE
     1 VD1         1 TEMP              0 ****  ****    0 ROOT
