@<TRIPOS>MOLECULE
VD2
   76    76     1     0     0
SMALL
bcc


@<TRIPOS>ATOM
      1 O3          1.0820   -5.1830    5.0950 oh        1 VD2     -0.325000
      2 C25         2.4370   -5.2700    4.7240 c3        1 VD2      0.076000
      3 C27         3.3070   -5.0110    5.9320 c3        1 VD2     -0.241000
      4 C26         2.7240   -6.6550    4.1830 c3        1 VD2     -0.241000
      5 C24         2.7350   -4.2410    3.6580 c3        1 VD2     -0.143000
      6 C23         1.4550   -3.5480    3.2550 c3        1 VD2     -0.158000
      7 C22         1.7530   -2.5160    2.1910 c3        1 VD2     -0.158000
      8 C20         0.6210   -1.5720    2.0890 c3        1 VD2     -0.095000
      9 C21         0.4580   -0.8550    3.3740 c3        1 VD2     -0.209000
     10 C17         0.9100   -0.5120    0.9170 c3        1 VD2     -0.095000
     11 C16         1.0750   -1.0820   -0.1330 c3        1 VD2     -0.158000
     12 C13        -0.3900    0.4180    0.6660 c3        1 VD2     -0.035000
     13 C18        -0.1640    1.8310    1.1630 c3        1 VD2     -0.204000
     14 C14        -0.5180    0.3910   -0.3630 c3        1 VD2     -0.073000
     15 C15        -0.0570   -0.8140   -0.8330 c3        1 VD2     -0.151000
     16 C12        -1.6130   -0.3350    1.4980 c3        1 VD2     -0.146000
     17 C11        -2.6290    0.0170    1.1810 c3        1 VD2     -0.152000
     18 C9         -2.7760   -0.0490   -0.0440 c3        1 VD2     -0.125000
     19 C8         -1.5360    0.7160   -0.7380 c2        1 VD2     -0.076000
     20 C7         -1.6670    1.2230   -1.9770 c1        1 VD2     -0.147000
     21 C6         -0.5050    1.9400   -2.6270 c1        1 VD2     -0.126000
     22 C5         -0.6790    3.1710   -3.1440 c1        1 VD2     -0.089000
     23 C10        -2.0400    3.9040   -3.1060 c2        1 VD2     -0.158000
     24 C4          0.4660    3.9550   -3.8200 c3        1 VD2     -0.122000
     25 C3          0.0220    4.4090   -5.1990 c3        1 VD2      0.038000
     26 O2         -0.0870    3.2550   -6.0470 oh        1 VD2     -0.323000
     27 C2         -1.2980    5.1320   -5.2020 c3        1 VD2     -0.134000
     28 C28        -1.7150    5.3940   -6.6680 c3        1 VD2     -0.212000
     29 C1         -2.3980    4.3600   -4.5170 c3        1 VD2      0.037000
     30 O1         -3.5600    5.1880   -4.4470 oh        1 VD2     -0.330000
     31 HO3         0.9020   -5.7990    5.7120 ho        1 VD2      0.196000
     32 H271        3.1410   -4.1050    6.2670 hc        1 VD2      0.081667
     33 H272        4.2510   -5.0980    5.6800 hc        1 VD2      0.081667
     34 H273        3.0950   -5.6620    6.6340 hc        1 VD2      0.081667
     35 H261        2.1220   -6.8450    3.4340 hc        1 VD2      0.081667
     36 H262        2.5830   -7.3190    4.8920 hc        1 VD2      0.081667
     37 H263        3.6530   -6.6990    3.8750 hc        1 VD2      0.081667
     38 H241        3.1250   -4.6830    2.8780 hc        1 VD2      0.086500
     39 H242        3.3670   -3.5810    4.0090 hc        1 VD2      0.086500
     40 H231        1.0630   -3.1070    4.0360 hc        1 VD2      0.087500
     41 H232        0.8240   -4.2070    2.9030 hc        1 VD2      0.087500
     42 H221        2.5660   -2.0270    2.4300 hc        1 VD2      0.080000
     43 H222        1.8820   -2.9630    1.3320 hc        1 VD2      0.080000
     44 H20        -0.1960   -2.0640    1.8870 hc        1 VD2      0.091000
     45 H211        0.3370    0.1010    3.2020 hc        1 VD2      0.072667
     46 H212        1.2590   -0.9890    3.9280 hc        1 VD2      0.072667
     47 H213       -0.3270   -1.2040    3.8460 hc        1 VD2      0.072667
     48 H17         1.6900    0.0400    1.1350 hc        1 VD2      0.086000
     49 H161        1.1690   -2.0470    0.0120 hc        1 VD2      0.082500
     50 H162        1.8620   -0.7240   -0.6000 hc        1 VD2      0.082500
     51 H181       -0.1740    1.8380    2.1420 hc        1 VD2      0.075333
     52 H182        0.7050    2.1550    0.8430 hc        1 VD2      0.075333
     53 H183       -0.8750    2.4150    0.8240 hc        1 VD2      0.075333
     54 H14         0.1080    1.0610   -0.7180 hc        1 VD2      0.095000
     55 H151       -0.7250   -1.5150   -0.6760 hc        1 VD2      0.083500
     56 H152        0.1460   -0.7480   -1.7910 hc        1 VD2      0.083500
     57 H121       -1.5510   -1.3010    1.3460 hc        1 VD2      0.083000
     58 H122       -1.5000   -0.1570    2.4550 hc        1 VD2      0.083000
     59 H111       -2.7490    0.9500    1.4670 hc        1 VD2      0.080500
     60 H112       -3.3110   -0.5420    1.6160 hc        1 VD2      0.080500
     61 H91        -2.9270   -0.9480   -0.4070 hc        1 VD2      0.085500
     62 H92        -3.6210    0.3880   -0.2830 hc        1 VD2      0.085500
     63 H7         -2.5050    1.1070   -2.4660 ha        1 VD2      0.121000
     64 H6          0.3700    1.5110   -2.6710 ha        1 VD2      0.126000
     65 H101       -2.0410    4.5720   -2.3880 ha        1 VD2      0.093500
     66 H102       -2.7600    3.3140   -2.8050 ha        1 VD2      0.093500
     67 H41         0.7440    4.7190   -3.2770 hc        1 VD2      0.098000
     68 H42         1.2910    3.4300   -3.8530 hc        1 VD2      0.098000
     69 H3          0.7050    5.0040   -5.5670 h1        1 VD2      0.071000
     70 HO2         0.3460    3.4060   -6.8090 ho        1 VD2      0.200000
     71 H2         -1.1870    5.9900   -4.7490 hc        1 VD2      0.106000
     72 H281       -2.1350    4.5890   -7.0370 hc        1 VD2      0.080333
     73 H282       -2.3530    6.1380   -6.6990 hc        1 VD2      0.080333
     74 H283       -0.9230    5.6210   -7.1980 hc        1 VD2      0.080333
     75 H1         -2.6080    3.5710   -5.0560 h1        1 VD2      0.089000
     76 HO1        -4.2540    4.7560   -4.7970 ho        1 VD2      0.199000
@<TRIPOS>BOND
     1    1    2 1   
     2    1   31 1   
     3    2    3 1   
     4    2    4 1   
     5    2    5 1   
     6    3   32 1   
     7    3   33 1   
     8    3   34 1   
     9    4   35 1   
    10    4   36 1   
    11    4   37 1   
    12    5    6 1   
    13    5   38 1   
    14    5   39 1   
    15    6    7 1   
    16    6   40 1   
    17    6   41 1   
    18    7    8 1   
    19    7   42 1   
    20    7   43 1   
    21    8    9 1   
    22    8   10 1   
    23    8   44 1   
    24    9   45 1   
    25    9   46 1   
    26    9   47 1   
    27   10   11 1   
    28   10   12 1   
    29   10   48 1   
    30   11   15 1   
    31   11   49 1   
    32   11   50 1   
    33   12   13 1   
    34   12   14 1   
    35   12   16 1   
    36   13   51 1   
    37   13   52 1   
    38   13   53 1   
    39   14   15 1   
    40   14   19 1   
    41   14   54 1   
    42   15   55 1   
    43   15   56 1   
    44   16   17 1   
    45   16   57 1   
    46   16   58 1   
    47   17   18 1   
    48   17   59 1   
    49   17   60 1   
    50   18   19 1   
    51   18   61 1   
    52   18   62 1   
    53   19   20 1   
    54   20   63 1   
    55   21   22 1   
    56   21   64 1   
    57   22   24 1   
    58   23   29 1   
    59   23   65 1   
    60   23   66 1   
    61   24   25 1   
    62   24   67 1   
    63   24   68 1   
    64   25   26 1   
    65   25   27 1   
    66   25   69 1   
    67   26   70 1   
    68   27   28 1   
    69   27   29 1   
    70   27   71 1   
    71   28   72 1   
    72   28   73 1   
    73   28   74 1   
    74   29   30 1   
    75   29   75 1   
    76   30   76 1   
@<TRIPOS>SUBSTRUCTURE
     1 VD2         1 TEMP              0 ****  ****    0 ROOT
