@<TRIPOS>MOLECULE
VD2
   76    78     1     0     0
SMALL
bcc


@<TRIPOS>ATOM
      1 O3          0.4660   -0.1470    0.3430 oh        1 VD2     -0.597800
      2 C25         1.8880   -0.0090    0.2970 c3        1 VD2      0.147800
      3 C27         2.4670   -0.2080    1.6960 c3        1 VD2     -0.123100
      4 C26         2.2610    1.3720   -0.2250 c3        1 VD2     -0.123100
      5 C24         2.3920   -1.1220   -0.6280 c3        1 VD2     -0.064400
      6 C23         1.8840   -0.9850   -2.0460 c3        1 VD2     -0.079400
      7 C22         2.2490   -2.2020   -2.8710 c3        1 VD2     -0.079400
      8 C20         1.8050   -2.0580   -4.3260 c3        1 VD2     -0.055700
      9 C21         2.8150   -1.2150   -5.0790 c3        1 VD2     -0.091100
     10 C17         1.6310   -3.4330   -4.9630 c3        1 VD2     -0.053700
     11 C16         0.5800   -4.2840   -4.2190 c3        1 VD2     -0.079400
     12 C13         1.1610   -3.4630   -6.4360 c3        1 VD2     -0.040000
     13 C18         0.0660   -2.4380   -6.6740 c3        1 VD2     -0.082100
     14 C14         0.6050   -4.9110   -6.5480 c3        1 VD2     -0.035500
     15 C15        -0.1880   -5.0980   -5.2630 c3        1 VD2     -0.074400
     16 C12         2.2580   -3.3320   -7.4810 c3        1 VD2     -0.066400
     17 C11         1.7140   -3.6070   -8.8730 c3        1 VD2     -0.073400
     18 C9          0.9410   -4.9100   -8.9930 c3        1 VD2     -0.043200
     19 C8         -0.0220   -5.1430   -7.8750 c2        1 VD2     -0.084400
     20 C7         -1.2800   -5.5850   -8.0340 ce        1 VD2     -0.145000
     21 C6         -1.9280   -5.8150   -9.3080 ce        1 VD2     -0.125000
     22 C5         -2.7960   -6.8080   -9.5720 c2        1 VD2     -0.099400
     23 C10        -3.1620   -7.8720   -8.6000 c3        1 VD2     -0.056700
     24 C4         -3.4200   -6.9310  -10.9200 c3        1 VD2     -0.056700
     25 C3         -4.9310   -7.1420  -10.8190 c3        1 VD2      0.148600
     26 O2         -5.4810   -7.3920  -12.1070 oh        1 VD2     -0.599300
     27 C2         -5.2490   -8.3620   -9.9510 c3        1 VD2     -0.094700
     28 C28        -6.7370   -8.6230   -9.9070 c3        1 VD2     -0.094100
     29 C1         -4.6610   -8.1660   -8.5500 c3        1 VD2      0.148600
     30 O1         -5.2670   -7.0930   -7.8400 oh        1 VD2     -0.599300
     31 HO3         0.1400    0.5510    0.9230 ho        1 VD2      0.397000
     32 H271        2.1710   -1.2090    2.0910 hc        1 VD2      0.042200
     33 H272        2.0810    0.5760    2.3890 hc        1 VD2      0.042200
     34 H273        3.5790   -0.1430    1.6620 hc        1 VD2      0.042200
     35 H261        2.0220    2.1520    0.5370 hc        1 VD2      0.042200
     36 H262        3.3520    1.4130   -0.4520 hc        1 VD2      0.042200
     37 H263        1.6860    1.5970   -1.1550 hc        1 VD2      0.042200
     38 H241        3.5120   -1.1050   -0.6180 hc        1 VD2      0.047200
     39 H242        2.0560   -2.1060   -0.2060 hc        1 VD2      0.047200
     40 H231        2.3160   -0.0620   -2.5150 hc        1 VD2      0.048700
     41 H232        0.7680   -0.8580   -2.0260 hc        1 VD2      0.048700
     42 H221        3.3580   -2.3650   -2.8370 hc        1 VD2      0.040700
     43 H222        1.7710   -3.1050   -2.4070 hc        1 VD2      0.040700
     44 H20         0.8100   -1.5280   -4.3430 hc        1 VD2      0.053700
     45 H211        3.7260   -1.8130   -5.3210 hc        1 VD2      0.033367
     46 H212        3.1260   -0.3360   -4.4630 hc        1 VD2      0.033367
     47 H213        2.3780   -0.8290   -6.0310 hc        1 VD2      0.033367
     48 H17         2.6230   -3.9610   -4.9120 hc        1 VD2      0.045700
     49 H161        1.0840   -4.9630   -3.4880 hc        1 VD2      0.043700
     50 H162       -0.1240   -3.6280   -3.6490 hc        1 VD2      0.043700
     51 H181        0.4990   -1.4120   -6.7520 hc        1 VD2      0.037367
     52 H182       -0.6690   -2.4520   -5.8320 hc        1 VD2      0.037367
     53 H183       -0.4850   -2.6630   -7.6200 hc        1 VD2      0.037367
     54 H14         1.4900   -5.6150   -6.4930 hc        1 VD2      0.053700
     55 H151       -0.2530   -6.1750   -4.9770 hc        1 VD2      0.045700
     56 H152       -1.2310   -4.7080   -5.3730 hc        1 VD2      0.045700
     57 H121        3.0830   -4.0540   -7.2480 hc        1 VD2      0.041700
     58 H122        2.6990   -2.3020   -7.4590 hc        1 VD2      0.041700
     59 H111        2.5690   -3.6310   -9.5980 hc        1 VD2      0.039200
     60 H112        1.0470   -2.7570   -9.1770 hc        1 VD2      0.039200
     61 H91         0.4120   -4.9220   -9.9830 hc        1 VD2      0.046700
     62 H92         1.6690   -5.7680   -8.9990 hc        1 VD2      0.046700
     63 H7         -1.9050   -5.7790   -7.1420 ha        1 VD2      0.134000
     64 H6         -1.6840   -5.0870  -10.1040 ha        1 VD2      0.121000
     65 H101       -2.6350   -8.8210   -8.8940 hc        1 VD2      0.056450
     66 H102       -2.8260   -7.5980   -7.5650 hc        1 VD2      0.056450
     67 H41        -2.9660   -7.8060  -11.4590 hc        1 VD2      0.056450
     68 H42        -3.2210   -6.0170  -11.5390 hc        1 VD2      0.056450
     69 H3         -5.4170   -6.2290  -10.3720 h1        1 VD2      0.041200
     70 HO2        -5.2550   -6.6310  -12.6550 ho        1 VD2      0.400500
     71 H2         -4.7420   -9.2580  -10.4090 hc        1 VD2      0.066700
     72 H281       -6.9660   -9.4600   -9.2050 hc        1 VD2      0.041033
     73 H282       -7.0990   -8.8950  -10.9290 hc        1 VD2      0.041033
     74 H283       -7.2940   -7.7130   -9.5770 hc        1 VD2      0.041033
     75 H1         -4.8240   -9.1180   -7.9630 h1        1 VD2      0.041200
     76 HO1        -6.2160   -7.2660   -7.8280 ho        1 VD2      0.400500
@<TRIPOS>BOND
     1    1    2 1   
     2    1   31 1   
     3    2    3 1   
     4    2    4 1   
     5    2    5 1   
     6    3   32 1   
     7    3   33 1   
     8    3   34 1   
     9    4   35 1   
    10    4   36 1   
    11    4   37 1   
    12    5    6 1   
    13    5   38 1   
    14    5   39 1   
    15    6    7 1   
    16    6   40 1   
    17    6   41 1   
    18    7    8 1   
    19    7   42 1   
    20    7   43 1   
    21    8    9 1   
    22    8   10 1   
    23    8   44 1   
    24    9   45 1   
    25    9   46 1   
    26    9   47 1   
    27   10   11 1   
    28   10   12 1   
    29   10   48 1   
    30   11   15 1   
    31   11   49 1   
    32   11   50 1   
    33   12   13 1   
    34   12   14 1   
    35   12   16 1   
    36   13   51 1   
    37   13   52 1   
    38   13   53 1   
    39   14   15 1   
    40   14   19 1   
    41   14   54 1   
    42   15   55 1   
    43   15   56 1   
    44   16   17 1   
    45   16   57 1   
    46   16   58 1   
    47   17   18 1   
    48   17   59 1   
    49   17   60 1   
    50   18   19 1   
    51   18   61 1   
    52   18   62 1   
    53   19   20 2   
    54   20   21 1   
    55   20   63 1   
    56   21   22 2   
    57   21   64 1   
    58   22   23 1   
    59   22   24 1   
    60   23   29 1   
    61   23   65 1   
    62   23   66 1   
    63   24   25 1   
    64   24   67 1   
    65   24   68 1   
    66   25   26 1   
    67   25   27 1   
    68   25   69 1   
    69   26   70 1   
    70   27   28 1   
    71   27   29 1   
    72   27   71 1   
    73   28   72 1   
    74   28   73 1   
    75   28   74 1   
    76   29   30 1   
    77   29   75 1   
    78   30   76 1   
@<TRIPOS>SUBSTRUCTURE
     1 VD2         1 TEMP              0 ****  ****    0 ROOT
