@<TRIPOS>MOLECULE
VD2
   76    78     1     0     0
SMALL
bcc


@<TRIPOS>ATOM
      1 O3         -2.8190    0.4060    7.1650 oh        1 VD2     -0.596800
      2 C25        -1.6350    0.0260    7.8670 c3        1 VD2      0.147800
      3 C27        -1.9920   -0.9570    8.9790 c3        1 VD2     -0.103600
      4 C26        -1.0790    1.3130    8.4620 c3        1 VD2     -0.103600
      5 C24        -0.6330   -0.6350    6.9130 c3        1 VD2     -0.104400
      6 C23        -0.2820    0.2450    5.7330 c3        1 VD2     -0.080400
      7 C22         0.5240   -0.5200    4.7050 c3        1 VD2     -0.079400
      8 C20         0.9400    0.3670    3.5320 c3        1 VD2     -0.055700
      9 C21         2.1580    1.1810    3.9260 c3        1 VD2     -0.091100
     10 C17         1.2060   -0.4850    2.2950 c3        1 VD2     -0.053700
     11 C16        -0.0390   -1.2920    1.8720 c3        1 VD2     -0.079400
     12 C13         1.6180    0.2680    1.0080 c3        1 VD2     -0.040000
     13 C18         0.7840    1.5240    0.8280 c3        1 VD2     -0.083100
     14 C14         1.2820   -0.7890   -0.0820 c3        1 VD2     -0.037500
     15 C15        -0.0740   -1.3330    0.3430 c3        1 VD2     -0.074400
     16 C12         3.1010    0.5810    0.8740 c3        1 VD2     -0.067400
     17 C11         3.4180    1.1050   -0.5160 c3        1 VD2     -0.073400
     18 C9          2.8980    0.2300   -1.6450 c3        1 VD2     -0.045200
     19 C8          1.4920   -0.2370   -1.4460 c2        1 VD2     -0.074400
     20 C7          0.5470   -0.2410   -2.4000 ce        1 VD2     -0.154000
     21 C6          0.7080    0.2890   -3.7360 ce        1 VD2     -0.120000
     22 C5          0.1260   -0.2030   -4.8450 c2        1 VD2     -0.122400
     23 C10        -0.7270   -1.4210   -4.8790 c3        1 VD2     -0.079700
     24 C4          0.3500    0.4330   -6.1730 c3        1 VD2     -0.079700
     25 C3         -0.9680    0.6900   -6.9040 c3        1 VD2      0.145100
     26 O2         -0.7080    1.1160   -8.2370 oh        1 VD2     -0.594800
     27 C2         -1.8120   -0.5840   -7.0040 c3        1 VD2     -0.090700
     28 C28        -3.1290   -0.3040   -7.6930 c3        1 VD2     -0.087100
     29 C1         -2.0460   -1.1870   -5.6140 c3        1 VD2      0.145100
     30 O1         -2.9380   -0.4130   -4.8310 oh        1 VD2     -0.594800
     31 HO3        -3.1740   -0.3950    6.7630 ho        1 VD2      0.397000
     32 H271       -2.7810   -0.5160    9.6340 hc        1 VD2      0.043200
     33 H272       -2.3790   -1.9100    8.5470 hc        1 VD2      0.043200
     34 H273       -1.0900   -1.1790    9.5950 hc        1 VD2      0.043200
     35 H261       -0.0820    1.1140    8.9190 hc        1 VD2      0.043200
     36 H262       -0.9740    2.0880    7.6650 hc        1 VD2      0.043200
     37 H263       -1.7740    1.7020    9.2430 hc        1 VD2      0.043200
     38 H241       -1.0740   -1.5980    6.5430 hc        1 VD2      0.042700
     39 H242        0.2940   -0.8890    7.4890 hc        1 VD2      0.042700
     40 H231        0.2980    1.1360    6.0900 hc        1 VD2      0.049700
     41 H232       -1.2280    0.6320    5.2680 hc        1 VD2      0.049700
     42 H221       -0.0890   -1.3850    4.3380 hc        1 VD2      0.039700
     43 H222        1.4410   -0.9510    5.1870 hc        1 VD2      0.039700
     44 H20         0.0930    1.0740    3.3040 hc        1 VD2      0.053700
     45 H211        3.0800    0.5520    3.8940 hc        1 VD2      0.034033
     46 H212        2.2940    2.0480    3.2360 hc        1 VD2      0.034033
     47 H213        2.0410    1.5820    4.9620 hc        1 VD2      0.034033
     48 H17         2.0330   -1.2050    2.5480 hc        1 VD2      0.046700
     49 H161        0.0150   -2.3270    2.2900 hc        1 VD2      0.042700
     50 H162       -0.9700   -0.8120    2.2640 hc        1 VD2      0.042700
     51 H181        0.8520    1.8920   -0.2250 hc        1 VD2      0.037700
     52 H182       -0.2900    1.3130    1.0540 hc        1 VD2      0.037700
     53 H183        1.1400    2.3330    1.5100 hc        1 VD2      0.037700
     54 H14         2.0260   -1.6360    0.0300 hc        1 VD2      0.055700
     55 H151       -0.2330   -2.3710   -0.0370 hc        1 VD2      0.045700
     56 H152       -0.9050   -0.6940   -0.0460 hc        1 VD2      0.045700
     57 H121        3.6970   -0.3470    1.0750 hc        1 VD2      0.042700
     58 H122        3.4090    1.3480    1.6310 hc        1 VD2      0.042700
     59 H111        4.5310    1.2000   -0.6230 hc        1 VD2      0.040700
     60 H112        2.9860    2.1350   -0.6240 hc        1 VD2      0.040700
     61 H91         3.5490   -0.6840   -1.7310 hc        1 VD2      0.047700
     62 H92         2.9980    0.7950   -2.6100 hc        1 VD2      0.047700
     63 H7         -0.4500   -0.6610   -2.1700 ha        1 VD2      0.131000
     64 H6          1.3560    1.1810   -3.8220 ha        1 VD2      0.122000
     65 H101       -0.1630   -2.2370   -5.4060 hc        1 VD2      0.058700
     66 H102       -0.9580   -1.7820   -3.8420 hc        1 VD2      0.058700
     67 H41         0.9040    1.4030   -6.0670 hc        1 VD2      0.058700
     68 H42         0.9840   -0.2470   -6.8030 hc        1 VD2      0.058700
     69 H3         -1.5540    1.4910   -6.3690 h1        1 VD2      0.055200
     70 HO2        -0.1700    1.9140   -8.1720 ho        1 VD2      0.399500
     71 H2         -1.2320   -1.3330   -7.6120 hc        1 VD2      0.066700
     72 H281       -3.6780   -1.2590   -7.8740 hc        1 VD2      0.043700
     73 H282       -3.7680    0.3540   -7.0560 hc        1 VD2      0.043700
     74 H283       -2.9470    0.2030   -8.6710 hc        1 VD2      0.043700
     75 H1         -2.5890   -2.1700   -5.7320 h1        1 VD2      0.055200
     76 HO1        -2.5040    0.4300   -4.6500 ho        1 VD2      0.399500
@<TRIPOS>BOND
     1    1    2 1   
     2    1   31 1   
     3    2    3 1   
     4    2    4 1   
     5    2    5 1   
     6    3   32 1   
     7    3   33 1   
     8    3   34 1   
     9    4   35 1   
    10    4   36 1   
    11    4   37 1   
    12    5    6 1   
    13    5   38 1   
    14    5   39 1   
    15    6    7 1   
    16    6   40 1   
    17    6   41 1   
    18    7    8 1   
    19    7   42 1   
    20    7   43 1   
    21    8    9 1   
    22    8   10 1   
    23    8   44 1   
    24    9   45 1   
    25    9   46 1   
    26    9   47 1   
    27   10   11 1   
    28   10   12 1   
    29   10   48 1   
    30   11   15 1   
    31   11   49 1   
    32   11   50 1   
    33   12   13 1   
    34   12   14 1   
    35   12   16 1   
    36   13   51 1   
    37   13   52 1   
    38   13   53 1   
    39   14   15 1   
    40   14   19 1   
    41   14   54 1   
    42   15   55 1   
    43   15   56 1   
    44   16   17 1   
    45   16   57 1   
    46   16   58 1   
    47   17   18 1   
    48   17   59 1   
    49   17   60 1   
    50   18   19 1   
    51   18   61 1   
    52   18   62 1   
    53   19   20 2   
    54   20   21 1   
    55   20   63 1   
    56   21   22 2   
    57   21   64 1   
    58   22   23 1   
    59   22   24 1   
    60   23   29 1   
    61   23   65 1   
    62   23   66 1   
    63   24   25 1   
    64   24   67 1   
    65   24   68 1   
    66   25   26 1   
    67   25   27 1   
    68   25   69 1   
    69   26   70 1   
    70   27   28 1   
    71   27   29 1   
    72   27   71 1   
    73   28   72 1   
    74   28   73 1   
    75   28   74 1   
    76   29   30 1   
    77   29   75 1   
    78   30   76 1   
@<TRIPOS>SUBSTRUCTURE
     1 VD2         1 TEMP              0 ****  ****    0 ROOT
