@<TRIPOS>MOLECULE
VD2
   76    78     1     0     0
SMALL
bcc


@<TRIPOS>ATOM
      1 O3          0.4570   -0.1100    0.3220 oh        1 VD2     -0.597800
      2 C25         1.8810    0.0130    0.2850 c3        1 VD2      0.147800
      3 C27         2.4470   -0.1810    1.6890 c3        1 VD2     -0.123100
      4 C26         2.2720    1.3870   -0.2440 c3        1 VD2     -0.123100
      5 C24         2.3800   -1.1120   -0.6280 c3        1 VD2     -0.064400
      6 C23         1.8840   -0.9800   -2.0510 c3        1 VD2     -0.079400
      7 C22         2.2430   -2.2070   -2.8640 c3        1 VD2     -0.079400
      8 C20         1.8110   -2.0700   -4.3240 c3        1 VD2     -0.055700
      9 C21         2.8360   -1.2410   -5.0740 c3        1 VD2     -0.091100
     10 C17         1.6290   -3.4470   -4.9520 c3        1 VD2     -0.053700
     11 C16         0.5640   -4.2820   -4.2100 c3        1 VD2     -0.079400
     12 C13         1.1700   -3.4830   -6.4280 c3        1 VD2     -0.040000
     13 C18         0.0870   -2.4490   -6.6820 c3        1 VD2     -0.082100
     14 C14         0.6020   -4.9260   -6.5340 c3        1 VD2     -0.035500
     15 C15        -0.2030   -5.0960   -5.2550 c3        1 VD2     -0.074400
     16 C12         2.2770   -3.3700   -7.4660 c3        1 VD2     -0.066400
     17 C11         1.7420   -3.6500   -8.8590 c3        1 VD2     -0.073400
     18 C9          0.9580   -4.9460   -8.9770 c3        1 VD2     -0.043200
     19 C8         -0.0170   -5.1620   -7.8640 c2        1 VD2     -0.084400
     20 C7         -1.2780   -5.5930   -8.0310 ce        1 VD2     -0.145000
     21 C6         -1.9180   -5.8260   -9.3080 ce        1 VD2     -0.125000
     22 C5         -2.7940   -6.8120   -9.5720 c2        1 VD2     -0.099400
     23 C10        -3.1780   -7.8660   -8.5950 c3        1 VD2     -0.056700
     24 C4         -3.4070   -6.9390  -10.9240 c3        1 VD2     -0.056700
     25 C3         -4.9200   -7.1350  -10.8340 c3        1 VD2      0.148600
     26 O2         -5.4630   -7.3890  -12.1250 oh        1 VD2     -0.599300
     27 C2         -5.2580   -8.3460   -9.9600 c3        1 VD2     -0.094700
     28 C28        -6.7490   -8.5920   -9.9260 c3        1 VD2     -0.094100
     29 C1         -4.6800   -8.1450   -8.5550 c3        1 VD2      0.148600
     30 O1         -5.2810   -7.0610   -7.8590 oh        1 VD2     -0.599300
     31 HO3         0.1340    0.5950    0.8940 ho        1 VD2      0.397000
     32 H271        2.0640    0.6120    2.3740 hc        1 VD2      0.042200
     33 H272        2.1390   -1.1760    2.0900 hc        1 VD2      0.042200
     34 H273        3.5610   -0.1270    1.6630 hc        1 VD2      0.042200
     35 H261        2.0350    2.1750    0.5100 hc        1 VD2      0.042200
     36 H262        3.3650    1.4150   -0.4640 hc        1 VD2      0.042200
     37 H263        1.7050    1.6110   -1.1800 hc        1 VD2      0.042200
     38 H241        3.5000   -1.1060   -0.6090 hc        1 VD2      0.047200
     39 H242        2.0310   -2.0890   -0.2010 hc        1 VD2      0.047200
     40 H231        0.7700   -0.8420   -2.0400 hc        1 VD2      0.048700
     41 H232        2.3290   -0.0650   -2.5230 hc        1 VD2      0.048700
     42 H221        3.3500   -2.3810   -2.8200 hc        1 VD2      0.040700
     43 H222        1.7520   -3.1010   -2.3970 hc        1 VD2      0.040700
     44 H20         0.8220   -1.5300   -4.3520 hc        1 VD2      0.053700
     45 H211        3.1510   -0.3610   -4.4620 hc        1 VD2      0.033367
     46 H212        2.4100   -0.8580   -6.0320 hc        1 VD2      0.033367
     47 H213        3.7430   -1.8500   -5.3060 hc        1 VD2      0.033367
     48 H17         2.6160   -3.9840   -4.8890 hc        1 VD2      0.045700
     49 H161        1.0560   -4.9600   -3.4700 hc        1 VD2      0.043700
     50 H162       -0.1380   -3.6160   -3.6510 hc        1 VD2      0.043700
     51 H181       -0.4580   -2.6760   -7.6310 hc        1 VD2      0.037367
     52 H182       -0.6540   -2.4500   -5.8460 hc        1 VD2      0.037367
     53 H183        0.5320   -1.4280   -6.7640 hc        1 VD2      0.037367
     54 H14         1.4790   -5.6390   -6.4670 hc        1 VD2      0.053700
     55 H151       -0.2810   -6.1710   -4.9610 hc        1 VD2      0.045700
     56 H152       -1.2410   -4.6970   -5.3750 hc        1 VD2      0.045700
     57 H121        3.0940   -4.0990   -7.2200 hc        1 VD2      0.041700
     58 H122        2.7280   -2.3440   -7.4470 hc        1 VD2      0.041700
     59 H111        1.0850   -2.7960   -9.1750 hc        1 VD2      0.039200
     60 H112        2.6030   -3.6880   -9.5780 hc        1 VD2      0.039200
     61 H91         0.4360   -4.9600   -9.9700 hc        1 VD2      0.046700
     62 H92         1.6770   -5.8120   -8.9700 hc        1 VD2      0.046700
     63 H7         -1.9110   -5.7750   -7.1430 ha        1 VD2      0.134000
     64 H6         -1.6600   -5.1060  -10.1070 ha        1 VD2      0.121000
     65 H101       -2.6580   -8.8220   -8.8780 hc        1 VD2      0.056450
     66 H102       -2.8470   -7.5870   -7.5600 hc        1 VD2      0.056450
     67 H41        -2.9570   -7.8230  -11.4530 hc        1 VD2      0.056450
     68 H42        -3.1940   -6.0320  -11.5480 hc        1 VD2      0.056450
     69 H3         -5.4020   -6.2150  -10.3980 h1        1 VD2      0.041200
     70 HO2        -5.2250   -6.6350  -12.6770 ho        1 VD2      0.400500
     71 H2         -4.7570   -9.2500  -10.4070 hc        1 VD2      0.066700
     72 H281       -6.9920   -9.4210   -9.2200 hc        1 VD2      0.041033
     73 H282       -7.1050   -8.8670  -10.9490 hc        1 VD2      0.041033
     74 H283       -7.3000   -7.6730   -9.6080 hc        1 VD2      0.041033
     75 H1         -4.8570   -9.0910   -7.9630 h1        1 VD2      0.041200
     76 HO1        -6.2310   -7.2240   -7.8530 ho        1 VD2      0.400500
@<TRIPOS>BOND
     1    1    2 1   
     2    1   31 1   
     3    2    3 1   
     4    2    4 1   
     5    2    5 1   
     6    3   32 1   
     7    3   33 1   
     8    3   34 1   
     9    4   35 1   
    10    4   36 1   
    11    4   37 1   
    12    5    6 1   
    13    5   38 1   
    14    5   39 1   
    15    6    7 1   
    16    6   40 1   
    17    6   41 1   
    18    7    8 1   
    19    7   42 1   
    20    7   43 1   
    21    8    9 1   
    22    8   10 1   
    23    8   44 1   
    24    9   45 1   
    25    9   46 1   
    26    9   47 1   
    27   10   11 1   
    28   10   12 1   
    29   10   48 1   
    30   11   15 1   
    31   11   49 1   
    32   11   50 1   
    33   12   13 1   
    34   12   14 1   
    35   12   16 1   
    36   13   51 1   
    37   13   52 1   
    38   13   53 1   
    39   14   15 1   
    40   14   19 1   
    41   14   54 1   
    42   15   55 1   
    43   15   56 1   
    44   16   17 1   
    45   16   57 1   
    46   16   58 1   
    47   17   18 1   
    48   17   59 1   
    49   17   60 1   
    50   18   19 1   
    51   18   61 1   
    52   18   62 1   
    53   19   20 2   
    54   20   21 1   
    55   20   63 1   
    56   21   22 2   
    57   21   64 1   
    58   22   23 1   
    59   22   24 1   
    60   23   29 1   
    61   23   65 1   
    62   23   66 1   
    63   24   25 1   
    64   24   67 1   
    65   24   68 1   
    66   25   26 1   
    67   25   27 1   
    68   25   69 1   
    69   26   70 1   
    70   27   28 1   
    71   27   29 1   
    72   27   71 1   
    73   28   72 1   
    74   28   73 1   
    75   28   74 1   
    76   29   30 1   
    77   29   75 1   
    78   30   76 1   
@<TRIPOS>SUBSTRUCTURE
     1 VD2         1 TEMP              0 ****  ****    0 ROOT
