@<TRIPOS>MOLECULE
VD3
   72    74     1     0     0
SMALL
bcc


@<TRIPOS>ATOM
      1 O           0.2730   -0.5040   -0.9190 oh        1 VD3     -0.600800
      2 C1          3.6980    0.8750   -1.2720 c3        1 VD3     -0.041200
      3 C2          2.2180    0.6910   -1.5300 c3        1 VD3     -0.072400
      4 C3          1.6640   -0.4110   -0.6360 c3        1 VD3      0.145100
      5 C4          1.8930   -0.0870    0.8390 c3        1 VD3     -0.075200
      6 C5          3.3220    0.2170    1.1270 ce        1 VD3     -0.072200
      7 C7          3.9790   -0.2630    2.2020 cf        1 VD3     -0.121000
      8 C8          3.3980   -1.1000    3.2290 cf        1 VD3     -0.152000
      9 C9          4.0560   -2.0370    3.9310 c2        1 VD3     -0.074400
     10 C10         5.4780   -2.4330    3.6960 c3        1 VD3     -0.045200
     11 C6          3.9960    1.1060    0.1730 ce        1 VD3     -0.076200
     12 C11         6.2900   -2.5810    4.9720 c3        1 VD3     -0.073400
     13 C12         5.5810   -3.3440    6.0770 c3        1 VD3     -0.067400
     14 C13         4.1950   -2.7690    6.3270 c3        1 VD3     -0.040000
     15 C14         3.4180   -2.8710    4.9830 c3        1 VD3     -0.038500
     16 C15         1.9660   -2.6540    5.3830 c3        1 VD3     -0.073400
     17 C16         1.8560   -3.2780    6.7750 c3        1 VD3     -0.078400
     18 C17         3.2850   -3.5970    7.2640 c3        1 VD3     -0.053700
     19 C18         4.2860   -1.3280    6.7970 c3        1 VD3     -0.083100
     20 C19         4.8430    2.0650    0.5670 c2        1 VD3     -0.216000
     21 C20         3.4420   -3.3560    8.7620 c3        1 VD3     -0.055700
     22 C21         4.8550   -3.6420    9.2310 c3        1 VD3     -0.091100
     23 C22         2.4620   -4.2300    9.5430 c3        1 VD3     -0.080400
     24 C23         2.1600   -3.6580   10.9130 c3        1 VD3     -0.079400
     25 C24         1.2110   -4.5560   11.6780 c3        1 VD3     -0.076400
     26 C25         0.8580   -3.9930   13.0470 c3        1 VD3     -0.067700
     27 C26        -0.3880   -4.6700   13.5830 c3        1 VD3     -0.089600
     28 C27         2.0020   -4.1590   14.0260 c3        1 VD3     -0.089600
     29 HO         -0.0880   -1.1690   -0.3220 ho        1 VD3      0.399000
     30 H11         4.2530   -0.0450   -1.6050 hc        1 VD3      0.050200
     31 H12         4.0750    1.7340   -1.8890 hc        1 VD3      0.050200
     32 H21         1.6630    1.6430   -1.3270 hc        1 VD3      0.057200
     33 H22         2.0450    0.4210   -2.6030 hc        1 VD3      0.057200
     34 H3          2.1570   -1.3930   -0.8880 h1        1 VD3      0.036700
     35 H41         1.5360   -0.9520    1.4570 hc        1 VD3      0.056200
     36 H42         1.2680    0.8060    1.1150 hc        1 VD3      0.056200
     37 H7          5.0430    0.0040    2.3410 ha        1 VD3      0.127000
     38 H8          2.3290   -0.9180    3.4420 ha        1 VD3      0.126000
     39 H101        5.9940   -1.6930    3.0280 hc        1 VD3      0.049200
     40 H102        5.4700   -3.4170    3.1510 hc        1 VD3      0.049200
     41 H111        6.5640   -1.5600    5.3520 hc        1 VD3      0.040700
     42 H112        7.2490   -3.1090    4.7250 hc        1 VD3      0.040700
     43 H121        6.1990   -3.2920    7.0110 hc        1 VD3      0.042700
     44 H122        5.4910   -4.4250    5.7940 hc        1 VD3      0.042700
     45 H14         3.5030   -3.9430    4.6260 hc        1 VD3      0.055700
     46 H151        1.7190   -1.5630    5.4230 hc        1 VD3      0.043700
     47 H152        1.2670   -3.1380    4.6590 hc        1 VD3      0.043700
     48 H161        1.3510   -2.5680    7.4760 hc        1 VD3      0.043200
     49 H162        1.2460   -4.2140    6.7370 hc        1 VD3      0.043200
     50 H17         3.4970   -4.6850    7.0700 hc        1 VD3      0.046700
     51 H181        4.6680   -0.6710    5.9790 hc        1 VD3      0.037367
     52 H182        3.2770   -0.9540    7.1010 hc        1 VD3      0.037367
     53 H183        4.9760   -1.2440    7.6710 hc        1 VD3      0.037367
     54 H191        5.3430    2.7330   -0.1450 ha        1 VD3      0.115000
     55 H192        5.0800    2.2440    1.6240 ha        1 VD3      0.115000
     56 H20         3.2040   -2.2750    8.9760 hc        1 VD3      0.051700
     57 H211        5.5480   -2.8220    8.9250 hc        1 VD3      0.034367
     58 H212        5.2270   -4.6030    8.8000 hc        1 VD3      0.034367
     59 H213        4.8880   -3.7200   10.3450 hc        1 VD3      0.034367
     60 H221        2.8910   -5.2610    9.6500 hc        1 VD3      0.041200
     61 H222        1.4980   -4.3330    8.9790 hc        1 VD3      0.041200
     62 H231        1.7050   -2.6380   10.8020 hc        1 VD3      0.040200
     63 H232        3.1110   -3.5330   11.4940 hc        1 VD3      0.040200
     64 H241        1.6680   -5.5730   11.7990 hc        1 VD3      0.039700
     65 H242        0.2690   -4.6860   11.0810 hc        1 VD3      0.039700
     66 H25         0.6420   -2.8920   12.9350 hc        1 VD3      0.045700
     67 H261       -0.2280   -5.7710   13.6700 hc        1 VD3      0.033367
     68 H262       -1.2540   -4.4910   12.9020 hc        1 VD3      0.033367
     69 H263       -0.6430   -4.2680   14.5930 hc        1 VD3      0.033367
     70 H271        2.9140   -3.6330   13.6560 hc        1 VD3      0.033367
     71 H272        1.7250   -3.7310   15.0200 hc        1 VD3      0.033367
     72 H273        2.2470   -5.2400   14.1630 hc        1 VD3      0.033367
@<TRIPOS>BOND
     1    1    4 1   
     2    1   29 1   
     3    2    3 1   
     4    2   11 1   
     5    2   30 1   
     6    2   31 1   
     7    3    4 1   
     8    3   32 1   
     9    3   33 1   
    10    4    5 1   
    11    4   34 1   
    12    5    6 1   
    13    5   35 1   
    14    5   36 1   
    15    6    7 2   
    16    6   11 1   
    17    7    8 1   
    18    7   37 1   
    19    8    9 2   
    20    8   38 1   
    21    9   10 1   
    22    9   15 1   
    23   10   12 1   
    24   10   39 1   
    25   10   40 1   
    26   11   20 2   
    27   12   13 1   
    28   12   41 1   
    29   12   42 1   
    30   13   14 1   
    31   13   43 1   
    32   13   44 1   
    33   14   15 1   
    34   14   18 1   
    35   14   19 1   
    36   15   16 1   
    37   15   45 1   
    38   16   17 1   
    39   16   46 1   
    40   16   47 1   
    41   17   18 1   
    42   17   48 1   
    43   17   49 1   
    44   18   21 1   
    45   18   50 1   
    46   19   51 1   
    47   19   52 1   
    48   19   53 1   
    49   20   54 1   
    50   20   55 1   
    51   21   22 1   
    52   21   23 1   
    53   21   56 1   
    54   22   57 1   
    55   22   58 1   
    56   22   59 1   
    57   23   24 1   
    58   23   60 1   
    59   23   61 1   
    60   24   25 1   
    61   24   62 1   
    62   24   63 1   
    63   25   26 1   
    64   25   64 1   
    65   25   65 1   
    66   26   27 1   
    67   26   28 1   
    68   26   66 1   
    69   27   67 1   
    70   27   68 1   
    71   27   69 1   
    72   28   70 1   
    73   28   71 1   
    74   28   72 1   
@<TRIPOS>SUBSTRUCTURE
     1 VD3         1 TEMP              0 ****  ****    0 ROOT
