@<TRIPOS>MOLECULE
VD3
   72    74     1     0     0
SMALL
bcc


@<TRIPOS>ATOM
      1 O           0.2630   -0.4720   -0.9070 oh        1 VD3     -0.600800
      2 C1          3.6960    0.8840   -1.2680 c3        1 VD3     -0.041200
      3 C2          2.2140    0.7110   -1.5220 c3        1 VD3     -0.072400
      4 C3          1.6560   -0.3900   -0.6290 c3        1 VD3      0.145100
      5 C4          1.8930   -0.0700    0.8460 c3        1 VD3     -0.075200
      6 C5          3.3250    0.2240    1.1300 ce        1 VD3     -0.072200
      7 C7          3.9830   -0.2630    2.2020 cf        1 VD3     -0.121000
      8 C8          3.3990   -1.0980    3.2280 cf        1 VD3     -0.152000
      9 C9          4.0540   -2.0410    3.9280 c2        1 VD3     -0.074400
     10 C10         5.4730   -2.4440    3.6890 c3        1 VD3     -0.045200
     11 C6          4.0010    1.1100    0.1750 ce        1 VD3     -0.076200
     12 C11         6.2870   -2.5990    4.9620 c3        1 VD3     -0.073400
     13 C12         5.5770   -3.3590    6.0680 c3        1 VD3     -0.067400
     14 C13         4.1940   -2.7770    6.3220 c3        1 VD3     -0.040000
     15 C14         3.4140   -2.8730    4.9800 c3        1 VD3     -0.038500
     16 C15         1.9640   -2.6470    5.3830 c3        1 VD3     -0.073400
     17 C16         1.8540   -3.2730    6.7750 c3        1 VD3     -0.078400
     18 C17         3.2820   -3.6010    7.2600 c3        1 VD3     -0.053700
     19 C18         4.2940   -1.3370    6.7940 c3        1 VD3     -0.083100
     20 C19         4.8560    2.0630    0.5690 c2        1 VD3     -0.216000
     21 C20         3.4440   -3.3630    8.7580 c3        1 VD3     -0.055700
     22 C21         4.8570   -3.6580    9.2240 c3        1 VD3     -0.091100
     23 C22         2.4610   -4.2330    9.5400 c3        1 VD3     -0.080400
     24 C23         2.1660   -3.6610   10.9120 c3        1 VD3     -0.079400
     25 C24         1.2130   -4.5550   11.6770 c3        1 VD3     -0.076400
     26 C25         0.8660   -3.9910   13.0480 c3        1 VD3     -0.067700
     27 C26        -0.3830   -4.6620   13.5860 c3        1 VD3     -0.089600
     28 C27         2.0100   -4.1650   14.0240 c3        1 VD3     -0.089600
     29 HO         -0.1000   -1.1360   -0.3100 ho        1 VD3      0.399000
     30 H11         4.2440   -0.0380   -1.6050 hc        1 VD3      0.050200
     31 H12         4.0770    1.7420   -1.8850 hc        1 VD3      0.050200
     32 H21         1.6670    1.6670   -1.3150 hc        1 VD3      0.057200
     33 H22         2.0360    0.4450   -2.5950 hc        1 VD3      0.057200
     34 H3          2.1420   -1.3740   -0.8850 h1        1 VD3      0.036700
     35 H41         1.5320   -0.9340    1.4640 hc        1 VD3      0.056200
     36 H42         1.2750    0.8270    1.1260 hc        1 VD3      0.056200
     37 H7          5.0490   -0.0030    2.3380 ha        1 VD3      0.127000
     38 H8          2.3320   -0.9110    3.4450 ha        1 VD3      0.126000
     39 H101        5.9910   -1.7060    3.0210 hc        1 VD3      0.049200
     40 H102        5.4570   -3.4280    3.1420 hc        1 VD3      0.049200
     41 H111        7.2430   -3.1320    4.7120 hc        1 VD3      0.040700
     42 H112        6.5670   -1.5800    5.3430 hc        1 VD3      0.040700
     43 H121        6.1970   -3.3130    7.0000 hc        1 VD3      0.042700
     44 H122        5.4790   -4.4400    5.7840 hc        1 VD3      0.042700
     45 H14         3.4920   -3.9440    4.6210 hc        1 VD3      0.055700
     46 H151        1.7230   -1.5560    5.4260 hc        1 VD3      0.043700
     47 H152        1.2610   -3.1270    4.6610 hc        1 VD3      0.043700
     48 H161        1.2390   -4.2060    6.7370 hc        1 VD3      0.043200
     49 H162        1.3540   -2.5610    7.4780 hc        1 VD3      0.043200
     50 H17         3.4870   -4.6910    7.0640 hc        1 VD3      0.046700
     51 H181        4.6780   -0.6810    5.9760 hc        1 VD3      0.037367
     52 H182        3.2890   -0.9580    7.1010 hc        1 VD3      0.037367
     53 H183        4.9870   -1.2590    7.6660 hc        1 VD3      0.037367
     54 H191        5.3580    2.7290   -0.1440 ha        1 VD3      0.115000
     55 H192        5.0980    2.2370    1.6250 ha        1 VD3      0.115000
     56 H20         3.2120   -2.2820    8.9740 hc        1 VD3      0.051700
     57 H211        5.2220   -4.6200    8.7900 hc        1 VD3      0.034367
     58 H212        4.8910   -3.7380   10.3370 hc        1 VD3      0.034367
     59 H213        5.5540   -2.8410    8.9170 hc        1 VD3      0.034367
     60 H221        2.8840   -5.2660    9.6450 hc        1 VD3      0.041200
     61 H222        1.4960   -4.3300    8.9780 hc        1 VD3      0.041200
     62 H231        1.7160   -2.6390   10.8030 hc        1 VD3      0.040200
     63 H232        3.1190   -3.5420   11.4900 hc        1 VD3      0.040200
     64 H241        0.2690   -4.6790   11.0820 hc        1 VD3      0.039700
     65 H242        1.6650   -5.5740   11.7970 hc        1 VD3      0.039700
     66 H25         0.6560   -2.8890   12.9380 hc        1 VD3      0.045700
     67 H261       -1.2490   -4.4780   12.9060 hc        1 VD3      0.033367
     68 H262       -0.6330   -4.2600   14.5970 hc        1 VD3      0.033367
     69 H263       -0.2290   -5.7640   13.6710 hc        1 VD3      0.033367
     70 H271        2.9250   -3.6430   13.6530 hc        1 VD3      0.033367
     71 H272        2.2510   -5.2470   14.1600 hc        1 VD3      0.033367
     72 H273        1.7380   -3.7360   15.0190 hc        1 VD3      0.033367
@<TRIPOS>BOND
     1    1    4 1   
     2    1   29 1   
     3    2    3 1   
     4    2   11 1   
     5    2   30 1   
     6    2   31 1   
     7    3    4 1   
     8    3   32 1   
     9    3   33 1   
    10    4    5 1   
    11    4   34 1   
    12    5    6 1   
    13    5   35 1   
    14    5   36 1   
    15    6    7 2   
    16    6   11 1   
    17    7    8 1   
    18    7   37 1   
    19    8    9 2   
    20    8   38 1   
    21    9   10 1   
    22    9   15 1   
    23   10   12 1   
    24   10   39 1   
    25   10   40 1   
    26   11   20 2   
    27   12   13 1   
    28   12   41 1   
    29   12   42 1   
    30   13   14 1   
    31   13   43 1   
    32   13   44 1   
    33   14   15 1   
    34   14   18 1   
    35   14   19 1   
    36   15   16 1   
    37   15   45 1   
    38   16   17 1   
    39   16   46 1   
    40   16   47 1   
    41   17   18 1   
    42   17   48 1   
    43   17   49 1   
    44   18   21 1   
    45   18   50 1   
    46   19   51 1   
    47   19   52 1   
    48   19   53 1   
    49   20   54 1   
    50   20   55 1   
    51   21   22 1   
    52   21   23 1   
    53   21   56 1   
    54   22   57 1   
    55   22   58 1   
    56   22   59 1   
    57   23   24 1   
    58   23   60 1   
    59   23   61 1   
    60   24   25 1   
    61   24   62 1   
    62   24   63 1   
    63   25   26 1   
    64   25   64 1   
    65   25   65 1   
    66   26   27 1   
    67   26   28 1   
    68   26   66 1   
    69   27   67 1   
    70   27   68 1   
    71   27   69 1   
    72   28   70 1   
    73   28   71 1   
    74   28   72 1   
@<TRIPOS>SUBSTRUCTURE
     1 VD3         1 TEMP              0 ****  ****    0 ROOT
