@<TRIPOS>MOLECULE
VD3
   72    74     1     0     0
SMALL
bcc


@<TRIPOS>ATOM
      1 O          -6.2210   -3.2270   -1.4120 oh        1 VD3     -0.600800
      2 C1         -7.3860   -0.1460    0.2930 c3        1 VD3     -0.041200
      3 C2         -7.4120   -1.5690   -0.2210 c3        1 VD3     -0.072400
      4 C3         -6.1300   -1.8720   -0.9870 c3        1 VD3      0.145100
      5 C4         -4.9020   -1.6650   -0.1020 c3        1 VD3     -0.075200
      6 C5         -4.8880   -0.3140    0.5240 ce        1 VD3     -0.072200
      7 C7         -3.7830    0.4560    0.5980 cf        1 VD3     -0.121000
      8 C8         -2.4710    0.0800    0.1190 cf        1 VD3     -0.152000
      9 C9         -1.5470    0.9280   -0.3620 c2        1 VD3     -0.074400
     10 C10        -1.7640    2.3920   -0.5700 c3        1 VD3     -0.045200
     11 C6         -6.1600    0.1450    1.0930 ce        1 VD3     -0.076200
     12 C11        -0.6080    3.2550   -0.0910 c3        1 VD3     -0.073400
     13 C12         0.7630    2.7410   -0.4940 c3        1 VD3     -0.067400
     14 C13         0.9240    1.2770   -0.1130 c3        1 VD3     -0.040000
     15 C14        -0.2070    0.4960   -0.8390 c3        1 VD3     -0.038500
     16 C15         0.2290   -0.9580   -0.7380 c3        1 VD3     -0.073400
     17 C16         1.7570   -0.9030   -0.8060 c3        1 VD3     -0.078400
     18 C17         2.1830    0.5740   -0.6720 c3        1 VD3     -0.053700
     19 C18         0.8320    1.0990    1.3930 c3        1 VD3     -0.083100
     20 C19        -6.2250    0.8020    2.2580 c2        1 VD3     -0.216000
     21 C20         3.4690    0.7250    0.1340 c3        1 VD3     -0.055700
     22 C21         3.8670    2.1800    0.2880 c3        1 VD3     -0.091100
     23 C22         4.6070   -0.0420   -0.5380 c3        1 VD3     -0.080400
     24 C23         5.7010   -0.4100    0.4440 c3        1 VD3     -0.079400
     25 C24         6.8280   -1.1440   -0.2510 c3        1 VD3     -0.076400
     26 C25         7.9300   -1.5590    0.7140 c3        1 VD3     -0.067700
     27 C26         8.7940   -2.6330    0.0850 c3        1 VD3     -0.089600
     28 C27         8.7830   -0.3770    1.1220 c3        1 VD3     -0.089600
     29 HO         -5.3910   -3.4340   -1.8570 ho        1 VD3      0.399000
     30 H11        -7.4190    0.5670   -0.5760 hc        1 VD3      0.050200
     31 H12        -8.3060    0.0380    0.9100 hc        1 VD3      0.050200
     32 H21        -8.2930   -1.7190   -0.8970 hc        1 VD3      0.057200
     33 H22        -7.5120   -2.2920    0.6300 hc        1 VD3      0.057200
     34 H3         -6.0590   -1.2060   -1.8930 h1        1 VD3      0.036700
     35 H41        -3.9810   -1.8290   -0.7210 hc        1 VD3      0.056200
     36 H42        -4.9060   -2.4420    0.7100 hc        1 VD3      0.056200
     37 H7         -3.8570    1.4520    1.0730 ha        1 VD3      0.127000
     38 H8         -2.2320   -0.9980    0.1830 ha        1 VD3      0.126000
     39 H101       -1.9130    2.5590   -1.6730 hc        1 VD3      0.049200
     40 H102       -2.7010    2.7340   -0.0570 hc        1 VD3      0.049200
     41 H111       -0.7420    4.2900   -0.5020 hc        1 VD3      0.040700
     42 H112       -0.6520    3.3360    1.0280 hc        1 VD3      0.040700
     43 H121        0.8990    2.8540   -1.6020 hc        1 VD3      0.042700
     44 H122        1.5480    3.3640    0.0060 hc        1 VD3      0.042700
     45 H14        -0.1600    0.7770   -1.9350 hc        1 VD3      0.055700
     46 H151       -0.1970   -1.5710   -1.5680 hc        1 VD3      0.043700
     47 H152       -0.1020   -1.4120    0.2300 hc        1 VD3      0.043700
     48 H161        2.1200   -1.3200   -1.7780 hc        1 VD3      0.043200
     49 H162        2.2000   -1.5160    0.0170 hc        1 VD3      0.043200
     50 H17         2.3750    0.9880   -1.7010 hc        1 VD3      0.046700
     51 H181       -0.2030    1.3230    1.7510 hc        1 VD3      0.037367
     52 H182        1.0790    0.0470    1.6760 hc        1 VD3      0.037367
     53 H183        1.5430    1.7850    1.9130 hc        1 VD3      0.037367
     54 H191       -7.1760    1.1410    2.6860 ha        1 VD3      0.115000
     55 H192       -5.3330    1.0320    2.8550 ha        1 VD3      0.115000
     56 H20         3.3010    0.2880    1.1590 hc        1 VD3      0.051700
     57 H211        3.7770    2.7190   -0.6860 hc        1 VD3      0.034367
     58 H212        3.2180    2.6910    1.0390 hc        1 VD3      0.034367
     59 H213        4.9250    2.2600    0.6380 hc        1 VD3      0.034367
     60 H221        5.0360    0.5820   -1.3660 hc        1 VD3      0.041200
     61 H222        4.2160   -0.9840   -1.0070 hc        1 VD3      0.041200
     62 H231        5.2740   -1.0570    1.2550 hc        1 VD3      0.040200
     63 H232        6.0990    0.5160    0.9360 hc        1 VD3      0.040200
     64 H241        7.2630   -0.4930   -1.0550 hc        1 VD3      0.039700
     65 H242        6.4150   -2.0590   -0.7520 hc        1 VD3      0.039700
     66 H25         7.4490   -1.9880    1.6390 hc        1 VD3      0.045700
     67 H261        9.6110   -2.9320    0.7850 hc        1 VD3      0.033367
     68 H262        8.1840   -3.5370   -0.1530 hc        1 VD3      0.033367
     69 H263        9.2570   -2.2600   -0.8600 hc        1 VD3      0.033367
     70 H271        8.1600    0.4050    1.6190 hc        1 VD3      0.033367
     71 H272        9.5770   -0.7030    1.8370 hc        1 VD3      0.033367
     72 H273        9.2760    0.0780    0.2300 hc        1 VD3      0.033367
@<TRIPOS>BOND
     1    1    4 1   
     2    1   29 1   
     3    2    3 1   
     4    2   11 1   
     5    2   30 1   
     6    2   31 1   
     7    3    4 1   
     8    3   32 1   
     9    3   33 1   
    10    4    5 1   
    11    4   34 1   
    12    5    6 1   
    13    5   35 1   
    14    5   36 1   
    15    6    7 2   
    16    6   11 1   
    17    7    8 1   
    18    7   37 1   
    19    8    9 2   
    20    8   38 1   
    21    9   10 1   
    22    9   15 1   
    23   10   12 1   
    24   10   39 1   
    25   10   40 1   
    26   11   20 2   
    27   12   13 1   
    28   12   41 1   
    29   12   42 1   
    30   13   14 1   
    31   13   43 1   
    32   13   44 1   
    33   14   15 1   
    34   14   18 1   
    35   14   19 1   
    36   15   16 1   
    37   15   45 1   
    38   16   17 1   
    39   16   46 1   
    40   16   47 1   
    41   17   18 1   
    42   17   48 1   
    43   17   49 1   
    44   18   21 1   
    45   18   50 1   
    46   19   51 1   
    47   19   52 1   
    48   19   53 1   
    49   20   54 1   
    50   20   55 1   
    51   21   22 1   
    52   21   23 1   
    53   21   56 1   
    54   22   57 1   
    55   22   58 1   
    56   22   59 1   
    57   23   24 1   
    58   23   60 1   
    59   23   61 1   
    60   24   25 1   
    61   24   62 1   
    62   24   63 1   
    63   25   26 1   
    64   25   64 1   
    65   25   65 1   
    66   26   27 1   
    67   26   28 1   
    68   26   66 1   
    69   27   67 1   
    70   27   68 1   
    71   27   69 1   
    72   28   70 1   
    73   28   71 1   
    74   28   72 1   
@<TRIPOS>SUBSTRUCTURE
     1 VD3         1 TEMP              0 ****  ****    0 ROOT
