@<TRIPOS>MOLECULE
VD4
   72    74     1     0     0
SMALL
bcc


@<TRIPOS>ATOM
      1 O3          6.0950    8.7640    4.9710 oh        1 VD4     -0.596800
      2 C25         6.7090    8.6230    3.6890 c3        1 VD4      0.148800
      3 C26         6.4420    9.8710    2.8530 c3        1 VD4     -0.103600
      4 C27         8.2010    8.4830    3.9620 c3        1 VD4     -0.103600
      5 C24         6.1520    7.3970    2.9560 c3        1 VD4     -0.105400
      6 C23         6.2830    6.1240    3.7640 c3        1 VD4     -0.078400
      7 C22         5.5530    4.9820    3.0870 c3        1 VD4     -0.042200
      8 C20         5.5790    3.6930    3.8360 c2        1 VD4     -0.107400
      9 C21         6.6110    3.5770    4.8980 c3        1 VD4     -0.058900
     10 C17         4.7290    2.6860    3.5670 c2        1 VD4     -0.120400
     11 C13         3.6290    2.6210    2.5300 c3        1 VD4     -0.001800
     12 C18         2.3830    3.2620    3.1310 c3        1 VD4     -0.081100
     13 C12         3.9000    3.1920    1.1450 c3        1 VD4     -0.065400
     14 C11         2.7630    2.8660    0.1910 c3        1 VD4     -0.073400
     15 C9          2.3470    1.4050    0.1610 c3        1 VD4     -0.045200
     16 C16         4.7040    1.4000    4.3540 c3        1 VD4     -0.044200
     17 C15         3.6140    0.5160    3.7400 c3        1 VD4     -0.073400
     18 C14         3.4510    1.0850    2.3380 c3        1 VD4     -0.036500
     19 C8          2.2530    0.7810    1.5160 c2        1 VD4     -0.073400
     20 C7          1.2480   -0.0080    1.9320 ce        1 VD4     -0.151000
     21 C6          0.1000   -0.3830    1.1370 ce        1 VD4     -0.121000
     22 C5         -1.1050   -0.7340    1.6230 c2        1 VD4     -0.119400
     23 C10        -2.1950   -1.1730    0.7080 c3        1 VD4     -0.076700
     24 C1         -3.4980   -0.4180    0.9880 c3        1 VD4      0.184300
     25 O1         -4.5600   -0.9680    0.2140 oh        1 VD4     -0.592800
     26 C4         -1.4520   -0.7670    3.0690 c3        1 VD4     -0.076700
     27 C3         -2.7750   -0.0600    3.3790 c3        1 VD4      0.184300
     28 O2         -2.6120    1.3500    3.3770 oh        1 VD4     -0.592800
     29 C2         -3.8640   -0.4970    2.4400 c2        1 VD4     -0.167400
     30 C28        -5.0560   -0.9080    2.8760 c2        1 VD4     -0.162000
     31 HO3         5.1450    8.8280    4.8190 ho        1 VD4      0.398000
     32 H261        5.3520    9.9690    2.6350 hc        1 VD4      0.043533
     33 H262        6.9990    9.8110    1.8890 hc        1 VD4      0.043533
     34 H263        6.7750   10.7780    3.4100 hc        1 VD4      0.043533
     35 H271        8.3790    7.6720    4.7070 hc        1 VD4      0.043533
     36 H272        8.7340    8.2400    3.0140 hc        1 VD4      0.043533
     37 H273        8.6020    9.4380    4.3780 hc        1 VD4      0.043533
     38 H241        6.6920    7.2880    1.9800 hc        1 VD4      0.042700
     39 H242        5.0690    7.5820    2.7230 hc        1 VD4      0.042700
     40 H231        7.3690    5.8710    3.8840 hc        1 VD4      0.051700
     41 H232        5.8650    6.2960    4.7920 hc        1 VD4      0.051700
     42 H221        6.0050    4.8140    2.0700 hc        1 VD4      0.046200
     43 H222        4.4820    5.2910    2.9320 hc        1 VD4      0.046200
     44 H211        6.4200    4.3280    5.7050 hc        1 VD4      0.042033
     45 H212        6.6280    2.5640    5.3690 hc        1 VD4      0.042033
     46 H213        7.6250    3.7730    4.4670 hc        1 VD4      0.042033
     47 H181        2.2390    2.9180    4.1840 hc        1 VD4      0.039033
     48 H182        2.4850    4.3740    3.1300 hc        1 VD4      0.039033
     49 H183        1.4750    2.9830    2.5430 hc        1 VD4      0.039033
     50 H121        4.8640    2.7760    0.7530 hc        1 VD4      0.044700
     51 H122        4.0070    4.3070    1.1900 hc        1 VD4      0.044700
     52 H111        3.0670    3.1690   -0.8460 hc        1 VD4      0.040700
     53 H112        1.8710    3.4900    0.4680 hc        1 VD4      0.040700
     54 H91         3.1030    0.8190   -0.4320 hc        1 VD4      0.047200
     55 H92         1.3680    1.3300   -0.3820 hc        1 VD4      0.047200
     56 H161        5.6980    0.8870    4.2890 hc        1 VD4      0.050200
     57 H162        4.4890    1.6040    5.4330 hc        1 VD4      0.050200
     58 H151        3.9180   -0.5570    3.7180 hc        1 VD4      0.046200
     59 H152        2.6650    0.5990    4.3250 hc        1 VD4      0.046200
     60 H14         4.3400    0.7210    1.7380 hc        1 VD4      0.058700
     61 H7          1.2880   -0.4340    2.9510 ha        1 VD4      0.129000
     62 H6          0.2590   -0.3950    0.0420 ha        1 VD4      0.121000
     63 H101       -1.9090   -1.0190   -0.3650 hc        1 VD4      0.059950
     64 H102       -2.3760   -2.2720    0.8540 hc        1 VD4      0.059950
     65 H1         -3.3710    0.6690    0.7080 h1        1 VD4      0.058200
     66 HO1        -4.2810   -0.9170   -0.7070 ho        1 VD4      0.401000
     67 H41        -1.5390   -1.8400    3.3910 hc        1 VD4      0.059950
     68 H42        -0.6510   -0.2830    3.6880 hc        1 VD4      0.059950
     69 H3         -3.0700   -0.2840    4.4460 h1        1 VD4      0.058200
     70 HO2        -2.3010    1.6030    2.4990 ho        1 VD4      0.401000
     71 H281       -5.3090   -0.9410    3.9440 ha        1 VD4      0.124000
     72 H282       -5.8480   -1.2340    2.1880 ha        1 VD4      0.124000
@<TRIPOS>BOND
     1    1    2 1   
     2    1   31 1   
     3    2    3 1   
     4    2    4 1   
     5    2    5 1   
     6    3   32 1   
     7    3   33 1   
     8    3   34 1   
     9    4   35 1   
    10    4   36 1   
    11    4   37 1   
    12    5    6 1   
    13    5   38 1   
    14    5   39 1   
    15    6    7 1   
    16    6   40 1   
    17    6   41 1   
    18    7    8 1   
    19    7   42 1   
    20    7   43 1   
    21    8    9 1   
    22    8   10 2   
    23    9   44 1   
    24    9   45 1   
    25    9   46 1   
    26   10   11 1   
    27   10   16 1   
    28   11   12 1   
    29   11   13 1   
    30   11   18 1   
    31   12   47 1   
    32   12   48 1   
    33   12   49 1   
    34   13   14 1   
    35   13   50 1   
    36   13   51 1   
    37   14   15 1   
    38   14   52 1   
    39   14   53 1   
    40   15   19 1   
    41   15   54 1   
    42   15   55 1   
    43   16   17 1   
    44   16   56 1   
    45   16   57 1   
    46   17   18 1   
    47   17   58 1   
    48   17   59 1   
    49   18   19 1   
    50   18   60 1   
    51   19   20 2   
    52   20   21 1   
    53   20   61 1   
    54   21   22 2   
    55   21   62 1   
    56   22   23 1   
    57   22   26 1   
    58   23   24 1   
    59   23   63 1   
    60   23   64 1   
    61   24   25 1   
    62   24   29 1   
    63   24   65 1   
    64   25   66 1   
    65   26   27 1   
    66   26   67 1   
    67   26   68 1   
    68   27   28 1   
    69   27   29 1   
    70   27   69 1   
    71   28   70 1   
    72   29   30 2   
    73   30   71 1   
    74   30   72 1   
@<TRIPOS>SUBSTRUCTURE
     1 VD4         1 TEMP              0 ****  ****    0 ROOT
