@<TRIPOS>MOLECULE
VD4
   72    74     1     0     0
SMALL
bcc


@<TRIPOS>ATOM
      1 O3         -0.3640    1.0850   -0.0450 oh        1 VD4     -0.597800
      2 C25         0.9510    0.5330    0.0580 c3        1 VD4      0.147800
      3 C26         1.4300    0.6190    1.5050 c3        1 VD4     -0.123600
      4 C27         0.9420   -0.9210   -0.3970 c3        1 VD4     -0.123600
      5 C24         1.8470    1.4020   -0.8300 c3        1 VD4     -0.065400
      6 C23         1.4410    1.3700   -2.2880 c3        1 VD4     -0.077400
      7 C22         2.2650    2.3580   -3.0890 c3        1 VD4     -0.042200
      8 C20         1.9200    2.4320   -4.5380 c2        1 VD4     -0.108400
      9 C21         1.1150    1.3050   -5.0750 c3        1 VD4     -0.057900
     10 C17         2.3160    3.4500   -5.3220 c2        1 VD4     -0.119400
     11 C13         3.1320    4.6710   -4.9550 c3        1 VD4     -0.001800
     12 C18         2.1760    5.7220   -4.4010 c3        1 VD4     -0.082100
     13 C12         4.3220    4.4980   -4.0220 c3        1 VD4     -0.065400
     14 C11         5.1280    5.7830   -3.9250 c3        1 VD4     -0.073400
     15 C9          5.5030    6.4090   -5.2580 c3        1 VD4     -0.044200
     16 C16         1.9300    3.5680   -6.7740 c3        1 VD4     -0.044200
     17 C15         2.5830    4.8440   -7.3140 c3        1 VD4     -0.073400
     18 C14         3.7190    5.0970   -6.3340 c3        1 VD4     -0.035500
     19 C8          4.3850    6.4210   -6.2490 c2        1 VD4     -0.078400
     20 C7          4.0500    7.4710   -7.0170 ce        1 VD4     -0.144000
     21 C6          4.7160    8.7550   -7.0120 ce        1 VD4     -0.124000
     22 C5          4.1550    9.9260   -7.3670 c2        1 VD4     -0.104400
     23 C10         4.9760   11.1690   -7.3980 c3        1 VD4     -0.035200
     24 C1          4.2520   12.3200   -6.6960 c3        1 VD4      0.183300
     25 O1          5.1010   13.4550   -6.8060 oh        1 VD4     -0.593800
     26 C4          2.7370   10.0630   -7.7960 c3        1 VD4     -0.035200
     27 C3          2.0280   11.3040   -7.2500 c3        1 VD4      0.183300
     28 O2          1.6420   11.0050   -5.9110 oh        1 VD4     -0.593800
     29 C2          2.9010   12.5260   -7.3140 c2        1 VD4     -0.194400
     30 C28         2.5020   13.6610   -7.8880 c2        1 VD4     -0.198000
     31 HO3        -0.9340    0.5470    0.5160 ho        1 VD4      0.397000
     32 H261        0.7680    0.0150    2.1690 hc        1 VD4      0.042367
     33 H262        2.4720    0.2310    1.5860 hc        1 VD4      0.042367
     34 H263        1.4080    1.6800    1.8510 hc        1 VD4      0.042367
     35 H271        0.4090   -1.0130   -1.3730 hc        1 VD4      0.042367
     36 H272        0.4160   -1.5590    0.3540 hc        1 VD4      0.042367
     37 H273        1.9860   -1.2920   -0.5150 hc        1 VD4      0.042367
     38 H241        1.7960    2.4570   -0.4510 hc        1 VD4      0.047200
     39 H242        2.9030    1.0430   -0.7170 hc        1 VD4      0.047200
     40 H231        1.5820    0.3340   -2.6920 hc        1 VD4      0.050700
     41 H232        0.3500    1.6200   -2.3680 hc        1 VD4      0.050700
     42 H221        3.3530    2.0850   -2.9950 hc        1 VD4      0.047200
     43 H222        2.1330    3.3780   -2.6320 hc        1 VD4      0.047200
     44 H211        0.1170    1.2690   -4.5690 hc        1 VD4      0.040700
     45 H212        1.6420    0.3360   -4.8860 hc        1 VD4      0.040700
     46 H213        0.9390    1.3910   -6.1750 hc        1 VD4      0.040700
     47 H181        1.2550    5.7780   -5.0290 hc        1 VD4      0.040033
     48 H182        1.8800    5.4570   -3.3570 hc        1 VD4      0.040033
     49 H183        2.6590    6.7290   -4.3960 hc        1 VD4      0.040033
     50 H121        3.9800    4.2250   -2.9910 hc        1 VD4      0.043200
     51 H122        4.9710    3.6630   -4.3960 hc        1 VD4      0.043200
     52 H111        6.0710    5.5720   -3.3540 hc        1 VD4      0.040700
     53 H112        4.5410    6.5310   -3.3280 hc        1 VD4      0.040700
     54 H91         5.8750    7.4500   -5.0640 hc        1 VD4      0.047200
     55 H92         6.3540    5.8280   -5.7110 hc        1 VD4      0.047200
     56 H161        0.8170    3.6150   -6.8820 hc        1 VD4      0.049200
     57 H162        2.2960    2.6760   -7.3460 hc        1 VD4      0.049200
     58 H151        1.8520    5.6890   -7.3140 hc        1 VD4      0.045700
     59 H152        2.9580    4.7060   -8.3560 hc        1 VD4      0.045700
     60 H14         4.5360    4.3540   -6.5900 hc        1 VD4      0.056700
     61 H7          3.2120    7.3680   -7.7310 ha        1 VD4      0.125000
     62 H6          5.7790    8.7410   -6.7070 ha        1 VD4      0.122000
     63 H101        5.1760   11.4600   -8.4640 hc        1 VD4      0.063200
     64 H102        5.9700   11.0180   -6.9010 hc        1 VD4      0.063200
     65 H1          4.1050   12.0660   -5.6050 h1        1 VD4      0.044700
     66 HO1         4.6770   14.1670   -6.3140 ho        1 VD4      0.399500
     67 H41         2.7090   10.1190   -8.9180 hc        1 VD4      0.063200
     68 H42         2.1400    9.1670   -7.4750 hc        1 VD4      0.063200
     69 H3          1.0890   11.4760   -7.8550 h1        1 VD4      0.044700
     70 HO2         1.2880   11.8190   -5.5340 ho        1 VD4      0.399500
     71 H281        1.5040   13.7780   -8.3320 ha        1 VD4      0.119500
     72 H282        3.1550   14.5410   -7.9650 ha        1 VD4      0.119500
@<TRIPOS>BOND
     1    1    2 1   
     2    1   31 1   
     3    2    3 1   
     4    2    4 1   
     5    2    5 1   
     6    3   32 1   
     7    3   33 1   
     8    3   34 1   
     9    4   35 1   
    10    4   36 1   
    11    4   37 1   
    12    5    6 1   
    13    5   38 1   
    14    5   39 1   
    15    6    7 1   
    16    6   40 1   
    17    6   41 1   
    18    7    8 1   
    19    7   42 1   
    20    7   43 1   
    21    8    9 1   
    22    8   10 2   
    23    9   44 1   
    24    9   45 1   
    25    9   46 1   
    26   10   11 1   
    27   10   16 1   
    28   11   12 1   
    29   11   13 1   
    30   11   18 1   
    31   12   47 1   
    32   12   48 1   
    33   12   49 1   
    34   13   14 1   
    35   13   50 1   
    36   13   51 1   
    37   14   15 1   
    38   14   52 1   
    39   14   53 1   
    40   15   19 1   
    41   15   54 1   
    42   15   55 1   
    43   16   17 1   
    44   16   56 1   
    45   16   57 1   
    46   17   18 1   
    47   17   58 1   
    48   17   59 1   
    49   18   19 1   
    50   18   60 1   
    51   19   20 2   
    52   20   21 1   
    53   20   61 1   
    54   21   22 2   
    55   21   62 1   
    56   22   23 1   
    57   22   26 1   
    58   23   24 1   
    59   23   63 1   
    60   23   64 1   
    61   24   25 1   
    62   24   29 1   
    63   24   65 1   
    64   25   66 1   
    65   26   27 1   
    66   26   67 1   
    67   26   68 1   
    68   27   28 1   
    69   27   29 1   
    70   27   69 1   
    71   28   70 1   
    72   29   30 2   
    73   30   71 1   
    74   30   72 1   
@<TRIPOS>SUBSTRUCTURE
     1 VD4         1 TEMP              0 ****  ****    0 ROOT
