@<TRIPOS>MOLECULE
VD4
   72    74     1     0     0
SMALL
bcc


@<TRIPOS>ATOM
      1 O3         -0.3670    1.0840   -0.0570 oh        1 VD4     -0.597800
      2 C25         0.9470    0.5330    0.0500 c3        1 VD4      0.147800
      3 C26         1.4230    0.6200    1.4980 c3        1 VD4     -0.123600
      4 C27         0.9400   -0.9220   -0.4040 c3        1 VD4     -0.123600
      5 C24         1.8460    1.4010   -0.8360 c3        1 VD4     -0.065400
      6 C23         1.4440    1.3690   -2.2950 c3        1 VD4     -0.077400
      7 C22         2.2690    2.3570   -3.0950 c3        1 VD4     -0.042200
      8 C20         1.9270    2.4310   -4.5440 c2        1 VD4     -0.108400
      9 C21         1.1250    1.3030   -5.0840 c3        1 VD4     -0.057900
     10 C17         2.3230    3.4500   -5.3270 c2        1 VD4     -0.119400
     11 C13         3.1370    4.6720   -4.9580 c3        1 VD4     -0.001800
     12 C18         2.1790    5.7210   -4.4040 c3        1 VD4     -0.082100
     13 C12         4.3260    4.5000   -4.0230 c3        1 VD4     -0.065400
     14 C11         5.1290    5.7860   -3.9240 c3        1 VD4     -0.073400
     15 C9          5.5060    6.4140   -5.2550 c3        1 VD4     -0.044200
     16 C16         1.9400    3.5680   -6.7800 c3        1 VD4     -0.044200
     17 C15         2.5920    4.8450   -7.3170 c3        1 VD4     -0.073400
     18 C14         3.7260    5.1000   -6.3360 c3        1 VD4     -0.035500
     19 C8          4.3890    6.4250   -6.2480 c2        1 VD4     -0.078400
     20 C7          4.0530    7.4760   -7.0160 ce        1 VD4     -0.144000
     21 C6          4.7180    8.7600   -7.0080 ce        1 VD4     -0.124000
     22 C5          4.1550    9.9310   -7.3610 c2        1 VD4     -0.104400
     23 C10         4.9730   11.1760   -7.3890 c3        1 VD4     -0.035200
     24 C1          4.2470   12.3240   -6.6840 c3        1 VD4      0.183300
     25 O1          5.0930   13.4600   -6.7920 oh        1 VD4     -0.593800
     26 C4          2.7370   10.0660   -7.7900 c3        1 VD4     -0.035200
     27 C3          2.0240   11.3040   -7.2410 c3        1 VD4      0.183300
     28 O2          1.6390   11.0010   -5.9030 oh        1 VD4     -0.593800
     29 C2          2.8950   12.5280   -7.3020 c2        1 VD4     -0.193400
     30 C28         2.4930   13.6630   -7.8740 c2        1 VD4     -0.198000
     31 HO3        -0.9390    0.5460    0.5020 ho        1 VD4      0.397000
     32 H261        0.7580    0.0150    2.1600 hc        1 VD4      0.042367
     33 H262        1.3990    1.6810    1.8430 hc        1 VD4      0.042367
     34 H263        2.4640    0.2320    1.5820 hc        1 VD4      0.042367
     35 H271        0.4120   -1.5590    0.3450 hc        1 VD4      0.042367
     36 H272        1.9850   -1.2920   -0.5190 hc        1 VD4      0.042367
     37 H273        0.4100   -1.0140   -1.3830 hc        1 VD4      0.042367
     38 H241        2.9010    1.0430   -0.7200 hc        1 VD4      0.047200
     39 H242        1.7930    2.4560   -0.4580 hc        1 VD4      0.047200
     40 H231        1.5860    0.3330   -2.6990 hc        1 VD4      0.050700
     41 H232        0.3530    1.6190   -2.3790 hc        1 VD4      0.050700
     42 H221        2.1360    3.3770   -2.6380 hc        1 VD4      0.047200
     43 H222        3.3570    2.0850   -2.9980 hc        1 VD4      0.047200
     44 H211        0.9530    1.3890   -6.1840 hc        1 VD4      0.040700
     45 H212        1.6520    0.3350   -4.8920 hc        1 VD4      0.040700
     46 H213        0.1260    1.2660   -4.5810 hc        1 VD4      0.040700
     47 H181        1.8810    5.4550   -3.3620 hc        1 VD4      0.040033
     48 H182        2.6600    6.7280   -4.3980 hc        1 VD4      0.040033
     49 H183        1.2580    5.7760   -5.0350 hc        1 VD4      0.040033
     50 H121        3.9820    4.2250   -2.9920 hc        1 VD4      0.043200
     51 H122        4.9760    3.6670   -4.3960 hc        1 VD4      0.043200
     52 H111        6.0720    5.5770   -3.3520 hc        1 VD4      0.040700
     53 H112        4.5400    6.5330   -3.3270 hc        1 VD4      0.040700
     54 H91         6.3590    5.8350   -5.7070 hc        1 VD4      0.047200
     55 H92         5.8760    7.4550   -5.0610 hc        1 VD4      0.047200
     56 H161        2.3090    2.6770   -7.3510 hc        1 VD4      0.049200
     57 H162        0.8280    3.6130   -6.8900 hc        1 VD4      0.049200
     58 H151        2.9690    4.7090   -8.3590 hc        1 VD4      0.045700
     59 H152        1.8590    5.6900   -7.3180 hc        1 VD4      0.045700
     60 H14         4.5440    4.3590   -6.5910 hc        1 VD4      0.056700
     61 H7          3.2170    7.3710   -7.7310 ha        1 VD4      0.125000
     62 H6          5.7810    8.7480   -6.7030 ha        1 VD4      0.122000
     63 H101        5.1720   11.4690   -8.4550 hc        1 VD4      0.063200
     64 H102        5.9670   11.0260   -6.8920 hc        1 VD4      0.063200
     65 H1          4.1000   12.0670   -5.5940 h1        1 VD4      0.044700
     66 HO1         4.6680   14.1700   -6.2980 ho        1 VD4      0.399500
     67 H41         2.1410    9.1680   -7.4710 hc        1 VD4      0.063200
     68 H42         2.7080   10.1250   -8.9120 hc        1 VD4      0.063200
     69 H3          1.0850   11.4760   -7.8460 h1        1 VD4      0.044700
     70 HO2         1.2820   11.8130   -5.5240 ho        1 VD4      0.399500
     71 H281        1.4960   13.7800   -8.3180 ha        1 VD4      0.119500
     72 H282        3.1450   14.5450   -7.9480 ha        1 VD4      0.119500
@<TRIPOS>BOND
     1    1    2 1   
     2    1   31 1   
     3    2    3 1   
     4    2    4 1   
     5    2    5 1   
     6    3   32 1   
     7    3   33 1   
     8    3   34 1   
     9    4   35 1   
    10    4   36 1   
    11    4   37 1   
    12    5    6 1   
    13    5   38 1   
    14    5   39 1   
    15    6    7 1   
    16    6   40 1   
    17    6   41 1   
    18    7    8 1   
    19    7   42 1   
    20    7   43 1   
    21    8    9 1   
    22    8   10 2   
    23    9   44 1   
    24    9   45 1   
    25    9   46 1   
    26   10   11 1   
    27   10   16 1   
    28   11   12 1   
    29   11   13 1   
    30   11   18 1   
    31   12   47 1   
    32   12   48 1   
    33   12   49 1   
    34   13   14 1   
    35   13   50 1   
    36   13   51 1   
    37   14   15 1   
    38   14   52 1   
    39   14   53 1   
    40   15   19 1   
    41   15   54 1   
    42   15   55 1   
    43   16   17 1   
    44   16   56 1   
    45   16   57 1   
    46   17   18 1   
    47   17   58 1   
    48   17   59 1   
    49   18   19 1   
    50   18   60 1   
    51   19   20 2   
    52   20   21 1   
    53   20   61 1   
    54   21   22 2   
    55   21   62 1   
    56   22   23 1   
    57   22   26 1   
    58   23   24 1   
    59   23   63 1   
    60   23   64 1   
    61   24   25 1   
    62   24   29 1   
    63   24   65 1   
    64   25   66 1   
    65   26   27 1   
    66   26   67 1   
    67   26   68 1   
    68   27   28 1   
    69   27   29 1   
    70   27   69 1   
    71   28   70 1   
    72   29   30 2   
    73   30   71 1   
    74   30   72 1   
@<TRIPOS>SUBSTRUCTURE
     1 VD4         1 TEMP              0 ****  ****    0 ROOT
