@<TRIPOS>MOLECULE
VD5
   72    74     1     0     0
SMALL
bcc


@<TRIPOS>ATOM
      1 O2          0.7460    0.6070   -0.2800 oh        1 VD5     -0.599300
      2 C3          2.0350    0.0600   -0.0130 c3        1 VD5      0.184300
      3 C2          2.3280    0.0130    1.4600 c2        1 VD5     -0.171400
      4 C28         3.2440    0.7930    2.0350 c2        1 VD5     -0.174000
      5 C1          1.4980   -0.9890    2.2030 c3        1 VD5      0.184300
      6 O1          1.8830   -0.9860    3.5740 oh        1 VD5     -0.599300
      7 C10         1.6800   -2.3830    1.5960 c3        1 VD5     -0.053700
      8 C4          2.0710   -1.3290   -0.6540 c3        1 VD5     -0.053700
      9 C5          1.3740   -2.3770    0.1380 c2        1 VD5     -0.100400
     10 C6          0.5580   -3.3090   -0.3880 ce        1 VD5     -0.124000
     11 C7          0.1730   -3.4170   -1.7770 ce        1 VD5     -0.150000
     12 C8         -0.2690   -4.5520   -2.3480 c2        1 VD5     -0.082400
     13 C9         -0.3880   -5.8530   -1.6220 c3        1 VD5     -0.044200
     14 C11        -0.6150   -7.0330   -2.5500 c3        1 VD5     -0.074400
     15 C12        -1.7730   -6.8690   -3.5230 c3        1 VD5     -0.065400
     16 C14        -0.6570   -4.6540   -3.7750 c3        1 VD5     -0.031500
     17 C13        -2.0040   -5.4170   -3.9280 c3        1 VD5     -0.002800
     18 C18        -3.0970   -4.8040   -3.0580 c3        1 VD5     -0.080100
     19 C15        -0.8330   -3.4010   -4.6220 c3        1 VD5     -0.074400
     20 C16        -1.6800   -3.8790   -5.8040 c3        1 VD5     -0.044200
     21 C17        -2.3660   -5.1470   -5.3720 c2        1 VD5     -0.114400
     22 C20        -3.1860   -5.8530   -6.1660 c2        1 VD5     -0.113400
     23 C21        -3.8980   -7.0820   -5.7390 c3        1 VD5     -0.057900
     24 C22        -3.4470   -5.4520   -7.5820 c3        1 VD5     -0.042200
     25 C23        -4.7030   -4.6080   -7.6990 c3        1 VD5     -0.074400
     26 C24        -4.9530   -4.2100   -9.1370 c3        1 VD5     -0.065400
     27 C25        -6.3090   -3.5250   -9.3380 c3        1 VD5      0.147800
     28 C27        -6.4620   -3.1170  -10.8010 c3        1 VD5     -0.123600
     29 C26        -6.4640   -2.3040   -8.4410 c3        1 VD5     -0.123600
     30 O3         -7.2980   -4.5030   -9.0080 oh        1 VD5     -0.597800
     31 HO2         0.6480    1.3840    0.2820 ho        1 VD5      0.403000
     32 H3          2.8010    0.7130   -0.5280 h1        1 VD5      0.045200
     33 H281        3.8350    1.5240    1.4670 ha        1 VD5      0.124500
     34 H282        3.4560    0.7430    3.1130 ha        1 VD5      0.124500
     35 H1          0.4130   -0.6820    2.1240 h1        1 VD5      0.045200
     36 HO1         1.3540   -1.6660    4.0070 ho        1 VD5      0.403000
     37 H101        2.7420   -2.7120    1.7520 hc        1 VD5      0.058200
     38 H102        1.0200   -3.1060    2.1440 hc        1 VD5      0.058200
     39 H41         1.6310   -1.2420   -1.6820 hc        1 VD5      0.058200
     40 H42         3.1500   -1.6280   -0.7650 hc        1 VD5      0.058200
     41 H6          0.1190   -4.0750    0.2800 ha        1 VD5      0.118000
     42 H7          0.2340   -2.4960   -2.3830 ha        1 VD5      0.132000
     43 H91        -1.2340   -5.7840   -0.8850 hc        1 VD5      0.049700
     44 H92         0.5480   -6.0390   -1.0280 hc        1 VD5      0.049700
     45 H111       -0.7940   -7.9490   -1.9270 hc        1 VD5      0.039200
     46 H112        0.3280   -7.2150   -3.1330 hc        1 VD5      0.039200
     47 H121       -1.5680   -7.4840   -4.4380 hc        1 VD5      0.044200
     48 H122       -2.7060   -7.2780   -3.0520 hc        1 VD5      0.044200
     49 H14         0.1420   -5.2770   -4.2810 hc        1 VD5      0.061700
     50 H181       -3.2100   -3.7170   -3.2870 hc        1 VD5      0.037367
     51 H182       -4.0720   -5.3120   -3.2570 hc        1 VD5      0.037367
     52 H183       -2.8490   -4.9160   -1.9760 hc        1 VD5      0.037367
     53 H151        0.1490   -2.9920   -4.9600 hc        1 VD5      0.047200
     54 H152       -1.3640   -2.5990   -4.0520 hc        1 VD5      0.047200
     55 H161       -2.4350   -3.1070   -6.0970 hc        1 VD5      0.049200
     56 H162       -1.0280   -4.0760   -6.6940 hc        1 VD5      0.049200
     57 H211       -3.2720   -7.9840   -5.9580 hc        1 VD5      0.042033
     58 H212       -4.8650   -7.1860   -6.2920 hc        1 VD5      0.042033
     59 H213       -4.1230   -7.0650   -4.6440 hc        1 VD5      0.042033
     60 H221       -2.5750   -4.8800   -7.9970 hc        1 VD5      0.043200
     61 H222       -3.5610   -6.3770   -8.2100 hc        1 VD5      0.043200
     62 H231       -5.5870   -5.1830   -7.3160 hc        1 VD5      0.051200
     63 H232       -4.5950   -3.6910   -7.0620 hc        1 VD5      0.051200
     64 H241       -4.9230   -5.1230   -9.7880 hc        1 VD5      0.047200
     65 H242       -4.1520   -3.5090   -9.4870 hc        1 VD5      0.047200
     66 H271       -6.3730   -4.0150  -11.4580 hc        1 VD5      0.042367
     67 H272       -7.4620   -2.6510  -10.9700 hc        1 VD5      0.042367
     68 H273       -5.6710   -2.3820  -11.0780 hc        1 VD5      0.042367
     69 H261       -6.5440   -2.6210   -7.3740 hc        1 VD5      0.042367
     70 H262       -7.3870   -1.7380   -8.7130 hc        1 VD5      0.042367
     71 H263       -5.5820   -1.6310   -8.5560 hc        1 VD5      0.042367
     72 HO3        -8.1550   -4.0790   -9.1240 ho        1 VD5      0.397000
@<TRIPOS>BOND
     1    1    2 1   
     2    1   31 1   
     3    2    3 1   
     4    2    8 1   
     5    2   32 1   
     6    3    4 2   
     7    3    5 1   
     8    4   33 1   
     9    4   34 1   
    10    5    6 1   
    11    5    7 1   
    12    5   35 1   
    13    6   36 1   
    14    7    9 1   
    15    7   37 1   
    16    7   38 1   
    17    8    9 1   
    18    8   39 1   
    19    8   40 1   
    20    9   10 2   
    21   10   11 1   
    22   10   41 1   
    23   11   12 2   
    24   11   42 1   
    25   12   13 1   
    26   12   16 1   
    27   13   14 1   
    28   13   43 1   
    29   13   44 1   
    30   14   15 1   
    31   14   45 1   
    32   14   46 1   
    33   15   17 1   
    34   15   47 1   
    35   15   48 1   
    36   16   17 1   
    37   16   19 1   
    38   16   49 1   
    39   17   18 1   
    40   17   21 1   
    41   18   50 1   
    42   18   51 1   
    43   18   52 1   
    44   19   20 1   
    45   19   53 1   
    46   19   54 1   
    47   20   21 1   
    48   20   55 1   
    49   20   56 1   
    50   21   22 2   
    51   22   23 1   
    52   22   24 1   
    53   23   57 1   
    54   23   58 1   
    55   23   59 1   
    56   24   25 1   
    57   24   60 1   
    58   24   61 1   
    59   25   26 1   
    60   25   62 1   
    61   25   63 1   
    62   26   27 1   
    63   26   64 1   
    64   26   65 1   
    65   27   28 1   
    66   27   29 1   
    67   27   30 1   
    68   28   66 1   
    69   28   67 1   
    70   28   68 1   
    71   29   69 1   
    72   29   70 1   
    73   29   71 1   
    74   30   72 1   
@<TRIPOS>SUBSTRUCTURE
     1 VD5         1 TEMP              0 ****  ****    0 ROOT
