@<TRIPOS>MOLECULE
VD5
   72    74     1     0     0
SMALL
bcc


@<TRIPOS>ATOM
      1 O2          0.7470    0.6090   -0.2820 oh        1 VD5     -0.599300
      2 C3          2.0370    0.0650   -0.0170 c3        1 VD5      0.184300
      3 C2          2.3330    0.0190    1.4560 c2        1 VD5     -0.171400
      4 C28         3.2480    0.8010    2.0290 c2        1 VD5     -0.174000
      5 C1          1.5050   -0.9850    2.2000 c3        1 VD5      0.184300
      6 O1          1.8930   -0.9810    3.5700 oh        1 VD5     -0.599300
      7 C10         1.6890   -2.3780    1.5930 c3        1 VD5     -0.053700
      8 C4          2.0750   -1.3240   -0.6580 c3        1 VD5     -0.053700
      9 C5          1.3800   -2.3730    0.1350 c2        1 VD5     -0.100400
     10 C6          0.5650   -3.3070   -0.3890 ce        1 VD5     -0.124000
     11 C7          0.1780   -3.4160   -1.7780 ce        1 VD5     -0.150000
     12 C8         -0.2650   -4.5510   -2.3470 c2        1 VD5     -0.082400
     13 C9         -0.3820   -5.8510   -1.6200 c3        1 VD5     -0.044200
     14 C11        -0.6110   -7.0320   -2.5480 c3        1 VD5     -0.074400
     15 C12        -1.7700   -6.8680   -3.5190 c3        1 VD5     -0.065400
     16 C14        -0.6550   -4.6540   -3.7740 c3        1 VD5     -0.031500
     17 C13        -2.0020   -5.4170   -3.9240 c3        1 VD5     -0.002800
     18 C18        -3.0940   -4.8030   -3.0530 c3        1 VD5     -0.080100
     19 C15        -0.8330   -3.4010   -4.6210 c3        1 VD5     -0.074400
     20 C16        -1.6820   -3.8800   -5.8020 c3        1 VD5     -0.044200
     21 C17        -2.3670   -5.1470   -5.3670 c2        1 VD5     -0.114400
     22 C20        -3.1880   -5.8540   -6.1600 c2        1 VD5     -0.113400
     23 C21        -3.8990   -7.0830   -5.7310 c3        1 VD5     -0.057900
     24 C22        -3.4520   -5.4540   -7.5750 c3        1 VD5     -0.042200
     25 C23        -4.7070   -4.6100   -7.6910 c3        1 VD5     -0.074400
     26 C24        -4.9590   -4.2120   -9.1290 c3        1 VD5     -0.065400
     27 C25        -6.3150   -3.5270   -9.3280 c3        1 VD5      0.147800
     28 C27        -6.4710   -3.1190  -10.7910 c3        1 VD5     -0.123600
     29 C26        -6.4680   -2.3040   -8.4310 c3        1 VD5     -0.123600
     30 O3         -7.3040   -4.5040   -8.9960 oh        1 VD5     -0.597800
     31 HO2         0.6480    1.3870    0.2800 ho        1 VD5      0.403000
     32 H3          2.8010    0.7200   -0.5340 h1        1 VD5      0.045200
     33 H281        3.8370    1.5320    1.4590 ha        1 VD5      0.124500
     34 H282        3.4620    0.7510    3.1060 ha        1 VD5      0.124500
     35 H1          0.4200   -0.6790    2.1230 h1        1 VD5      0.045200
     36 HO1         1.3660   -1.6620    4.0040 ho        1 VD5      0.403000
     37 H101        1.0320   -3.1030    2.1420 hc        1 VD5      0.058200
     38 H102        2.7520   -2.7050    1.7470 hc        1 VD5      0.058200
     39 H41         3.1540   -1.6210   -0.7710 hc        1 VD5      0.058200
     40 H42         1.6330   -1.2370   -1.6860 hc        1 VD5      0.058200
     41 H6          0.1290   -4.0730    0.2790 ha        1 VD5      0.118000
     42 H7          0.2380   -2.4950   -2.3840 ha        1 VD5      0.132000
     43 H91        -1.2280   -5.7820   -0.8820 hc        1 VD5      0.049700
     44 H92         0.5550   -6.0370   -1.0280 hc        1 VD5      0.049700
     45 H111       -0.7890   -7.9470   -1.9240 hc        1 VD5      0.039200
     46 H112        0.3310   -7.2140   -3.1320 hc        1 VD5      0.039200
     47 H121       -2.7030   -7.2770   -3.0460 hc        1 VD5      0.044200
     48 H122       -1.5670   -7.4840   -4.4340 hc        1 VD5      0.044200
     49 H14         0.1430   -5.2770   -4.2810 hc        1 VD5      0.061700
     50 H181       -3.2080   -3.7160   -3.2820 hc        1 VD5      0.037367
     51 H182       -4.0690   -5.3120   -3.2490 hc        1 VD5      0.037367
     52 H183       -2.8440   -4.9150   -1.9710 hc        1 VD5      0.037367
     53 H151       -1.3620   -2.5990   -4.0500 hc        1 VD5      0.047200
     54 H152        0.1490   -2.9920   -4.9610 hc        1 VD5      0.047200
     55 H161       -1.0300   -4.0770   -6.6920 hc        1 VD5      0.049200
     56 H162       -2.4370   -3.1080   -6.0940 hc        1 VD5      0.049200
     57 H211       -4.8670   -7.1870   -6.2820 hc        1 VD5      0.042033
     58 H212       -3.2740   -7.9850   -5.9500 hc        1 VD5      0.042033
     59 H213       -4.1230   -7.0660   -4.6360 hc        1 VD5      0.042033
     60 H221       -3.5670   -6.3790   -8.2030 hc        1 VD5      0.043200
     61 H222       -2.5800   -4.8820   -7.9930 hc        1 VD5      0.043200
     62 H231       -4.5980   -3.6920   -7.0550 hc        1 VD5      0.051700
     63 H232       -5.5910   -5.1840   -7.3060 hc        1 VD5      0.051700
     64 H241       -4.1580   -3.5110   -9.4800 hc        1 VD5      0.047200
     65 H242       -4.9310   -5.1260   -9.7790 hc        1 VD5      0.047200
     66 H271       -7.4710   -2.6520  -10.9580 hc        1 VD5      0.042367
     67 H272       -6.3830   -4.0170  -11.4480 hc        1 VD5      0.042367
     68 H273       -5.6790   -2.3840  -11.0690 hc        1 VD5      0.042367
     69 H261       -5.5870   -1.6320   -8.5480 hc        1 VD5      0.042367
     70 H262       -6.5470   -2.6220   -7.3640 hc        1 VD5      0.042367
     71 H263       -7.3910   -1.7380   -8.7020 hc        1 VD5      0.042367
     72 HO3        -8.1620   -4.0790   -9.1100 ho        1 VD5      0.397000
@<TRIPOS>BOND
     1    1    2 1   
     2    1   31 1   
     3    2    3 1   
     4    2    8 1   
     5    2   32 1   
     6    3    4 2   
     7    3    5 1   
     8    4   33 1   
     9    4   34 1   
    10    5    6 1   
    11    5    7 1   
    12    5   35 1   
    13    6   36 1   
    14    7    9 1   
    15    7   37 1   
    16    7   38 1   
    17    8    9 1   
    18    8   39 1   
    19    8   40 1   
    20    9   10 2   
    21   10   11 1   
    22   10   41 1   
    23   11   12 2   
    24   11   42 1   
    25   12   13 1   
    26   12   16 1   
    27   13   14 1   
    28   13   43 1   
    29   13   44 1   
    30   14   15 1   
    31   14   45 1   
    32   14   46 1   
    33   15   17 1   
    34   15   47 1   
    35   15   48 1   
    36   16   17 1   
    37   16   19 1   
    38   16   49 1   
    39   17   18 1   
    40   17   21 1   
    41   18   50 1   
    42   18   51 1   
    43   18   52 1   
    44   19   20 1   
    45   19   53 1   
    46   19   54 1   
    47   20   21 1   
    48   20   55 1   
    49   20   56 1   
    50   21   22 2   
    51   22   23 1   
    52   22   24 1   
    53   23   57 1   
    54   23   58 1   
    55   23   59 1   
    56   24   25 1   
    57   24   60 1   
    58   24   61 1   
    59   25   26 1   
    60   25   62 1   
    61   25   63 1   
    62   26   27 1   
    63   26   64 1   
    64   26   65 1   
    65   27   28 1   
    66   27   29 1   
    67   27   30 1   
    68   28   66 1   
    69   28   67 1   
    70   28   68 1   
    71   29   69 1   
    72   29   70 1   
    73   29   71 1   
    74   30   72 1   
@<TRIPOS>SUBSTRUCTURE
     1 VD5         1 TEMP              0 ****  ****    0 ROOT
