@<TRIPOS>MOLECULE
VD5
   72    74     1     0     0
SMALL
bcc


@<TRIPOS>ATOM
      1 O2          4.1380    1.2280    3.0990 oh        1 VD5     -0.593300
      2 C3          3.3200    2.3620    2.8570 c3        1 VD5      0.183800
      3 C2          4.1020    3.6440    2.9390 c2        1 VD5     -0.168400
      4 C28         4.0000    4.4720    3.9800 c2        1 VD5     -0.162000
      5 C1          5.0020    3.8980    1.7670 c3        1 VD5      0.183800
      6 O1          5.5800    5.1920    1.9030 oh        1 VD5     -0.593300
      7 C10         4.2310    3.7990    0.4480 c3        1 VD5     -0.076200
      8 C4          2.5930    2.2380    1.5150 c3        1 VD5     -0.076200
      9 C5          3.4800    2.5150    0.3550 c2        1 VD5     -0.120400
     10 C6          3.5940    1.7330   -0.7340 ce        1 VD5     -0.120000
     11 C7          2.9250    0.4710   -0.9500 ce        1 VD5     -0.158000
     12 C8          2.7880   -0.1120   -2.1540 c2        1 VD5     -0.073400
     13 C9          3.2880    0.4860   -3.4290 c3        1 VD5     -0.046200
     14 C11         2.7480   -0.2120   -4.6650 c3        1 VD5     -0.074400
     15 C12         2.9400   -1.7210   -4.6840 c3        1 VD5     -0.065400
     16 C14         2.0900   -1.4050   -2.3620 c3        1 VD5     -0.033500
     17 C13         2.9210   -2.3370   -3.2900 c3        1 VD5     -0.002800
     18 C18         4.3490   -2.5080   -2.7790 c3        1 VD5     -0.080100
     19 C15         1.7170   -2.2840   -1.1760 c3        1 VD5     -0.073400
     20 C16         1.4980   -3.6630   -1.8040 c3        1 VD5     -0.044200
     21 C17         2.2160   -3.6650   -3.1260 c2        1 VD5     -0.112400
     22 C20         2.2290   -4.7180   -3.9600 c2        1 VD5     -0.114400
     23 C21         2.9650   -4.7460   -5.2470 c3        1 VD5     -0.056900
     24 C22         1.4790   -5.9730   -3.6530 c3        1 VD5     -0.042200
     25 C23         2.3630   -6.9990   -2.9700 c3        1 VD5     -0.076400
     26 C24         1.5900   -8.2610   -2.6560 c3        1 VD5     -0.105400
     27 C25         2.4950   -9.4080   -2.1910 c3        1 VD5      0.148800
     28 C27         1.6440  -10.6510   -1.9480 c3        1 VD5     -0.103600
     29 C26         3.2630   -9.0400   -0.9280 c3        1 VD5     -0.103600
     30 O3          3.4890   -9.6920   -3.1770 oh        1 VD5     -0.596800
     31 HO2         4.7910    1.1870    2.3900 ho        1 VD5      0.401500
     32 H3          2.5610    2.3170    3.6940 h1        1 VD5      0.058200
     33 H281        3.3480    4.2580    4.8370 ha        1 VD5      0.124000
     34 H282        4.5660    5.4120    4.0340 ha        1 VD5      0.124000
     35 H1          5.8300    3.1280    1.7770 h1        1 VD5      0.058200
     36 HO1         6.1390    5.3240    1.1280 ho        1 VD5      0.401500
     37 H101        4.9520    3.9090   -0.4040 hc        1 VD5      0.059700
     38 H102        3.5060    4.6560    0.3870 hc        1 VD5      0.059700
     39 H41         1.7470    2.9780    1.5010 hc        1 VD5      0.059700
     40 H42         2.1470    1.2110    1.4550 hc        1 VD5      0.059700
     41 H6          4.2590    2.0590   -1.5570 ha        1 VD5      0.119000
     42 H7          2.5190   -0.0380   -0.0570 ha        1 VD5      0.130000
     43 H91         2.9970    1.5700   -3.4750 hc        1 VD5      0.050700
     44 H92         4.4120    0.4460   -3.4340 hc        1 VD5      0.050700
     45 H111        1.6520    0.0180   -4.7540 hc        1 VD5      0.040200
     46 H112        3.2470    0.2270   -5.5700 hc        1 VD5      0.040200
     47 H121        2.1290   -2.1810   -5.3080 hc        1 VD5      0.044200
     48 H122        3.9170   -1.9580   -5.1840 hc        1 VD5      0.044200
     49 H14         1.1250   -1.1640   -2.9030 hc        1 VD5      0.062700
     50 H181        4.8990   -1.5380   -2.8160 hc        1 VD5      0.038367
     51 H182        4.3410   -2.8750   -1.7240 hc        1 VD5      0.038367
     52 H183        4.8920   -3.2530   -3.4100 hc        1 VD5      0.038367
     53 H151        0.7950   -1.9150   -0.6650 hc        1 VD5      0.047700
     54 H152        2.5420   -2.3170   -0.4220 hc        1 VD5      0.047700
     55 H161        0.4040   -3.8500   -1.9560 hc        1 VD5      0.050700
     56 H162        1.8950   -4.4740   -1.1420 hc        1 VD5      0.050700
     57 H211        2.3050   -4.3830   -6.0750 hc        1 VD5      0.041367
     58 H212        3.8760   -4.0990   -5.2130 hc        1 VD5      0.041367
     59 H213        3.2890   -5.7890   -5.4890 hc        1 VD5      0.041367
     60 H221        0.5940   -5.7530   -2.9970 hc        1 VD5      0.042200
     61 H222        1.0770   -6.4040   -4.6100 hc        1 VD5      0.042200
     62 H231        2.7780   -6.5640   -2.0230 hc        1 VD5      0.052200
     63 H232        3.2360   -7.2530   -3.6300 hc        1 VD5      0.052200
     64 H241        0.8330   -8.0560   -1.8550 hc        1 VD5      0.042200
     65 H242        1.0310   -8.5940   -3.5710 hc        1 VD5      0.042200
     66 H271        1.0590  -10.9080   -2.8630 hc        1 VD5      0.043700
     67 H272        0.9370  -10.4700   -1.1060 hc        1 VD5      0.043700
     68 H273        2.3030  -11.5150   -1.6930 hc        1 VD5      0.043700
     69 H261        4.0050   -8.2370   -1.1530 hc        1 VD5      0.043700
     70 H262        2.5510   -8.6800   -0.1490 hc        1 VD5      0.043700
     71 H263        3.8130   -9.9320   -0.5440 hc        1 VD5      0.043700
     72 HO3         3.0200   -9.9110   -3.9900 ho        1 VD5      0.396000
@<TRIPOS>BOND
     1    1    2 1   
     2    1   31 1   
     3    2    3 1   
     4    2    8 1   
     5    2   32 1   
     6    3    4 2   
     7    3    5 1   
     8    4   33 1   
     9    4   34 1   
    10    5    6 1   
    11    5    7 1   
    12    5   35 1   
    13    6   36 1   
    14    7    9 1   
    15    7   37 1   
    16    7   38 1   
    17    8    9 1   
    18    8   39 1   
    19    8   40 1   
    20    9   10 2   
    21   10   11 1   
    22   10   41 1   
    23   11   12 2   
    24   11   42 1   
    25   12   13 1   
    26   12   16 1   
    27   13   14 1   
    28   13   43 1   
    29   13   44 1   
    30   14   15 1   
    31   14   45 1   
    32   14   46 1   
    33   15   17 1   
    34   15   47 1   
    35   15   48 1   
    36   16   17 1   
    37   16   19 1   
    38   16   49 1   
    39   17   18 1   
    40   17   21 1   
    41   18   50 1   
    42   18   51 1   
    43   18   52 1   
    44   19   20 1   
    45   19   53 1   
    46   19   54 1   
    47   20   21 1   
    48   20   55 1   
    49   20   56 1   
    50   21   22 2   
    51   22   23 1   
    52   22   24 1   
    53   23   57 1   
    54   23   58 1   
    55   23   59 1   
    56   24   25 1   
    57   24   60 1   
    58   24   61 1   
    59   25   26 1   
    60   25   62 1   
    61   25   63 1   
    62   26   27 1   
    63   26   64 1   
    64   26   65 1   
    65   27   28 1   
    66   27   29 1   
    67   27   30 1   
    68   28   66 1   
    69   28   67 1   
    70   28   68 1   
    71   29   69 1   
    72   29   70 1   
    73   29   71 1   
    74   30   72 1   
@<TRIPOS>SUBSTRUCTURE
     1 VD5         1 TEMP              0 ****  ****    0 ROOT
