@<TRIPOS>MOLECULE
VD9
   28    28     1     0     0
SMALL
bcc


@<TRIPOS>ATOM
      1 O4          0.1640   -0.1420    0.2660 o         1 VD9     -0.578300
      2 S2          1.4990    0.1970    0.1910 sy        1 VD9      1.511200
      3 O1          2.3460    0.0170    1.2640 o         1 VD9     -0.578300
      4 N3          2.1190   -1.2900   -0.9220 nz        1 VD9     -0.780500
      5 C5          1.8600    1.3670   -0.7940 ca        1 VD9     -0.635500
      6 C10         3.1250    2.0180   -0.7430 ca        1 VD9      0.042500
      7 C9          3.4210    3.0880   -1.5480 ca        1 VD9     -0.183000
      8 C8          2.4660    3.6010   -2.4680 ca        1 VD9      0.067900
      9 C7          1.2060    2.9620   -2.5260 ca        1 VD9     -0.183000
     10 C6          0.9160    1.8880   -1.7170 ca        1 VD9      0.042500
     11 S11         2.9440    4.8940   -3.3570 ss        1 VD9      0.066000
     12 C12         1.5890    5.3480   -4.3900 c3        1 VD9     -0.083300
     13 C13         2.0660    6.5480   -5.1780 c3        1 VD9     -0.077400
     14 C14         0.9860    7.0370   -6.1110 c3        1 VD9     -0.094100
     15 H1          1.3490   -1.9230   -1.1210 hn        1 VD9      0.447467
     16 H2          2.8390   -1.8150   -0.4330 hn        1 VD9      0.447467
     17 H3          3.8770    1.6560   -0.0150 ha        1 VD9      0.164500
     18 H4          4.4100    3.5760   -1.4790 ha        1 VD9      0.170500
     19 H5          0.4370    3.3370   -3.2230 ha        1 VD9      0.170500
     20 H6         -0.0880    1.4230   -1.7680 ha        1 VD9      0.164500
     21 H7          0.6860    5.6150   -3.7860 h1        1 VD9      0.087700
     22 H8          1.3050    4.5170   -5.0820 h1        1 VD9      0.087700
     23 H9          2.9790    6.2730   -5.7720 hc        1 VD9      0.064200
     24 H10         2.3560    7.3740   -4.4740 hc        1 VD9      0.064200
     25 H11         1.3560    7.9230   -6.6840 hc        1 VD9      0.049367
     26 H12         0.0760    7.3410   -5.5390 hc        1 VD9      0.049367
     27 H13         0.6990    6.2410   -6.8380 hc        1 VD9      0.049367
     28 H33         2.5030   -0.9710   -1.8040 hn        1 VD9      0.447467
@<TRIPOS>BOND
     1    1    2 2   
     2    2    3 2   
     3    2    4 1   
     4    2    5 1   
     5    4   15 1   
     6    4   16 1   
     7    4   28 1   
     8    5    6 ar  
     9    5   10 ar  
    10    6    7 ar  
    11    6   17 1   
    12    7    8 ar  
    13    7   18 1   
    14    8    9 ar  
    15    8   11 1   
    16    9   10 ar  
    17    9   19 1   
    18   10   20 1   
    19   11   12 1   
    20   12   13 1   
    21   12   21 1   
    22   12   22 1   
    23   13   14 1   
    24   13   23 1   
    25   13   24 1   
    26   14   25 1   
    27   14   26 1   
    28   14   27 1   
@<TRIPOS>SUBSTRUCTURE
     1 VD9         1 TEMP              0 ****  ****    0 ROOT
