@<TRIPOS>MOLECULE
VD9
   28    28     1     0     0
SMALL
bcc


@<TRIPOS>ATOM
      1 O4          0.1340   -0.1220    0.2710 o         1 VD9     -0.578300
      2 S2          1.4720    0.2050    0.1960 sy        1 VD9      1.511200
      3 O1          2.3190    0.0180    1.2680 o         1 VD9     -0.578300
      4 N3          2.0780   -1.2900   -0.9170 n4        1 VD9     -0.780500
      5 C5          1.8440    1.3700   -0.7910 ca        1 VD9     -0.635500
      6 C10         3.1150    2.0090   -0.7410 ca        1 VD9      0.042500
      7 C9          3.4210    3.0760   -1.5480 ca        1 VD9     -0.183000
      8 C8          2.4700    3.5960   -2.4680 ca        1 VD9      0.067900
      9 C7          1.2030    2.9690   -2.5250 ca        1 VD9     -0.183000
     10 C6          0.9040    1.8990   -1.7140 ca        1 VD9      0.042500
     11 S11         2.9600    4.8840   -3.3590 ss        1 VD9      0.066000
     12 C12         1.6080    5.3500   -4.3910 c3        1 VD9     -0.083300
     13 C13         2.0960    6.5430   -5.1810 c3        1 VD9     -0.077400
     14 C14         1.0200    7.0430   -6.1120 c3        1 VD9     -0.094100
     15 H1          2.4640   -0.9750   -1.7990 hn        1 VD9      0.447467
     16 H2          1.3010   -1.9150   -1.1140 hn        1 VD9      0.447467
     17 H3          3.8640    1.6410   -0.0140 ha        1 VD9      0.164500
     18 H4          4.4140    3.5540   -1.4800 ha        1 VD9      0.170500
     19 H5          0.4380    3.3510   -3.2220 ha        1 VD9      0.170500
     20 H6         -0.1040    1.4430   -1.7640 ha        1 VD9      0.164500
     21 H7          1.3160    4.5210   -5.0820 h1        1 VD9      0.087700
     22 H8          0.7090    5.6260   -3.7870 h1        1 VD9      0.087700
     23 H9          2.3960    7.3670   -4.4780 hc        1 VD9      0.064200
     24 H10         3.0050    6.2590   -5.7770 hc        1 VD9      0.064200
     25 H11         1.3970    7.9250   -6.6870 hc        1 VD9      0.049367
     26 H12         0.7230    6.2490   -6.8390 hc        1 VD9      0.049367
     27 H13         0.1140    7.3570   -5.5400 hc        1 VD9      0.049367
     28 H33         2.7920   -1.8210   -0.4270 hn        1 VD9      0.447467
@<TRIPOS>BOND
     1    1    2 2   
     2    2    3 2   
     3    2    4 1   
     4    2    5 1   
     5    4   15 1   
     6    4   16 1   
     7    4   28 1   
     8    5    6 ar  
     9    5   10 ar  
    10    6    7 ar  
    11    6   17 1   
    12    7    8 ar  
    13    7   18 1   
    14    8    9 ar  
    15    8   11 1   
    16    9   10 ar  
    17    9   19 1   
    18   10   20 1   
    19   11   12 1   
    20   12   13 1   
    21   12   21 1   
    22   12   22 1   
    23   13   14 1   
    24   13   23 1   
    25   13   24 1   
    26   14   25 1   
    27   14   26 1   
    28   14   27 1   
@<TRIPOS>SUBSTRUCTURE
     1 VD9         1 TEMP              0 ****  ****    0 ROOT
