@<TRIPOS>MOLECULE
VDA
   80    82     1     0     0
SMALL
bcc


@<TRIPOS>ATOM
      1 O2          0.1210   -0.0150   -0.4200 oh        1 VDA     -0.592300
      2 C1          1.9200    2.5100    0.0640 c3        1 VDA      0.137600
      3 C2          2.2230    1.2090   -0.7030 c3        1 VDA      0.075100
      4 C3          1.5000   -0.0020   -0.1010 c3        1 VDA      0.137600
      5 C4          1.7340   -0.0970    1.4050 c3        1 VDA     -0.059700
      6 C5          1.5020    1.1920    2.1190 c2        1 VDA     -0.128400
      7 C6          0.7260    1.2420    3.2160 ce        1 VDA     -0.112000
      8 C7          0.4300    2.4300    3.9850 ce        1 VDA     -0.152000
      9 C8          0.0900    2.4440    5.2840 c2        1 VDA     -0.069400
     10 C9         -0.0420    1.2340    6.1540 c3        1 VDA     -0.046200
     11 C10         2.2370    2.3520    1.5480 c3        1 VDA     -0.059700
     12 C11         0.5600    1.3780    7.5450 c3        1 VDA     -0.071400
     13 C12         0.3430    2.7230    8.2220 c3        1 VDA     -0.062400
     14 C13         0.6720    3.8500    7.2610 c3        1 VDA     -0.009800
     15 C14        -0.2700    3.6750    6.0270 c3        1 VDA     -0.041500
     16 C15        -0.3050    5.0720    5.3970 c3        1 VDA     -0.045200
     17 C16        -0.1450    5.9600    6.6040 c2        1 VDA     -0.150200
     18 C17         0.3450    5.2800    7.6680 c2        1 VDA     -0.116400
     19 C18         2.1440    3.8050    6.8740 c3        1 VDA     -0.083100
     20 C20         0.5990    5.7890    9.0250 c3        1 VDA      0.082600
     21 C21        -0.6140    6.4440    9.6380 c3        1 VDA     -0.099100
     22 S22         1.9670    6.9470    8.8570 ss        1 VDA     -0.329200
     23 C23         2.4790    7.2320   10.5300 c3        1 VDA     -0.048300
     24 C25         2.2690    8.6750   10.9990 c3        1 VDA      0.161800
     25 O3          0.8790    8.9840   11.0360 oh        1 VDA     -0.599800
     26 C26         2.7830    8.8470   12.4340 c3        1 VDA     -0.089900
     27 C27         3.0120    9.6270   10.0490 c3        1 VDA     -0.089900
     28 O1          2.7340    3.5670   -0.4190 oh        1 VDA     -0.592300
     29 O4          1.8010    1.4820   -2.0390 os        1 VDA     -0.441600
     30 C30         1.9730    0.3840   -2.9360 c3        1 VDA      0.086400
     31 C31         1.7900    0.9540   -4.3390 c3        1 VDA      0.128400
     32 O5          2.8350    1.8410   -4.6820 oh        1 VDA     -0.598800
     33 C29         2.1310    7.9170   13.4230 c3        1 VDA     -0.091600
     34 C28         2.7300   11.0790   10.3290 c3        1 VDA     -0.091600
     35 HO2        -0.2590    0.8080   -0.0890 ho        1 VDA      0.411000
     36 H1          0.8350    2.7770   -0.0820 h1        1 VDA      0.059700
     37 H2          3.3320    1.0150   -0.6990 h1        1 VDA      0.060700
     38 H3          1.8890   -0.9440   -0.5900 h1        1 VDA      0.059700
     39 H4          2.7980   -0.4140    1.5790 hc        1 VDA      0.065700
     40 H4A         1.0660   -0.9020    1.8110 hc        1 VDA      0.065700
     41 H6          0.2490    0.3100    3.5740 ha        1 VDA      0.125000
     42 H7          0.4750    3.3880    3.4360 ha        1 VDA      0.129000
     43 H9          0.4320    0.3430    5.6640 hc        1 VDA      0.048700
     44 H9A        -1.1410    1.0130    6.2540 hc        1 VDA      0.048700
     45 H10         3.3430    2.1910    1.6730 hc        1 VDA      0.065700
     46 H10A        1.9850    3.3110    2.0700 hc        1 VDA      0.065700
     47 H11         0.1260    0.5750    8.1990 hc        1 VDA      0.041700
     48 H11A        1.6650    1.1850    7.4800 hc        1 VDA      0.041700
     49 H12        -0.7200    2.8150    8.5650 hc        1 VDA      0.043200
     50 H12A        0.9970    2.7830    9.1310 hc        1 VDA      0.043200
     51 H14        -1.3150    3.4950    6.4280 hc        1 VDA      0.059700
     52 H15        -1.2650    5.2640    4.8610 hc        1 VDA      0.056700
     53 H15A        0.5400    5.2310    4.6810 hc        1 VDA      0.056700
     54 H16        -0.4180    7.0160    6.5660 ha        1 VDA      0.145000
     55 H18         2.3860    2.8520    6.3460 hc        1 VDA      0.042367
     56 H18A        2.3920    4.6550    6.1930 hc        1 VDA      0.042367
     57 H18B        2.7780    3.8860    7.7900 hc        1 VDA      0.042367
     58 H20         0.9360    4.9490    9.6900 h1        1 VDA      0.072700
     59 H21        -0.3630    6.8630   10.6450 hc        1 VDA      0.048367
     60 H21A       -0.9860    7.2740    8.9890 hc        1 VDA      0.048367
     61 H21B       -1.4360    5.6960    9.7580 hc        1 VDA      0.048367
     62 H23         3.5700    6.9960   10.5810 h1        1 VDA      0.077700
     63 H23A        1.9320    6.5410   11.2160 h1        1 VDA      0.077700
     64 HO3         0.5570    8.9010   10.1260 ho        1 VDA      0.410000
     65 H26         2.5820    9.9080   12.7420 hc        1 VDA      0.051700
     66 H26A        3.8930    8.6910   12.4290 hc        1 VDA      0.051700
     67 H27         2.7010    9.3830    8.9960 hc        1 VDA      0.051700
     68 H27A        4.1110    9.4260   10.1320 hc        1 VDA      0.051700
     69 HO1         2.5660    3.6300   -1.3680 ho        1 VDA      0.411000
     70 H30         1.1920   -0.3920   -2.7190 h1        1 VDA      0.049200
     71 H30A        2.9980   -0.0550   -2.8150 h1        1 VDA      0.049200
     72 H31         1.8500    0.1260   -5.0940 h1        1 VDA      0.056200
     73 H31A        0.7990    1.4740   -4.4160 h1        1 VDA      0.056200
     74 HO5         2.8440    2.5350   -4.0110 ho        1 VDA      0.407000
     75 H29         2.3690    8.2400   14.4660 hc        1 VDA      0.037367
     76 H29A        1.0220    7.9250   13.2910 hc        1 VDA      0.037367
     77 H29B        2.4970    6.8690   13.2930 hc        1 VDA      0.037367
     78 H28         1.6310   11.2500   10.4330 hc        1 VDA      0.037367
     79 H28A        3.2260   11.4070   11.2740 hc        1 VDA      0.037367
     80 H28B        3.1150   11.7120    9.4940 hc        1 VDA      0.037367
@<TRIPOS>BOND
     1    1    4 1   
     2    1   35 1   
     3    2    3 1   
     4    2   11 1   
     5    2   28 1   
     6    2   36 1   
     7    3    4 1   
     8    3   29 1   
     9    3   37 1   
    10    4    5 1   
    11    4   38 1   
    12    5    6 1   
    13    5   39 1   
    14    5   40 1   
    15    6    7 2   
    16    6   11 1   
    17    7    8 1   
    18    7   41 1   
    19    8    9 2   
    20    8   42 1   
    21    9   10 1   
    22    9   15 1   
    23   10   12 1   
    24   10   43 1   
    25   10   44 1   
    26   11   45 1   
    27   11   46 1   
    28   12   13 1   
    29   12   47 1   
    30   12   48 1   
    31   13   14 1   
    32   13   49 1   
    33   13   50 1   
    34   14   15 1   
    35   14   18 1   
    36   14   19 1   
    37   15   16 1   
    38   15   51 1   
    39   16   17 1   
    40   16   52 1   
    41   16   53 1   
    42   17   18 2   
    43   17   54 1   
    44   18   20 1   
    45   19   55 1   
    46   19   56 1   
    47   19   57 1   
    48   20   21 1   
    49   20   22 1   
    50   20   58 1   
    51   21   59 1   
    52   21   60 1   
    53   21   61 1   
    54   22   23 1   
    55   23   24 1   
    56   23   62 1   
    57   23   63 1   
    58   24   25 1   
    59   24   26 1   
    60   24   27 1   
    61   25   64 1   
    62   26   33 1   
    63   26   65 1   
    64   26   66 1   
    65   27   34 1   
    66   27   67 1   
    67   27   68 1   
    68   28   69 1   
    69   29   30 1   
    70   30   31 1   
    71   30   70 1   
    72   30   71 1   
    73   31   32 1   
    74   31   72 1   
    75   31   73 1   
    76   32   74 1   
    77   33   75 1   
    78   33   76 1   
    79   33   77 1   
    80   34   78 1   
    81   34   79 1   
    82   34   80 1   
@<TRIPOS>SUBSTRUCTURE
     1 VDA         1 TEMP              0 ****  ****    0 ROOT
