@<TRIPOS>MOLECULE
VDA
   80    82     1     0     0
SMALL
bcc


@<TRIPOS>ATOM
      1 O2          6.7970    1.2300    0.2150 oh        1 VDA     -0.592300
      2 C1          4.9640   -1.3040   -0.0350 c3        1 VDA      0.137600
      3 C2          6.2310   -0.9160   -0.8210 c3        1 VDA      0.075100
      4 C3          6.3720    0.6040   -0.9800 c3        1 VDA      0.137600
      5 C4          5.0870    1.2280   -1.5200 c3        1 VDA     -0.059700
      6 C5          3.8660    0.7830   -0.7890 c2        1 VDA     -0.129400
      7 C6          2.9700    1.6790   -0.3370 ce        1 VDA     -0.112000
      8 C7          1.7560    1.3660    0.3830 ce        1 VDA     -0.153000
      9 C8          0.6550    2.1350    0.4120 c2        1 VDA     -0.069400
     10 C9          0.5000    3.4460   -0.2930 c3        1 VDA     -0.046200
     11 C10         3.7200   -0.6910   -0.6730 c3        1 VDA     -0.059700
     12 C11        -0.8400    3.6420   -0.9900 c3        1 VDA     -0.071400
     13 C12        -2.0580    3.1350   -0.2330 c3        1 VDA     -0.062400
     14 C13        -1.8030    1.7310    0.2840 c3        1 VDA     -0.010800
     15 C14        -0.5500    1.8170    1.2140 c3        1 VDA     -0.041500
     16 C15        -0.6780    0.5790    2.1080 c3        1 VDA     -0.045200
     17 C16        -2.1740    0.4210    2.2070 c2        1 VDA     -0.153200
     18 C17        -2.8170    1.1030    1.2300 c2        1 VDA     -0.113400
     19 C18        -1.5960    0.7680   -0.8780 c3        1 VDA     -0.082100
     20 C20        -4.2690    1.2200    1.0180 c3        1 VDA      0.068600
     21 C21        -4.9770    1.7890    2.2240 c3        1 VDA     -0.085100
     22 S22        -4.8420   -0.4370    0.6340 ss        1 VDA     -0.288200
     23 C23        -6.3940   -0.1110   -0.1540 c3        1 VDA     -0.047300
     24 C25        -7.1950   -1.3950   -0.3890 c3        1 VDA      0.172800
     25 O3         -7.8000   -1.8460    0.8210 oh        1 VDA     -0.584800
     26 C26        -8.2790   -1.1370   -1.4470 c3        1 VDA     -0.091900
     27 C27        -6.2620   -2.5270   -0.8400 c3        1 VDA     -0.091900
     28 O1          4.7860   -2.7110   -0.0570 oh        1 VDA     -0.592300
     29 O4          7.3020   -1.4810   -0.0660 os        1 VDA     -0.441600
     30 C30         8.5960   -1.2200   -0.6110 c3        1 VDA      0.086400
     31 C31         9.5550   -2.1580    0.1160 c3        1 VDA      0.128400
     32 O5          9.3130   -3.5100   -0.2140 oh        1 VDA     -0.598800
     33 C29        -9.1190    0.0840   -1.1800 c3        1 VDA     -0.093600
     34 C28        -6.9900   -3.8090   -1.1470 c3        1 VDA     -0.093600
     35 HO2         6.1490    1.0170    0.8980 ho        1 VDA      0.411000
     36 H1          5.0740   -0.9570    1.0310 h1        1 VDA      0.059700
     37 H2          6.2070   -1.3910   -1.8410 h1        1 VDA      0.060700
     38 H3          7.2140    0.8220   -1.7010 h1        1 VDA      0.059700
     39 H4          5.1950    2.3440   -1.4720 hc        1 VDA      0.065450
     40 H4A         4.9810    0.9390   -2.6010 hc        1 VDA      0.065450
     41 H6          3.1610    2.7560   -0.5060 ha        1 VDA      0.124000
     42 H7          1.7630    0.4240    0.9620 ha        1 VDA      0.129000
     43 H9          0.6320    4.2570    0.4760 hc        1 VDA      0.048200
     44 H9A         1.3100    3.5790   -1.0590 hc        1 VDA      0.048200
     45 H10         3.5750   -1.1340   -1.6950 hc        1 VDA      0.065450
     46 H10A        2.8280   -0.9820   -0.0600 hc        1 VDA      0.065450
     47 H11        -0.9730    4.7390   -1.1890 hc        1 VDA      0.041200
     48 H11A       -0.8020    3.1310   -1.9900 hc        1 VDA      0.041200
     49 H12        -2.2900    3.8180    0.6250 hc        1 VDA      0.042700
     50 H12A       -2.9440    3.1420   -0.9200 hc        1 VDA      0.042700
     51 H14        -0.7050    2.7060    1.9000 hc        1 VDA      0.059700
     52 H15        -0.2200   -0.3280    1.6390 hc        1 VDA      0.056700
     53 H15A       -0.2080    0.7370    3.1080 hc        1 VDA      0.056700
     54 H16        -2.6270   -0.1790    2.9980 ha        1 VDA      0.147000
     55 H18        -0.6950    1.0530   -1.4720 hc        1 VDA      0.041700
     56 H18A       -1.4510   -0.2720   -0.4970 hc        1 VDA      0.041700
     57 H18B       -2.4910    0.7820   -1.5440 hc        1 VDA      0.041700
     58 H20        -4.4730    1.8770    0.1300 h1        1 VDA      0.068700
     59 H21        -4.8000    1.1500    3.1230 hc        1 VDA      0.042700
     60 H21A       -4.5990    2.8180    2.4420 hc        1 VDA      0.042700
     61 H21B       -6.0770    1.8490    2.0400 hc        1 VDA      0.042700
     62 H23        -6.9970    0.5940    0.4690 h1        1 VDA      0.059700
     63 H23A       -6.2030    0.3820   -1.1390 h1        1 VDA      0.059700
     64 HO3        -8.3700   -1.1340    1.1360 ho        1 VDA      0.397000
     65 H26        -7.7820   -1.0410   -2.4470 hc        1 VDA      0.057950
     66 H26A       -8.9430   -2.0410   -1.4800 hc        1 VDA      0.057950
     67 H27        -5.6980   -2.1750   -1.7420 hc        1 VDA      0.057950
     68 H27A       -5.5200   -2.7140   -0.0150 hc        1 VDA      0.057950
     69 HO1         5.5950   -3.0960    0.3040 ho        1 VDA      0.411000
     70 H30         8.5980   -1.4250   -1.7130 h1        1 VDA      0.049200
     71 H30A        8.8660   -0.1490   -0.4150 h1        1 VDA      0.049200
     72 H31        10.6070   -1.9580   -0.2210 h1        1 VDA      0.056200
     73 H31A        9.4720   -2.0090    1.2250 h1        1 VDA      0.056200
     74 HO5         8.3930   -3.6930    0.0120 ho        1 VDA      0.407000
     75 H29        -9.5740    0.0430   -0.1600 hc        1 VDA      0.035867
     76 H29A       -8.5110    1.0180   -1.2560 hc        1 VDA      0.035867
     77 H29B       -9.9470    0.1460   -1.9270 hc        1 VDA      0.035867
     78 H28        -7.6760   -4.0760   -0.3060 hc        1 VDA      0.035867
     79 H28A       -7.5950   -3.7130   -2.0810 hc        1 VDA      0.035867
     80 H28B       -6.2570   -4.6390   -1.2890 hc        1 VDA      0.035867
@<TRIPOS>BOND
     1    1    4 1   
     2    1   35 1   
     3    2    3 1   
     4    2   11 1   
     5    2   28 1   
     6    2   36 1   
     7    3    4 1   
     8    3   29 1   
     9    3   37 1   
    10    4    5 1   
    11    4   38 1   
    12    5    6 1   
    13    5   39 1   
    14    5   40 1   
    15    6    7 2   
    16    6   11 1   
    17    7    8 1   
    18    7   41 1   
    19    8    9 2   
    20    8   42 1   
    21    9   10 1   
    22    9   15 1   
    23   10   12 1   
    24   10   43 1   
    25   10   44 1   
    26   11   45 1   
    27   11   46 1   
    28   12   13 1   
    29   12   47 1   
    30   12   48 1   
    31   13   14 1   
    32   13   49 1   
    33   13   50 1   
    34   14   15 1   
    35   14   18 1   
    36   14   19 1   
    37   15   16 1   
    38   15   51 1   
    39   16   17 1   
    40   16   52 1   
    41   16   53 1   
    42   17   18 2   
    43   17   54 1   
    44   18   20 1   
    45   19   55 1   
    46   19   56 1   
    47   19   57 1   
    48   20   21 1   
    49   20   22 1   
    50   20   58 1   
    51   21   59 1   
    52   21   60 1   
    53   21   61 1   
    54   22   23 1   
    55   23   24 1   
    56   23   62 1   
    57   23   63 1   
    58   24   25 1   
    59   24   26 1   
    60   24   27 1   
    61   25   64 1   
    62   26   33 1   
    63   26   65 1   
    64   26   66 1   
    65   27   34 1   
    66   27   67 1   
    67   27   68 1   
    68   28   69 1   
    69   29   30 1   
    70   30   31 1   
    71   30   70 1   
    72   30   71 1   
    73   31   32 1   
    74   31   72 1   
    75   31   73 1   
    76   32   74 1   
    77   33   75 1   
    78   33   76 1   
    79   33   77 1   
    80   34   78 1   
    81   34   79 1   
    82   34   80 1   
@<TRIPOS>SUBSTRUCTURE
     1 VDA         1 TEMP              0 ****  ****    0 ROOT
