@<TRIPOS>MOLECULE
VDA
   80    82     1     0     0
SMALL
bcc


@<TRIPOS>ATOM
      1 O2          0.5220    0.0360    0.2370 oh        1 VDA     -0.592300
      2 C1          2.4900    2.3930    0.8710 c3        1 VDA      0.137100
      3 C2          2.7850    0.9590    0.3940 c3        1 VDA      0.075100
      4 C3          1.7560   -0.0510    0.9220 c3        1 VDA      0.137100
      5 C4          1.5770    0.0790    2.4330 c3        1 VDA     -0.058700
      6 C5          1.3630    1.4850    2.8810 c2        1 VDA     -0.132400
      7 C6          0.3450    1.7980    3.7030 ce        1 VDA     -0.109000
      8 C7          0.0400    3.1230    4.1970 ce        1 VDA     -0.157000
      9 C8         -0.6020    3.3890    5.3460 c2        1 VDA     -0.065400
     10 C9         -1.1110    2.3610    6.3070 c3        1 VDA     -0.046200
     11 C10         2.3830    2.4490    2.3920 c3        1 VDA     -0.058700
     12 C11        -0.8540    2.6740    7.7750 c3        1 VDA     -0.071400
     13 C12        -1.0260    4.1300    8.1830 c3        1 VDA     -0.063400
     14 C13        -0.3210    5.0370    7.1930 c3        1 VDA     -0.010800
     15 C14        -0.9560    4.7560    5.7950 c3        1 VDA     -0.043500
     16 C15        -0.6490    6.0270    4.9940 c3        1 VDA     -0.044200
     17 C16        -0.6530    7.0810    6.0710 c2        1 VDA     -0.159200
     18 C17        -0.5260    6.5420    7.3050 c2        1 VDA     -0.122400
     19 C18         1.1800    4.7810    7.2150 c3        1 VDA     -0.093100
     20 C20        -0.5310    7.2200    8.6120 c3        1 VDA      0.072600
     21 C21        -1.9100    7.7090    8.9900 c3        1 VDA     -0.078100
     22 S22         0.5120    8.6790    8.6640 ss        1 VDA     -0.319200
     23 C23         2.1590    8.0430    8.6840 c3        1 VDA     -0.006300
     24 C25         2.6970    7.5080   10.0140 c3        1 VDA      0.156800
     25 O3          2.0210    6.2700   10.2420 oh        1 VDA     -0.605800
     26 C26         4.2110    7.2620    9.8910 c3        1 VDA     -0.112900
     27 C27         2.4240    8.5030   11.1480 c3        1 VDA     -0.112900
     28 O1          3.5500    3.2610    0.5020 oh        1 VDA     -0.592300
     29 O4          2.7710    1.0500   -1.0300 os        1 VDA     -0.441600
     30 C30         2.9990   -0.1940   -1.6920 c3        1 VDA      0.086400
     31 C31         3.2810    0.1520   -3.1510 c3        1 VDA      0.128400
     32 O5          4.5020    0.8470   -3.2970 oh        1 VDA     -0.598800
     33 C29         4.5600    6.2760    8.8070 c3        1 VDA     -0.095600
     34 C28         2.6000    7.9270   12.5270 c3        1 VDA     -0.095600
     35 HO2         0.1930    0.9370    0.3480 ho        1 VDA      0.411500
     36 H1          1.5330    2.7490    0.3940 h1        1 VDA      0.059700
     37 H2          3.8120    0.6490    0.7340 h1        1 VDA      0.059700
     38 H3          2.1130   -1.0970    0.6850 h1        1 VDA      0.059700
     39 H4          0.7150   -0.5720    2.7380 hc        1 VDA      0.065200
     40 H4A         2.5010   -0.3180    2.9340 hc        1 VDA      0.065200
     41 H6         -0.3400    0.9960    4.0340 ha        1 VDA      0.124000
     42 H7          0.3530    3.9660    3.5540 ha        1 VDA      0.129000
     43 H9         -2.2210    2.2720    6.1430 hc        1 VDA      0.047700
     44 H9A        -0.6610    1.3570    6.0840 hc        1 VDA      0.047700
     45 H10         2.1470    3.5030    2.6940 hc        1 VDA      0.065200
     46 H10A        3.3820    2.1950    2.8410 hc        1 VDA      0.065200
     47 H11         0.1900    2.3510    8.0330 hc        1 VDA      0.040700
     48 H11A       -1.5510    2.0460    8.3930 hc        1 VDA      0.040700
     49 H12        -2.1140    4.3930    8.2270 hc        1 VDA      0.045700
     50 H12A       -0.6010    4.2750    9.2110 hc        1 VDA      0.045700
     51 H14        -2.0810    4.7500    5.9360 hc        1 VDA      0.059700
     52 H15         0.3520    5.9790    4.4970 hc        1 VDA      0.054200
     53 H15A       -1.4230    6.2240    4.2140 hc        1 VDA      0.054200
     54 H16        -0.7520    8.1390    5.8240 ha        1 VDA      0.148000
     55 H18         1.5840    4.9980    8.2370 hc        1 VDA      0.043367
     56 H18A        1.6960    5.4420    6.4780 hc        1 VDA      0.043367
     57 H18B        1.4060    3.7210    6.9500 hc        1 VDA      0.043367
     58 H20        -0.1490    6.5080    9.3960 h1        1 VDA      0.097700
     59 H21        -2.2850    8.4520    8.2430 hc        1 VDA      0.046033
     60 H21A       -2.6230    6.8480    9.0190 hc        1 VDA      0.046033
     61 H21B       -1.8890    8.1910    9.9970 hc        1 VDA      0.046033
     62 H23         2.7960    8.9080    8.3710 h1        1 VDA      0.083200
     63 H23A        2.2460    7.2290    7.9200 h1        1 VDA      0.083200
     64 HO3         2.4120    5.8790   11.0320 ho        1 VDA      0.404000
     65 H26         4.5870    6.8790   10.8760 hc        1 VDA      0.054450
     66 H26A        4.7180    8.2420    9.6960 hc        1 VDA      0.054450
     67 H27         1.3670    8.8760   11.0350 hc        1 VDA      0.054450
     68 H27A        3.1080    9.3820   11.0140 hc        1 VDA      0.054450
     69 HO1         3.6440    3.1860   -0.4570 ho        1 VDA      0.411500
     70 H30         2.0780   -0.8280   -1.6070 h1        1 VDA      0.049200
     71 H30A        3.8760   -0.7200   -1.2320 h1        1 VDA      0.049200
     72 H31         3.4090   -0.7910   -3.7460 h1        1 VDA      0.056200
     73 H31A        2.4370    0.7600   -3.5720 h1        1 VDA      0.056200
     74 HO5         4.4420    1.6370   -2.7450 ho        1 VDA      0.407000
     75 H29         5.6180    5.9370    8.9200 hc        1 VDA      0.036867
     76 H29A        3.8880    5.3840    8.8610 hc        1 VDA      0.036867
     77 H29B        4.4470    6.7380    7.7970 hc        1 VDA      0.036867
     78 H28         1.8450    7.1270   12.7230 hc        1 VDA      0.036867
     79 H28A        2.4600    8.7300   13.2920 hc        1 VDA      0.036867
     80 H28B        3.6200    7.4920   12.6610 hc        1 VDA      0.036867
@<TRIPOS>BOND
     1    1    4 1   
     2    1   35 1   
     3    2    3 1   
     4    2   11 1   
     5    2   28 1   
     6    2   36 1   
     7    3    4 1   
     8    3   29 1   
     9    3   37 1   
    10    4    5 1   
    11    4   38 1   
    12    5    6 1   
    13    5   39 1   
    14    5   40 1   
    15    6    7 2   
    16    6   11 1   
    17    7    8 1   
    18    7   41 1   
    19    8    9 2   
    20    8   42 1   
    21    9   10 1   
    22    9   15 1   
    23   10   12 1   
    24   10   43 1   
    25   10   44 1   
    26   11   45 1   
    27   11   46 1   
    28   12   13 1   
    29   12   47 1   
    30   12   48 1   
    31   13   14 1   
    32   13   49 1   
    33   13   50 1   
    34   14   15 1   
    35   14   18 1   
    36   14   19 1   
    37   15   16 1   
    38   15   51 1   
    39   16   17 1   
    40   16   52 1   
    41   16   53 1   
    42   17   18 2   
    43   17   54 1   
    44   18   20 1   
    45   19   55 1   
    46   19   56 1   
    47   19   57 1   
    48   20   21 1   
    49   20   22 1   
    50   20   58 1   
    51   21   59 1   
    52   21   60 1   
    53   21   61 1   
    54   22   23 1   
    55   23   24 1   
    56   23   62 1   
    57   23   63 1   
    58   24   25 1   
    59   24   26 1   
    60   24   27 1   
    61   25   64 1   
    62   26   33 1   
    63   26   65 1   
    64   26   66 1   
    65   27   34 1   
    66   27   67 1   
    67   27   68 1   
    68   28   69 1   
    69   29   30 1   
    70   30   31 1   
    71   30   70 1   
    72   30   71 1   
    73   31   32 1   
    74   31   72 1   
    75   31   73 1   
    76   32   74 1   
    77   33   75 1   
    78   33   76 1   
    79   33   77 1   
    80   34   78 1   
    81   34   79 1   
    82   34   80 1   
@<TRIPOS>SUBSTRUCTURE
     1 VDA         1 TEMP              0 ****  ****    0 ROOT
