@<TRIPOS>MOLECULE
VDB
   80    82     1     0     0
SMALL
bcc


@<TRIPOS>ATOM
      1 C29         8.6360   -0.5430    2.6840 c3        1 VDB     -0.091600
      2 C26         7.7470    0.4420    1.9710 c3        1 VDB     -0.092400
      3 C25         6.9540   -0.1990    0.8220 c3        1 VDB      0.155800
      4 C27         7.8600   -0.8010   -0.2570 c3        1 VDB     -0.092400
      5 C28         8.9190    0.1430   -0.7580 c3        1 VDB     -0.091600
      6 O3          6.1910   -1.3040    1.3170 oh        1 VDB     -0.599800
      7 C23         6.0060    0.8640    0.2540 c3        1 VDB     -0.041300
      8 S22         5.1170    0.4930   -1.2240 ss        1 VDB     -0.306200
      9 C20         3.8860   -0.7230   -0.7250 c3        1 VDB      0.085600
     10 C21         4.3050   -2.0910   -1.2030 c3        1 VDB     -0.087100
     11 C17         2.5970   -0.2800   -1.2780 c2        1 VDB     -0.109400
     12 C16         2.1010   -0.4920   -2.5190 c2        1 VDB     -0.161200
     13 C15         0.7540    0.1560   -2.7040 c3        1 VDB     -0.043200
     14 C14         0.7200    1.1560   -1.5420 c3        1 VDB     -0.041500
     15 C13         1.5710    0.4610   -0.4320 c3        1 VDB     -0.011800
     16 C18         0.7760   -0.5890    0.3360 c3        1 VDB     -0.083100
     17 C12         2.0410    1.5560    0.5060 c3        1 VDB     -0.063400
     18 C11         0.8450    2.2840    1.1020 c3        1 VDB     -0.071400
     19 C9         -0.2300    2.7050    0.1090 c3        1 VDB     -0.045200
     20 C8         -0.5290    1.6990   -0.9580 c2        1 VDB     -0.068400
     21 C7         -1.7580    1.3650   -1.3850 ce        1 VDB     -0.152000
     22 C6         -2.9940    1.9210   -0.8810 ce        1 VDB     -0.113000
     23 C5         -4.1990    1.3250   -0.9360 c2        1 VDB     -0.123400
     24 C10        -5.4200    2.0210   -0.4470 c3        1 VDB     -0.075700
     25 C1         -6.1780    1.1710    0.5700 c3        1 VDB      0.133100
     26 O1         -7.4360    1.7710    0.8560 oh        1 VDB     -0.588300
     27 C4         -4.4560   -0.0210   -1.5100 c3        1 VDB     -0.075700
     28 C3         -5.2660   -0.9280   -0.5880 c3        1 VDB      0.133100
     29 O2         -4.4490   -1.5100    0.4110 oh        1 VDB     -0.588300
     30 C2         -6.4940   -0.2290    0.0170 c3        1 VDB      0.117100
     31 O4         -6.9700   -0.9620    1.1450 os        1 VDB     -0.421600
     32 C30        -7.4850   -2.2520    0.8140 c3        1 VDB      0.083400
     33 C31        -8.3040   -2.6930    2.0230 c3        1 VDB      0.132400
     34 O5         -9.4540   -1.8920    2.1940 oh        1 VDB     -0.603800
     35 H29         9.0720   -0.0760    3.6000 hc        1 VDB      0.037367
     36 H29A        8.0550   -1.4490    2.9820 hc        1 VDB      0.037367
     37 H29B        9.4740   -0.8690    2.0210 hc        1 VDB      0.037367
     38 H26         7.0180    0.8820    2.7040 hc        1 VDB      0.054450
     39 H26A        8.3590    1.2860    1.5600 hc        1 VDB      0.054450
     40 H27         8.3380   -1.7230    0.1680 hc        1 VDB      0.054450
     41 H27A        7.2020   -1.1220   -1.1110 hc        1 VDB      0.054450
     42 H28         8.4730    1.1120   -1.0870 hc        1 VDB      0.037367
     43 H28A        9.6790    0.3540    0.0340 hc        1 VDB      0.037367
     44 H28B        9.4450   -0.3150   -1.6310 hc        1 VDB      0.037367
     45 HO3         5.7290   -0.9980    2.1050 ho        1 VDB      0.396000
     46 H23         5.2810    1.1550    1.0560 h1        1 VDB      0.071700
     47 H23A        6.6070    1.7680   -0.0220 h1        1 VDB      0.071700
     48 H20         3.8380   -0.7290    0.3980 h1        1 VDB      0.074700
     49 H21         4.4810   -2.0910   -2.3060 hc        1 VDB      0.047700
     50 H21A        5.2490   -2.3960   -0.6850 hc        1 VDB      0.047700
     51 H21B        3.5100   -2.8410   -0.9710 hc        1 VDB      0.047700
     52 H16         2.5770   -1.0410   -3.3330 ha        1 VDB      0.142000
     53 H15         0.6670    0.6660   -3.6930 hc        1 VDB      0.054200
     54 H15A       -0.0610   -0.6070   -2.6250 hc        1 VDB      0.054200
     55 H14         1.3100    2.0560   -1.8970 hc        1 VDB      0.064700
     56 H18         1.4080   -1.0190    1.1500 hc        1 VDB      0.039700
     57 H18A       -0.1410   -0.1410    0.7870 hc        1 VDB      0.039700
     58 H18B        0.4620   -1.4140   -0.3480 hc        1 VDB      0.039700
     59 H12         2.6570    1.1200    1.3350 hc        1 VDB      0.045200
     60 H12A        2.6930    2.2770   -0.0530 hc        1 VDB      0.045200
     61 H11         0.3760    1.6250    1.8810 hc        1 VDB      0.040200
     62 H11A        1.2130    3.2030    1.6300 hc        1 VDB      0.040200
     63 H9         -1.1580    2.9510    0.6900 hc        1 VDB      0.047700
     64 H9A         0.1010    3.6490   -0.4060 hc        1 VDB      0.047700
     65 H7         -1.8570    0.6220   -2.1970 ha        1 VDB      0.128000
     66 H6         -2.9190    2.9310   -0.4360 ha        1 VDB      0.121000
     67 H10        -5.1660    3.0060    0.0260 hc        1 VDB      0.060950
     68 H10A       -6.0980    2.2340   -1.3180 hc        1 VDB      0.060950
     69 H1         -5.5800    1.0670    1.5190 h1        1 VDB      0.060700
     70 HO1        -7.2490    2.5910    1.3260 ho        1 VDB      0.404500
     71 H4         -5.0240    0.1050   -2.4720 hc        1 VDB      0.060950
     72 H4A        -3.4940   -0.5500   -1.7450 hc        1 VDB      0.060950
     73 H3         -5.6210   -1.8210   -1.1840 h1        1 VDB      0.060700
     74 HO2        -4.2710   -0.8290    1.0710 ho        1 VDB      0.404500
     75 H2         -7.3040   -0.1500   -0.7600 h1        1 VDB      0.065700
     76 H30        -8.1310   -2.1930   -0.1000 h1        1 VDB      0.046200
     77 H30A       -6.6260   -2.9510    0.6350 h1        1 VDB      0.046200
     78 H31        -8.6910   -3.7340    1.8610 h1        1 VDB      0.052200
     79 H31A       -7.6690   -2.6590    2.9490 h1        1 VDB      0.052200
     80 HO5        -9.1540   -0.9740    2.2320 ho        1 VDB      0.417000
@<TRIPOS>BOND
     1    1    2 1   
     2    1   35 1   
     3    1   36 1   
     4    1   37 1   
     5    2    3 1   
     6    2   38 1   
     7    2   39 1   
     8    3    4 1   
     9    3    6 1   
    10    3    7 1   
    11    4    5 1   
    12    4   40 1   
    13    4   41 1   
    14    5   42 1   
    15    5   43 1   
    16    5   44 1   
    17    6   45 1   
    18    7    8 1   
    19    7   46 1   
    20    7   47 1   
    21    8    9 1   
    22    9   10 1   
    23    9   11 1   
    24    9   48 1   
    25   10   49 1   
    26   10   50 1   
    27   10   51 1   
    28   11   12 2   
    29   11   15 1   
    30   12   13 1   
    31   12   52 1   
    32   13   14 1   
    33   13   53 1   
    34   13   54 1   
    35   14   15 1   
    36   14   20 1   
    37   14   55 1   
    38   15   16 1   
    39   15   17 1   
    40   16   56 1   
    41   16   57 1   
    42   16   58 1   
    43   17   18 1   
    44   17   59 1   
    45   17   60 1   
    46   18   19 1   
    47   18   61 1   
    48   18   62 1   
    49   19   20 1   
    50   19   63 1   
    51   19   64 1   
    52   20   21 2   
    53   21   22 1   
    54   21   65 1   
    55   22   23 2   
    56   22   66 1   
    57   23   24 1   
    58   23   27 1   
    59   24   25 1   
    60   24   67 1   
    61   24   68 1   
    62   25   26 1   
    63   25   30 1   
    64   25   69 1   
    65   26   70 1   
    66   27   28 1   
    67   27   71 1   
    68   27   72 1   
    69   28   29 1   
    70   28   30 1   
    71   28   73 1   
    72   29   74 1   
    73   30   31 1   
    74   30   75 1   
    75   31   32 1   
    76   32   33 1   
    77   32   76 1   
    78   32   77 1   
    79   33   34 1   
    80   33   78 1   
    81   33   79 1   
    82   34   80 1   
@<TRIPOS>SUBSTRUCTURE
     1 VDB         1 TEMP              0 ****  ****    0 ROOT
