@<TRIPOS>MOLECULE
VDB
   80    79     1     0     0
SMALL
bcc


@<TRIPOS>ATOM
      1 C29        -5.7380    1.6320    4.5790 c3        1 VDB     -0.208500
      2 C26        -5.6000    0.4950    3.6310 c3        1 VDB     -0.168000
      3 C25        -6.2390    0.8700    2.2940 c3        1 VDB      0.101000
      4 C27        -7.6960    0.3730    2.2650 c3        1 VDB     -0.168000
      5 C28        -8.6430    1.5670    2.2980 c3        1 VDB     -0.208500
      6 O3         -6.2200    2.2710    2.1400 oh        1 VDB     -0.308000
      7 C23        -5.4370    0.2070    1.1270 c3        1 VDB     -0.312000
      8 S22        -3.7590    0.9530    1.0320 ss        1 VDB      0.079000
      9 C20        -3.1180    0.7570   -0.6060 c3        1 VDB     -0.159000
     10 C21        -3.2920   -0.6770   -1.0450 c3        1 VDB     -0.207000
     11 C17        -1.6230    1.1280   -0.6250 c2        1 VDB     -0.110000
     12 C16        -0.8470    0.9020    0.4780 c1        1 VDB     -0.146000
     13 C15        -0.0620    1.6840    0.6100 c2        1 VDB     -0.131000
     14 C14        -0.0870    2.2910   -0.7850 c3        1 VDB     -0.069000
     15 C13        -1.2820    1.9550   -1.2280 c3        1 VDB     -0.007000
     16 C18        -2.1980    3.1500   -0.7790 c3        1 VDB     -0.202000
     17 C12        -1.4180    1.9350   -2.3590 c3        1 VDB     -0.143000
     18 C11        -0.3550    1.1360   -3.0900 c3        1 VDB     -0.153000
     19 C9          1.0090    1.5440   -2.7220 c3        1 VDB     -0.125000
     20 C8          1.0750    1.5050   -1.5030 c2        1 VDB     -0.081000
     21 C7          1.6830    0.4140   -0.8680 c1        1 VDB     -0.148000
     22 C6          2.2760   -0.7530   -1.7210 c1        1 VDB     -0.124000
     23 C5          3.6520   -0.9890   -1.7190 c1        1 VDB     -0.089000
     24 C10         4.3100   -2.1330   -2.5500 c2        1 VDB     -0.158000
     25 C1          5.1920   -2.9770   -1.6310 c3        1 VDB      0.011000
     26 O1          5.9270   -3.9020   -2.4320 oh        1 VDB     -0.335000
     27 C4          4.6420   -0.1270   -0.8960 c3        1 VDB     -0.123000
     28 C3          5.5090   -1.0440   -0.0400 c3        1 VDB      0.042000
     29 O2          4.6840   -1.6220    0.9990 oh        1 VDB     -0.325000
     30 C2          6.1670   -2.1700   -0.8200 c3        1 VDB      0.005000
     31 O4          6.8260   -3.0410    0.1080 os        1 VDB     -0.295000
     32 C30         8.2420   -3.1530   -0.1010 c3        1 VDB     -0.021000
     33 C31         8.8670   -3.8600    1.0680 c3        1 VDB     -0.025000
     34 O5         10.2450   -3.9650    0.8640 oh        1 VDB     -0.330000
     35 H29        -5.2570    2.4000    4.2330 hc        1 VDB      0.077333
     36 H29A       -6.6860    1.8580    4.6820 hc        1 VDB      0.077333
     37 H29B       -5.3660    1.3790    5.4490 hc        1 VDB      0.077333
     38 H26        -6.0540   -0.3030    4.0050 hc        1 VDB      0.090500
     39 H26A       -4.6520    0.2980    3.4960 hc        1 VDB      0.090500
     40 H27        -7.8470   -0.1310    1.4640 hc        1 VDB      0.090500
     41 H27A       -7.8610   -0.1930    3.0390 hc        1 VDB      0.090500
     42 H28        -9.5760    1.2430    2.3500 hc        1 VDB      0.077333
     43 H28A       -8.4460    2.1200    3.0780 hc        1 VDB      0.077333
     44 H28B       -8.5280    2.0970    1.4880 hc        1 VDB      0.077333
     45 HO3        -6.2600    2.4770    1.2640 ho        1 VDB      0.196000
     46 H23        -5.3580   -0.7370    1.2880 h1        1 VDB      0.098000
     47 H23A       -5.9050    0.3550    0.2870 h1        1 VDB      0.098000
     48 H20        -3.6030    1.3420   -1.2160 h1        1 VDB      0.109000
     49 H21        -4.2030   -0.8000   -1.4150 hc        1 VDB      0.081333
     50 H21A       -3.1700   -1.2680   -0.2810 hc        1 VDB      0.081333
     51 H21B       -2.6300   -0.8910   -1.7310 hc        1 VDB      0.081333
     52 H16        -1.2270    0.4580    1.2590 ha        1 VDB      0.144000
     53 H15        -0.1930    2.3300    1.3310 ha        1 VDB      0.096500
     54 H15A        0.8110    1.2850    0.8430 ha        1 VDB      0.096500
     55 H14         0.0570    3.2580   -0.7740 hc        1 VDB      0.099000
     56 H18        -1.7470    3.9940   -0.9680 hc        1 VDB      0.079333
     57 H18A       -2.3740    3.0830    0.1820 hc        1 VDB      0.079333
     58 H18B       -3.0550    3.1150   -1.2750 hc        1 VDB      0.079333
     59 H12        -2.3070    1.5380   -2.5630 hc        1 VDB      0.082000
     60 H12A       -1.4030    2.8640   -2.6950 hc        1 VDB      0.082000
     61 H11        -0.4690    0.1880   -2.8770 hc        1 VDB      0.082000
     62 H11A       -0.4740    1.2600   -4.0570 hc        1 VDB      0.082000
     63 H9          1.8040    1.1540   -3.1290 hc        1 VDB      0.087000
     64 H9A         1.0830    2.4740   -3.0500 hc        1 VDB      0.087000
     65 H7          1.7130    0.3710    0.1030 ha        1 VDB      0.132000
     66 H6          1.7030   -1.2980   -2.2390 ha        1 VDB      0.119000
     67 H10         4.8120   -1.8230   -3.3310 ha        1 VDB      0.092000
     68 H10A        3.6250   -2.6680   -2.9710 ha        1 VDB      0.092000
     69 H1          4.6060   -3.4870   -1.0070 h1        1 VDB      0.102000
     70 HO1         5.4370   -4.6420   -2.5600 ho        1 VDB      0.201000
     71 H4          4.3030    0.5850   -0.3220 hc        1 VDB      0.102500
     72 H4A         5.1600    0.3950   -1.5480 hc        1 VDB      0.102500
     73 H3          6.2100   -0.5070    0.3800 h1        1 VDB      0.084000
     74 HO2         4.9540   -1.3200    1.7970 ho        1 VDB      0.218000
     75 H2          6.8440   -1.7820   -1.4290 h1        1 VDB      0.101000
     76 H30         8.4140   -3.6690   -0.9330 h1        1 VDB      0.096500
     77 H30A        8.6290   -2.2680   -0.1850 h1        1 VDB      0.096500
     78 H31         8.4850   -4.7440    1.1520 h1        1 VDB      0.075500
     79 H31A        8.6990   -3.3590    1.8750 h1        1 VDB      0.075500
     80 HO5        10.6090   -4.3860    1.5420 ho        1 VDB      0.200000
@<TRIPOS>BOND
     1    1    2 1   
     2    1   35 1   
     3    1   36 1   
     4    1   37 1   
     5    2    3 1   
     6    2   38 1   
     7    2   39 1   
     8    3    4 1   
     9    3    6 1   
    10    3    7 1   
    11    4    5 1   
    12    4   40 1   
    13    4   41 1   
    14    5   42 1   
    15    5   43 1   
    16    5   44 1   
    17    6   45 1   
    18    7    8 1   
    19    7   46 1   
    20    7   47 1   
    21    8    9 1   
    22    9   10 1   
    23    9   11 1   
    24    9   48 1   
    25   10   49 1   
    26   10   50 1   
    27   10   51 1   
    28   11   12 1   
    29   11   15 1   
    30   12   52 1   
    31   13   14 1   
    32   13   53 1   
    33   13   54 1   
    34   14   15 1   
    35   14   20 1   
    36   14   55 1   
    37   15   16 1   
    38   15   17 1   
    39   16   56 1   
    40   16   57 1   
    41   16   58 1   
    42   17   18 1   
    43   17   59 1   
    44   17   60 1   
    45   18   19 1   
    46   18   61 1   
    47   18   62 1   
    48   19   20 1   
    49   19   63 1   
    50   19   64 1   
    51   20   21 1   
    52   21   65 1   
    53   22   23 1   
    54   22   66 1   
    55   23   27 1   
    56   24   25 1   
    57   24   67 1   
    58   24   68 1   
    59   25   26 1   
    60   25   30 1   
    61   25   69 1   
    62   26   70 1   
    63   27   28 1   
    64   27   71 1   
    65   27   72 1   
    66   28   29 1   
    67   28   30 1   
    68   28   73 1   
    69   29   74 1   
    70   30   31 1   
    71   30   75 1   
    72   31   32 1   
    73   32   33 1   
    74   32   76 1   
    75   32   77 1   
    76   33   34 1   
    77   33   78 1   
    78   33   79 1   
    79   34   80 1   
@<TRIPOS>SUBSTRUCTURE
     1 VDB         1 TEMP              0 ****  ****    0 ROOT
