@<TRIPOS>MOLECULE
VDB
   80    82     1     0     0
SMALL
bcc


@<TRIPOS>ATOM
      1 C29         2.9800   -0.3130   -1.3760 c3        1 VDB     -0.091600
      2 C26         3.7000    0.7000   -0.5250 c3        1 VDB     -0.092400
      3 C25         3.3930    0.5430    0.9720 c3        1 VDB      0.155800
      4 C27         1.9040    0.7130    1.2900 c3        1 VDB     -0.092400
      5 C28         1.2980    1.9650    0.7160 c3        1 VDB     -0.091600
      6 O3          3.7070   -0.7880    1.3940 oh        1 VDB     -0.599800
      7 C23         4.2660    1.5440    1.7390 c3        1 VDB     -0.041300
      8 S22         3.9800    1.7510    3.4680 ss        1 VDB     -0.306200
      9 C20         4.6000    0.2360    4.2170 c3        1 VDB      0.085600
     10 C21         3.4370   -0.6260    4.6420 c3        1 VDB     -0.086100
     11 C17         5.4750    0.6300    5.3310 c2        1 VDB     -0.109400
     12 C16         5.1240    0.9510    6.5980 c2        1 VDB     -0.162200
     13 C15         6.3190    1.3320    7.4330 c3        1 VDB     -0.043200
     14 C14         7.3770    1.6190    6.3610 c3        1 VDB     -0.039500
     15 C13         6.9910    0.6550    5.1940 c3        1 VDB     -0.011800
     16 C18         7.4890   -0.7660    5.4260 c3        1 VDB     -0.084100
     17 C12         7.6070    1.2310    3.9330 c3        1 VDB     -0.062400
     18 C11         9.1170    1.3300    4.0880 c3        1 VDB     -0.071400
     19 C9          9.6040    1.9610    5.3860 c3        1 VDB     -0.044200
     20 C8          8.8370    1.5560    6.6060 c2        1 VDB     -0.075400
     21 C7          9.3830    1.2340    7.7900 ce        1 VDB     -0.144000
     22 C6         10.8000    1.2220    8.0780 ce        1 VDB     -0.119000
     23 C5         11.3980    0.4790    9.0280 c2        1 VDB     -0.108400
     24 C10        12.8600    0.6190    9.2800 c3        1 VDB     -0.041700
     25 C1         13.5430   -0.7430    9.3390 c3        1 VDB      0.142600
     26 O1         14.9070   -0.5110    9.6520 oh        1 VDB     -0.598800
     27 C4         10.6710   -0.4720    9.9120 c3        1 VDB     -0.041700
     28 C3         11.3860   -1.8050   10.1220 c3        1 VDB      0.142600
     29 O2         11.1660   -2.6060    8.9710 oh        1 VDB     -0.598800
     30 C2         12.8780   -1.6110   10.4200 c3        1 VDB      0.065100
     31 O4         13.5520   -2.8720   10.3650 os        1 VDB     -0.442600
     32 C30        13.4790   -3.6090   11.5850 c3        1 VDB      0.123400
     33 C31        14.3750   -4.8320   11.4040 c3        1 VDB      0.126400
     34 O5         15.6070   -4.5400   12.0430 oh        1 VDB     -0.600800
     35 H29         3.3490   -0.2640   -2.4290 hc        1 VDB      0.037200
     36 H29A        1.8800   -0.1170   -1.3760 hc        1 VDB      0.037200
     37 H29B        3.1500   -1.3450   -0.9820 hc        1 VDB      0.037200
     38 H26         4.8080    0.5900   -0.6740 hc        1 VDB      0.054200
     39 H26A        3.4220    1.7380   -0.8440 hc        1 VDB      0.054200
     40 H27         1.3620   -0.1890    0.8990 hc        1 VDB      0.054200
     41 H27A        1.7960    0.7160    2.4100 hc        1 VDB      0.054200
     42 H28         0.2560    2.0870    1.1030 hc        1 VDB      0.037200
     43 H28A        1.2510    1.9170   -0.3990 hc        1 VDB      0.037200
     44 H28B        1.8870    2.8680    1.0070 hc        1 VDB      0.037200
     45 HO3         4.5930   -0.9850    1.0690 ho        1 VDB      0.396000
     46 H23         5.3390    1.2760    1.5730 h1        1 VDB      0.071700
     47 H23A        4.0890    2.5670    1.3190 h1        1 VDB      0.071700
     48 H20         5.1970   -0.3170    3.4410 h1        1 VDB      0.074700
     49 H21         2.7540   -0.0640    5.3230 hc        1 VDB      0.047367
     50 H21A        3.8060   -1.5340    5.1790 hc        1 VDB      0.047367
     51 H21B        2.8620   -0.9510    3.7380 hc        1 VDB      0.047367
     52 H16         4.1170    0.9670    7.0180 ha        1 VDB      0.141000
     53 H15         6.6170    0.4840    8.0990 hc        1 VDB      0.053700
     54 H15A        6.1180    2.2280    8.0670 hc        1 VDB      0.053700
     55 H14         7.1690    2.6740    6.0020 hc        1 VDB      0.063700
     56 H18         7.0030   -1.2050    6.3300 hc        1 VDB      0.040033
     57 H18A        7.2420   -1.4020    4.5420 hc        1 VDB      0.040033
     58 H18B        8.5940   -0.7780    5.5850 hc        1 VDB      0.040033
     59 H12         7.1710    2.2430    3.7270 hc        1 VDB      0.043700
     60 H12A        7.3700    0.5780    3.0520 hc        1 VDB      0.043700
     61 H11         9.5560    0.3000    4.0030 hc        1 VDB      0.039700
     62 H11A        9.5260    1.9310    3.2320 hc        1 VDB      0.039700
     63 H9          9.5280    3.0800    5.2980 hc        1 VDB      0.048200
     64 H9A        10.6920    1.7100    5.5040 hc        1 VDB      0.048200
     65 H7          8.7170    0.9680    8.6300 ha        1 VDB      0.125000
     66 H6         11.4180    1.9060    7.4660 ha        1 VDB      0.123000
     67 H10        13.0200    1.1530   10.2560 hc        1 VDB      0.062950
     68 H10A       13.3570    1.2310    8.4810 hc        1 VDB      0.062950
     69 H1         13.4650   -1.2710    8.3470 h1        1 VDB      0.044700
     70 HO1        15.3110   -1.3800    9.7780 ho        1 VDB      0.415500
     71 H4         10.5350    0.0090   10.9180 hc        1 VDB      0.062950
     72 H4A         9.6540   -0.7000    9.4930 hc        1 VDB      0.062950
     73 H3         10.9120   -2.3370   11.0000 h1        1 VDB      0.044700
     74 HO2        11.8830   -3.2530    8.9310 ho        1 VDB      0.415500
     75 H2         13.0110   -1.1350   11.4290 h1        1 VDB      0.066700
     76 H30        12.4170   -3.9250   11.7590 h1        1 VDB      0.048700
     77 H30A       13.8380   -2.9800   12.4410 h1        1 VDB      0.048700
     78 H31        14.5310   -5.0450   10.3140 h1        1 VDB      0.039200
     79 H31A       13.9020   -5.7230   11.8980 h1        1 VDB      0.039200
     80 HO5        16.2360   -5.2120   11.7560 ho        1 VDB      0.405000
@<TRIPOS>BOND
     1    1    2 1   
     2    1   35 1   
     3    1   36 1   
     4    1   37 1   
     5    2    3 1   
     6    2   38 1   
     7    2   39 1   
     8    3    4 1   
     9    3    6 1   
    10    3    7 1   
    11    4    5 1   
    12    4   40 1   
    13    4   41 1   
    14    5   42 1   
    15    5   43 1   
    16    5   44 1   
    17    6   45 1   
    18    7    8 1   
    19    7   46 1   
    20    7   47 1   
    21    8    9 1   
    22    9   10 1   
    23    9   11 1   
    24    9   48 1   
    25   10   49 1   
    26   10   50 1   
    27   10   51 1   
    28   11   12 2   
    29   11   15 1   
    30   12   13 1   
    31   12   52 1   
    32   13   14 1   
    33   13   53 1   
    34   13   54 1   
    35   14   15 1   
    36   14   20 1   
    37   14   55 1   
    38   15   16 1   
    39   15   17 1   
    40   16   56 1   
    41   16   57 1   
    42   16   58 1   
    43   17   18 1   
    44   17   59 1   
    45   17   60 1   
    46   18   19 1   
    47   18   61 1   
    48   18   62 1   
    49   19   20 1   
    50   19   63 1   
    51   19   64 1   
    52   20   21 2   
    53   21   22 1   
    54   21   65 1   
    55   22   23 2   
    56   22   66 1   
    57   23   24 1   
    58   23   27 1   
    59   24   25 1   
    60   24   67 1   
    61   24   68 1   
    62   25   26 1   
    63   25   30 1   
    64   25   69 1   
    65   26   70 1   
    66   27   28 1   
    67   27   71 1   
    68   27   72 1   
    69   28   29 1   
    70   28   30 1   
    71   28   73 1   
    72   29   74 1   
    73   30   31 1   
    74   30   75 1   
    75   31   32 1   
    76   32   33 1   
    77   32   76 1   
    78   32   77 1   
    79   33   34 1   
    80   33   78 1   
    81   33   79 1   
    82   34   80 1   
@<TRIPOS>SUBSTRUCTURE
     1 VDB         1 TEMP              0 ****  ****    0 ROOT
