@<TRIPOS>MOLECULE
VDB
   80    82     1     0     0
SMALL
bcc


@<TRIPOS>ATOM
      1 C29         3.0160   -0.3680   -1.3390 c3        1 VDB     -0.091600
      2 C26         3.7320    0.6530   -0.4940 c3        1 VDB     -0.092400
      3 C25         3.4410    0.4900    1.0060 c3        1 VDB      0.155800
      4 C27         1.9540    0.6410    1.3380 c3        1 VDB     -0.092400
      5 C28         1.3270    1.8870    0.7720 c3        1 VDB     -0.091600
      6 O3          3.7760   -0.8370    1.4230 oh        1 VDB     -0.599800
      7 C23         4.3100    1.5000    1.7650 c3        1 VDB     -0.041300
      8 S22         4.0370    1.7070    3.4960 ss        1 VDB     -0.305200
      9 C20         4.6690    0.1960    4.2430 c3        1 VDB      0.085600
     10 C21         3.5150   -0.6850    4.6550 c3        1 VDB     -0.087100
     11 C17         5.5260    0.5990    5.3670 c2        1 VDB     -0.109400
     12 C16         5.1580    0.9100    6.6320 c2        1 VDB     -0.161200
     13 C15         6.3380    1.3070    7.4800 c3        1 VDB     -0.043200
     14 C14         7.4020    1.6150    6.4200 c3        1 VDB     -0.042500
     15 C13         7.0430    0.6500    5.2460 c3        1 VDB     -0.011800
     16 C18         7.5620   -0.7640    5.4780 c3        1 VDB     -0.083100
     17 C12         7.6620    1.2400    3.9930 c3        1 VDB     -0.063400
     18 C11         9.1690    1.3640    4.1630 c3        1 VDB     -0.071400
     19 C9          9.6330    1.9960    5.4680 c3        1 VDB     -0.046200
     20 C8          8.8600    1.5760    6.6800 c2        1 VDB     -0.067400
     21 C7          9.3980    1.2640    7.8710 ce        1 VDB     -0.155000
     22 C6         10.8110    1.2790    8.1750 ce        1 VDB     -0.111000
     23 C5         11.4100    0.5620    9.1440 c2        1 VDB     -0.130400
     24 C10        12.8670    0.7170    9.4120 c3        1 VDB     -0.060200
     25 C1         13.5650   -0.6380    9.4110 c3        1 VDB      0.138100
     26 O1         14.9180   -0.4050    9.7700 oh        1 VDB     -0.591800
     27 C4         10.7060   -0.3850   10.0490 c3        1 VDB     -0.060200
     28 C3         11.3950   -1.7430   10.1660 c3        1 VDB      0.138100
     29 O2         11.1250   -2.5670    9.0470 oh        1 VDB     -0.591800
     30 C2         12.9000   -1.5920   10.4210 c3        1 VDB      0.075100
     31 O4         13.6040   -2.8230   10.2620 os        1 VDB     -0.441600
     32 C30        13.1190   -3.8780   11.0930 c3        1 VDB      0.086400
     33 C31        14.1760   -4.9770   11.0370 c3        1 VDB      0.128400
     34 O5         15.3800   -4.5760   11.6580 oh        1 VDB     -0.598800
     35 H29         3.3730   -0.3130   -2.3960 hc        1 VDB      0.037367
     36 H29A        3.2030   -1.3980   -0.9490 hc        1 VDB      0.037367
     37 H29B        1.9140   -0.1860   -1.3280 hc        1 VDB      0.037367
     38 H26         3.4380    1.6880   -0.8090 hc        1 VDB      0.054450
     39 H26A        4.8390    0.5570   -0.6540 hc        1 VDB      0.054450
     40 H27         1.4190   -0.2660    0.9520 hc        1 VDB      0.054450
     41 H27A        1.8560    0.6420    2.4590 hc        1 VDB      0.054450
     42 H28         1.9090    2.7970    1.0570 hc        1 VDB      0.037367
     43 H28A        0.2880    1.9970    1.1690 hc        1 VDB      0.037367
     44 H28B        1.2700    1.8390   -0.3430 hc        1 VDB      0.037367
     45 HO3         4.6570   -1.0270    1.0820 ho        1 VDB      0.396000
     46 H23         5.3850    1.2430    1.5910 h1        1 VDB      0.071700
     47 H23A        4.1190    2.5210    1.3470 h1        1 VDB      0.071700
     48 H20         5.2810   -0.3450    3.4710 h1        1 VDB      0.074700
     49 H21         2.8170   -0.1360    5.3310 hc        1 VDB      0.047700
     50 H21A        2.9540   -1.0170    3.7450 hc        1 VDB      0.047700
     51 H21B        3.8920   -1.5890    5.1930 hc        1 VDB      0.047700
     52 H16         4.1470    0.9080    7.0420 ha        1 VDB      0.142000
     53 H15         6.6430    0.4620    8.1470 hc        1 VDB      0.053700
     54 H15A        6.1160    2.1970    8.1160 hc        1 VDB      0.053700
     55 H14         7.1800    2.6680    6.0630 hc        1 VDB      0.065700
     56 H18         8.6660   -0.7600    5.6390 hc        1 VDB      0.039367
     57 H18A        7.3270   -1.4030    4.5920 hc        1 VDB      0.039367
     58 H18B        7.0780   -1.2120    6.3800 hc        1 VDB      0.039367
     59 H12         7.4440    0.5860    3.1080 hc        1 VDB      0.045200
     60 H12A        7.2110    2.2450    3.7870 hc        1 VDB      0.045200
     61 H11         9.5750    1.9770    3.3150 hc        1 VDB      0.040200
     62 H11A        9.6260    0.3420    4.0760 hc        1 VDB      0.040200
     63 H9         10.7230    1.7610    5.5960 hc        1 VDB      0.049200
     64 H9A         9.5400    3.1140    5.3840 hc        1 VDB      0.049200
     65 H7          8.7250    0.9910    8.7040 ha        1 VDB      0.127000
     66 H6         11.4260    1.9620    7.5600 ha        1 VDB      0.125000
     67 H10        13.3610    1.3730    8.6480 hc        1 VDB      0.065200
     68 H10A       13.0130    1.2050   10.4140 hc        1 VDB      0.065200
     69 H1         13.5260   -1.1040    8.3860 h1        1 VDB      0.059700
     70 HO1        15.3410   -1.2720    9.8240 ho        1 VDB      0.411000
     71 H4         10.6540    0.0750   11.0730 hc        1 VDB      0.065200
     72 H4A         9.6540   -0.5680    9.7000 hc        1 VDB      0.065200
     73 H3         10.9320   -2.3130   11.0250 h1        1 VDB      0.059700
     74 HO2        11.5290   -2.1490    8.2770 ho        1 VDB      0.411000
     75 H2         13.0590   -1.2090   11.4680 h1        1 VDB      0.059700
     76 H30        12.1430   -4.2480   10.6830 h1        1 VDB      0.049200
     77 H30A       12.9840   -3.5100   12.1430 h1        1 VDB      0.049200
     78 H31        14.3700   -5.2690    9.9700 h1        1 VDB      0.056200
     79 H31A       13.8270   -5.8680   11.6220 h1        1 VDB      0.056200
     80 HO5        15.6710   -3.7710   11.2110 ho        1 VDB      0.407000
@<TRIPOS>BOND
     1    1    2 1   
     2    1   35 1   
     3    1   36 1   
     4    1   37 1   
     5    2    3 1   
     6    2   38 1   
     7    2   39 1   
     8    3    4 1   
     9    3    6 1   
    10    3    7 1   
    11    4    5 1   
    12    4   40 1   
    13    4   41 1   
    14    5   42 1   
    15    5   43 1   
    16    5   44 1   
    17    6   45 1   
    18    7    8 1   
    19    7   46 1   
    20    7   47 1   
    21    8    9 1   
    22    9   10 1   
    23    9   11 1   
    24    9   48 1   
    25   10   49 1   
    26   10   50 1   
    27   10   51 1   
    28   11   12 2   
    29   11   15 1   
    30   12   13 1   
    31   12   52 1   
    32   13   14 1   
    33   13   53 1   
    34   13   54 1   
    35   14   15 1   
    36   14   20 1   
    37   14   55 1   
    38   15   16 1   
    39   15   17 1   
    40   16   56 1   
    41   16   57 1   
    42   16   58 1   
    43   17   18 1   
    44   17   59 1   
    45   17   60 1   
    46   18   19 1   
    47   18   61 1   
    48   18   62 1   
    49   19   20 1   
    50   19   63 1   
    51   19   64 1   
    52   20   21 2   
    53   21   22 1   
    54   21   65 1   
    55   22   23 2   
    56   22   66 1   
    57   23   24 1   
    58   23   27 1   
    59   24   25 1   
    60   24   67 1   
    61   24   68 1   
    62   25   26 1   
    63   25   30 1   
    64   25   69 1   
    65   26   70 1   
    66   27   28 1   
    67   27   71 1   
    68   27   72 1   
    69   28   29 1   
    70   28   30 1   
    71   28   73 1   
    72   29   74 1   
    73   30   31 1   
    74   30   75 1   
    75   31   32 1   
    76   32   33 1   
    77   32   76 1   
    78   32   77 1   
    79   33   34 1   
    80   33   78 1   
    81   33   79 1   
    82   34   80 1   
@<TRIPOS>SUBSTRUCTURE
     1 VDB         1 TEMP              0 ****  ****    0 ROOT
