@<TRIPOS>MOLECULE
VDL
   17    16     1     0     0
SMALL
bcc


@<TRIPOS>ATOM
      1 N           0.3570    1.9210    0.2540 n3        1 VDL     -0.885800
      2 CA          0.1880    0.4750    0.3130 c3        1 VDL     -0.012500
      3 CB          1.3450   -0.2880   -0.4020 c3        1 VDL      0.175500
      4 CG1         2.6810    0.1010    0.2330 c3        1 VDL     -0.078100
      5 C          -1.1830   -0.0150   -0.2550 c         1 VDL      0.881600
      6 OXT        -1.5640   -1.1800    0.0580 o         1 VDL     -0.845300
      7 O          -1.8490    0.7780   -0.9780 o         1 VDL     -0.845300
      8 NG2         1.1730   -1.7340   -0.4230 n3        1 VDL     -0.903800
      9 HN1         0.4580    2.1870   -0.7110 hn        1 VDL      0.330300
     10 HN2        -0.5050    2.3340    0.5670 hn        1 VDL      0.330300
     11 HA          0.2110    0.1910    1.4050 h1        1 VDL      0.042700
     12 HB          1.3620    0.0450   -1.4830 h1        1 VDL      0.041700
     13 HG11        3.5200   -0.4910   -0.2070 hc        1 VDL      0.022367
     14 HG12        2.8830    1.1830    0.0540 hc        1 VDL      0.022367
     15 HG13        2.6590   -0.0780    1.3340 hc        1 VDL      0.022367
     16 HG21        1.0770   -2.0650    0.5200 hn        1 VDL      0.352300
     17 HG22        0.3070   -1.9470   -0.8930 hn        1 VDL      0.352300
@<TRIPOS>BOND
     1    1    2 1   
     2    1    9 1   
     3    1   10 1   
     4    2    3 1   
     5    2    5 1   
     6    2   11 1   
     7    3    4 1   
     8    3    8 1   
     9    3   12 1   
    10    4   13 1   
    11    4   14 1   
    12    4   15 1   
    13    5    6 1   
    14    5    7 1   
    15    8   16 1   
    16    8   17 1   
@<TRIPOS>SUBSTRUCTURE
     1 VDL         1 TEMP              0 ****  ****    0 ROOT
