@<TRIPOS>MOLECULE
VDM
   49    50     1     0     0
SMALL
bcc


@<TRIPOS>ATOM
      1 O7          0.3350   -1.6130    0.1180 oh        1 VDM     -0.615800
      2 C7          1.4410   -0.7280    0.0100 c3        1 VDM      0.151600
      3 C5          1.8400   -0.3140    1.3950 c2        1 VDM     -0.035400
      4 C6          2.4860    0.8460    1.5910 c2        1 VDM     -0.264200
      5 C4          1.4430   -1.2440    2.5060 c3        1 VDM      0.141300
      6 O4          1.8050   -2.5860    2.2340 oh        1 VDM     -0.597800
      7 C3          2.1480   -0.9040    3.8320 c3        1 VDM      0.110100
      8 O3          1.4470   -1.4530    4.9310 oh        1 VDM     -0.598800
      9 C2          2.1460    0.6140    4.0570 c3        1 VDM      0.130100
     10 O2          2.7660    0.9460    5.2860 oh        1 VDM     -0.629800
     11 C1          2.9300    1.3310    2.9320 c3        1 VDM      0.184700
     12 N1'         4.4210    1.1530    3.1050 n4        1 VDM     -0.764000
     13 C1'         5.2300    2.2400    2.4570 c3        1 VDM      0.130500
     14 C2'         6.6640    1.7540    2.1410 c3        1 VDM      0.129100
     15 O2'         6.5390    0.5460    1.4110 oh        1 VDM     -0.626800
     16 C6'         5.3120    3.5130    3.2990 c3        1 VDM     -0.100400
     17 C5'         6.1240    3.3560    4.5730 c3        1 VDM     -0.118700
     18 C7'         6.2120    4.7260    5.2550 c3        1 VDM      0.133400
     19 O7'         6.6860    4.5000    6.5700 oh        1 VDM     -0.610800
     20 C4'         7.5240    2.8030    4.2870 c3        1 VDM      0.119100
     21 O4'         8.1790    2.3840    5.4700 oh        1 VDM     -0.605800
     22 C3'         7.4680    1.5270    3.4280 c3        1 VDM      0.109100
     23 O3'         8.7620    1.1490    2.9970 oh        1 VDM     -0.600800
     24 H7          0.0530   -1.8220   -0.7810 ho        1 VDM      0.436000
     25 H7C1        2.3070   -1.2620   -0.4740 h1        1 VDM      0.062200
     26 H7C2        1.1610    0.1670   -0.6100 h1        1 VDM      0.062200
     27 H6          2.6990    1.5280    0.7510 ha        1 VDM      0.154000
     28 H4          0.3220   -1.1610    2.6370 h1        1 VDM      0.098700
     29 H1          2.7270    2.4420    3.0270 hx        1 VDM      0.113700
     30 HA          1.1970   -2.9260    1.5610 ho        1 VDM      0.446000
     31 H3          3.1980   -1.3110    3.8200 h1        1 VDM      0.055700
     32 HB          1.3810   -2.4070    4.7780 ho        1 VDM      0.447000
     33 H2          1.0870    1.0020    4.0450 h1        1 VDM      0.100700
     34 HC          2.3180    0.4350    5.9800 ho        1 VDM      0.468000
     35 H1'         4.6290    1.1290    4.1140 hn        1 VDM      0.468800
     36 HD          4.7190    2.4710    1.4730 hx        1 VDM      0.113700
     37 H2'         7.1680    2.5370    1.5050 h1        1 VDM      0.096700
     38 H6'1        5.7890    4.2990    2.6490 hc        1 VDM      0.083200
     39 H6'2        4.2810    3.8770    3.5560 hc        1 VDM      0.083200
     40 HE          7.4380    0.2090    1.2660 ho        1 VDM      0.465000
     41 H3'         7.0240    0.6860    4.0330 h1        1 VDM      0.049700
     42 H5'         5.6100    2.6550    5.2910 hc        1 VDM      0.083700
     43 H7'1        6.9200    5.3980    4.6990 h1        1 VDM      0.040200
     44 H7'2        5.1970    5.2050    5.2890 h1        1 VDM      0.040200
     45 H4'         8.1460    3.5840    3.7630 h1        1 VDM      0.063700
     46 H7'         6.7080    5.3560    7.0170 ho        1 VDM      0.429000
     47 HF          8.2000    3.1300    6.0860 ho        1 VDM      0.449000
     48 HG          9.3250    1.1130    3.7850 ho        1 VDM      0.451000
     49 H1'2        4.7030    0.2540    2.6860 hn        1 VDM      0.468800
@<TRIPOS>BOND
     1    1    2 1   
     2    1   24 1   
     3    2    3 1   
     4    2   25 1   
     5    2   26 1   
     6    3    4 2   
     7    3    5 1   
     8    4   11 1   
     9    4   27 1   
    10    5    6 1   
    11    5    7 1   
    12    5   28 1   
    13    6   30 1   
    14    7    8 1   
    15    7    9 1   
    16    7   31 1   
    17    8   32 1   
    18    9   10 1   
    19    9   11 1   
    20    9   33 1   
    21   10   34 1   
    22   11   12 1   
    23   11   29 1   
    24   12   13 1   
    25   12   35 1   
    26   12   49 1   
    27   13   14 1   
    28   13   16 1   
    29   13   36 1   
    30   14   15 1   
    31   14   22 1   
    32   14   37 1   
    33   15   40 1   
    34   16   17 1   
    35   16   38 1   
    36   16   39 1   
    37   17   18 1   
    38   17   20 1   
    39   17   42 1   
    40   18   19 1   
    41   18   43 1   
    42   18   44 1   
    43   19   46 1   
    44   20   21 1   
    45   20   22 1   
    46   20   45 1   
    47   21   47 1   
    48   22   23 1   
    49   22   41 1   
    50   23   48 1   
@<TRIPOS>SUBSTRUCTURE
     1 VDM         1 TEMP              0 ****  ****    0 ROOT
