@<TRIPOS>MOLECULE
VDM
   49    50     1     0     0
SMALL
bcc


@<TRIPOS>ATOM
      1 O7          1.8170   -1.9740    0.0010 oh        1 VDM     -0.616800
      2 C7          1.2960   -0.6590    0.1500 c3        1 VDM      0.157600
      3 C5          1.8300   -0.1250    1.4400 c2        1 VDM     -0.082400
      4 C6          2.1730    1.1600    1.6090 c2        1 VDM     -0.217200
      5 C4          2.0220   -1.1320    2.5460 c3        1 VDM      0.136300
      6 O4          3.3750   -1.5790    2.5240 oh        1 VDM     -0.621800
      7 C3          1.7980   -0.5680    3.9640 c3        1 VDM      0.092100
      8 O3          0.5890   -1.0340    4.5220 oh        1 VDM     -0.565800
      9 C2          1.8360    0.9700    4.0450 c3        1 VDM      0.096100
     10 O2          2.3990    1.3840    5.2790 oh        1 VDM     -0.620800
     11 C1          2.7060    1.6080    2.9350 c3        1 VDM      0.178700
     12 N1'         4.1540    1.2190    3.1000 n4        1 VDM     -0.766000
     13 C1'         5.0990    2.1960    2.4630 c3        1 VDM      0.130500
     14 C2'         6.4540    1.5300    2.1290 c3        1 VDM      0.131100
     15 O2'         6.1700    0.3710    1.3660 oh        1 VDM     -0.620800
     16 C6'         5.3580    3.4330    3.3210 c3        1 VDM     -0.100400
     17 C5'         6.1430    3.1460    4.5890 c3        1 VDM     -0.117700
     18 C7'         6.4240    4.4800    5.2890 c3        1 VDM      0.133400
     19 O7'         6.8610    4.1710    6.6010 oh        1 VDM     -0.610800
     20 C4'         7.4510    2.4060    4.2910 c3        1 VDM      0.119100
     21 O4'         8.0380    1.8780    5.4670 oh        1 VDM     -0.605800
     22 C3'         7.2200    1.1670    3.4080 c3        1 VDM      0.108100
     23 O3'         8.4510    0.6260    2.9650 oh        1 VDM     -0.601800
     24 H7          1.4900   -2.3120   -0.8430 ho        1 VDM      0.436000
     25 H7C1        0.1720   -0.6940    0.1940 h1        1 VDM      0.059700
     26 H7C2        1.6130   -0.0170   -0.7160 h1        1 VDM      0.059700
     27 H6          2.0710    1.9250    0.8260 ha        1 VDM      0.167000
     28 H4          1.3290   -2.0090    2.3890 h1        1 VDM      0.103700
     29 H1          2.6470    2.7320    3.0400 hx        1 VDM      0.115700
     30 HA          3.4710   -2.1500    1.7460 ho        1 VDM      0.455000
     31 H3          2.5920   -0.9990    4.6480 h1        1 VDM      0.119700
     32 HB         -0.1290   -0.8390    3.9050 ho        1 VDM      0.413000
     33 H2          0.7950    1.3900    3.9400 h1        1 VDM      0.087700
     34 HC          1.8560    1.0020    5.9850 ho        1 VDM      0.455000
     35 H1'         4.3570    1.1530    4.1070 hn        1 VDM      0.478800
     36 HD          4.6190    2.5060    1.4850 hx        1 VDM      0.112700
     37 H2'         7.0580    2.2550    1.5130 h1        1 VDM      0.094700
     38 H6'1        5.9360    4.1560    2.6820 hc        1 VDM      0.081700
     39 H6'2        4.3870    3.9300    3.5890 hc        1 VDM      0.081700
     40 HE          7.0110   -0.0950    1.2340 ho        1 VDM      0.462000
     41 H3'         6.6670    0.3820    3.9980 h1        1 VDM      0.053700
     42 H5'         5.5370    2.5140    5.3000 hc        1 VDM      0.082700
     43 H7'1        5.4870    5.0980    5.3330 h1        1 VDM      0.039700
     44 H7'2        7.2190    5.0530    4.7420 h1        1 VDM      0.039700
     45 H4'         8.1780    3.1010    3.7820 h1        1 VDM      0.062700
     46 H7'         7.0130    5.0100    7.0560 ho        1 VDM      0.429000
     47 HF          8.1640    2.6040    6.0960 ho        1 VDM      0.447000
     48 HG          8.9990    0.4860    3.7530 ho        1 VDM      0.450000
     49 H1'2        4.3070    0.2850    2.6690 hn        1 VDM      0.478800
@<TRIPOS>BOND
     1    1    2 1   
     2    1   24 1   
     3    2    3 1   
     4    2   25 1   
     5    2   26 1   
     6    3    4 2   
     7    3    5 1   
     8    4   11 1   
     9    4   27 1   
    10    5    6 1   
    11    5    7 1   
    12    5   28 1   
    13    6   30 1   
    14    7    8 1   
    15    7    9 1   
    16    7   31 1   
    17    8   32 1   
    18    9   10 1   
    19    9   11 1   
    20    9   33 1   
    21   10   34 1   
    22   11   12 1   
    23   11   29 1   
    24   12   13 1   
    25   12   35 1   
    26   12   49 1   
    27   13   14 1   
    28   13   16 1   
    29   13   36 1   
    30   14   15 1   
    31   14   22 1   
    32   14   37 1   
    33   15   40 1   
    34   16   17 1   
    35   16   38 1   
    36   16   39 1   
    37   17   18 1   
    38   17   20 1   
    39   17   42 1   
    40   18   19 1   
    41   18   43 1   
    42   18   44 1   
    43   19   46 1   
    44   20   21 1   
    45   20   22 1   
    46   20   45 1   
    47   21   47 1   
    48   22   23 1   
    49   22   41 1   
    50   23   48 1   
@<TRIPOS>SUBSTRUCTURE
     1 VDM         1 TEMP              0 ****  ****    0 ROOT
