@<TRIPOS>MOLECULE
VDM
   48    48     1     0     0
SMALL
bcc


@<TRIPOS>ATOM
      1 O7         -3.6030   -2.3030   -3.5500 oh        1 VDM     -0.337000
      2 C7         -2.1920   -2.3030   -3.5500 c3        1 VDM      0.007000
      3 C5         -1.6790   -2.3030   -2.1040 c2        1 VDM     -0.134000
      4 C6         -1.6280   -0.8410   -1.2140 c1        1 VDM     -0.165000
      5 C4         -1.7150   -3.5370   -1.3140 c3        1 VDM      0.076000
      6 O4         -3.0330   -3.9460   -1.1050 oh        1 VDM     -0.338000
      7 C3         -0.8410   -3.3920    0.1760 c3        1 VDM      0.001000
      8 O3          0.6510   -3.3150   -0.1550 oh        1 VDM     -0.328000
      9 C2         -1.1170   -2.4490    0.8470 c3        1 VDM     -0.003000
     10 O2         -0.2160   -2.4680    2.0820 oh        1 VDM     -0.309000
     11 C1         -0.9440   -0.9000    0.0790 c2        1 VDM      0.028000
     12 N1'         0.4310   -0.5160   -0.0330 n3        1 VDM     -0.292000
     13 C1'         0.5760    0.9230    0.3220 c3        1 VDM     -0.038000
     14 C2'         1.3860    1.5640   -0.6840 c3        1 VDM      0.009000
     15 O2'         2.6610    0.7600   -0.8540 oh        1 VDM     -0.322000
     16 C6'         1.1630    1.0210    1.7490 c3        1 VDM     -0.151000
     17 C5'         1.4840    2.5190    2.2300 c3        1 VDM     -0.132000
     18 C7'         0.3400    3.2360    2.3800 c3        1 VDM     -0.026000
     19 O7'         0.1960    3.6160    3.7360 oh        1 VDM     -0.341000
     20 C4'         2.3790    3.1030    1.0090 c3        1 VDM     -0.002000
     21 O4'         3.5920    2.4700    1.0180 oh        1 VDM     -0.337000
     22 C3'         1.7470    2.9260   -0.3800 c3        1 VDM      0.002000
     23 O3'         0.5440    3.7520   -0.4510 oh        1 VDM     -0.326000
     24 H7         -3.8990   -2.3150   -4.3870 ho        1 VDM      0.206000
     25 H7C1       -1.8660   -3.1000   -4.0110 h1        1 VDM      0.075000
     26 H7C2       -1.8660   -1.5060   -4.0110 h1        1 VDM      0.075000
     27 H6         -2.2850   -0.1410   -1.3880 ha        1 VDM      0.132000
     28 H4         -1.3690   -4.2890   -1.8310 h1        1 VDM      0.105000
     29 H1         -1.2810   -0.1970    0.6660 h4        1 VDM      0.111000
     30 HA         -3.0930   -4.8230   -1.2260 ho        1 VDM      0.227000
     31 H3         -0.9980   -4.1980    0.7020 h1        1 VDM      0.096000
     32 HB          1.0040   -4.1290   -0.1200 ho        1 VDM      0.222000
     33 H2         -2.0430   -2.5430    1.1400 h1        1 VDM      0.097000
     34 HC         -0.6450   -2.8570    2.7550 ho        1 VDM      0.198000
     35 H1'         0.7150   -0.6480   -0.8890 hn        1 VDM      0.189000
     36 HD         -0.3080    1.3360    0.3200 h1        1 VDM      0.106000
     37 H2'         0.8970    1.5550   -1.5280 h1        1 VDM      0.121000
     38 H6'1        1.9900    0.5030    1.7790 hc        1 VDM      0.099000
     39 H6'2        0.5260    0.6250    2.3730 hc        1 VDM      0.099000
     40 HE          2.9560    0.8460   -1.6870 ho        1 VDM      0.219000
     41 H3'         2.3810    3.2380   -1.0530 h1        1 VDM      0.104000
     42 H5'         1.9980    2.5110    3.0600 hc        1 VDM      0.103000
     43 H7'1        0.3820    4.0350    1.8210 h1        1 VDM      0.079000
     44 H7'2       -0.4240    2.6910    2.1120 h1        1 VDM      0.079000
     45 H4'         2.5250    4.0550    1.1620 h1        1 VDM      0.092000
     46 H7'        -0.3590    4.3070    3.7920 ho        1 VDM      0.203000
     47 HF          4.2210    3.0390    1.2780 ho        1 VDM      0.211000
     48 HG          0.6560    4.3840   -1.0650 ho        1 VDM      0.207000
@<TRIPOS>BOND
     1    1    2 1   
     2    1   24 1   
     3    2    3 1   
     4    2   25 1   
     5    2   26 1   
     6    3    4 1   
     7    3    5 1   
     8    4   27 1   
     9    5    6 1   
    10    5    7 1   
    11    5   28 1   
    12    6   30 1   
    13    7    8 1   
    14    7    9 1   
    15    7   31 1   
    16    8   32 1   
    17    9   10 1   
    18    9   11 1   
    19    9   33 1   
    20   10   34 1   
    21   11   12 1   
    22   11   29 1   
    23   12   13 1   
    24   12   35 1   
    25   13   14 1   
    26   13   16 1   
    27   13   36 1   
    28   14   15 1   
    29   14   22 1   
    30   14   37 1   
    31   15   40 1   
    32   16   17 1   
    33   16   38 1   
    34   16   39 1   
    35   17   18 1   
    36   17   20 1   
    37   17   42 1   
    38   18   19 1   
    39   18   43 1   
    40   18   44 1   
    41   19   46 1   
    42   20   21 1   
    43   20   22 1   
    44   20   45 1   
    45   21   47 1   
    46   22   23 1   
    47   22   41 1   
    48   23   48 1   
@<TRIPOS>SUBSTRUCTURE
     1 VDM         1 TEMP              0 ****  ****    0 ROOT
