@<TRIPOS>MOLECULE
VDM
   48    49     1     0     0
SMALL
bcc


@<TRIPOS>ATOM
      1 O7          7.2970    1.6890   -2.5230 oh        1 VDM     -0.597800
      2 C7          6.2810    1.0710   -1.7630 c3        1 VDM      0.173600
      3 C5          5.0340    0.7940   -2.5480 c2        1 VDM     -0.187400
      4 C6          3.8240    0.9220   -1.9920 c2        1 VDM     -0.129200
      5 C4          5.2390    0.3970   -3.9770 c3        1 VDM      0.140300
      6 O4          6.3190   -0.5120   -4.1370 oh        1 VDM     -0.605800
      7 C3          3.9670   -0.1970   -4.6010 c3        1 VDM      0.082100
      8 O3          4.0490   -0.1820   -6.0190 oh        1 VDM     -0.611800
      9 C2          2.7560    0.6670   -4.2250 c3        1 VDM      0.147100
     10 O2          1.5760    0.2170   -4.8670 oh        1 VDM     -0.608800
     11 C1          2.5260    0.6190   -2.6930 c3        1 VDM      0.209700
     12 N1'         1.9780   -0.6590   -2.2360 n3        1 VDM     -0.820200
     13 C1'         1.1810   -0.5610   -1.0220 c3        1 VDM      0.142500
     14 C2'         1.1420   -1.9090   -0.2560 c3        1 VDM      0.125100
     15 O2'         2.4220   -2.3830    0.0870 oh        1 VDM     -0.581800
     16 C6'        -0.2700   -0.0930   -1.2130 c3        1 VDM     -0.105400
     17 C5'        -1.1400   -1.1150   -1.9240 c3        1 VDM     -0.138700
     18 C7'        -2.5700   -0.5810   -2.0290 c3        1 VDM      0.145400
     19 O7'        -3.3220   -1.2700   -3.0030 oh        1 VDM     -0.603800
     20 C4'        -1.1120   -2.4540   -1.1790 c3        1 VDM      0.111100
     21 O4'        -1.9330   -3.4150   -1.8180 oh        1 VDM     -0.594800
     22 C3'         0.3390   -2.9480   -1.0500 c3        1 VDM      0.075100
     23 O3'         0.3980   -4.2290   -0.4620 oh        1 VDM     -0.576800
     24 H7          7.5730    1.0650   -3.2080 ho        1 VDM      0.415000
     25 H7C1        6.6550    0.1010   -1.3320 h1        1 VDM      0.054200
     26 H7C2        6.0780    1.7950   -0.9260 h1        1 VDM      0.054200
     27 H6          3.7150    1.2500   -0.9450 ha        1 VDM      0.135000
     28 H4          5.5640    1.3040   -4.5720 h1        1 VDM      0.104700
     29 H1          1.8080    1.4690   -2.4600 h1        1 VDM      0.049700
     30 HA          6.1530   -1.2680   -3.5610 ho        1 VDM      0.410000
     31 H3          3.8180   -1.2570   -4.2540 h1        1 VDM      0.061700
     32 HB          4.8970   -0.5830   -6.2520 ho        1 VDM      0.425000
     33 H2          2.9550    1.7340   -4.5250 h1        1 VDM      0.058700
     34 HC          1.7890    0.1210   -5.8060 ho        1 VDM      0.434000
     35 H1'         1.4420   -1.0760   -2.9770 hn        1 VDM      0.381800
     36 HD          1.6980    0.1780   -0.3380 h1        1 VDM      0.069700
     37 H2'         0.6470   -1.7270    0.7420 h1        1 VDM      0.073700
     38 H6'1       -0.2820    0.8660   -1.7960 hc        1 VDM      0.054200
     39 H6'2       -0.7040    0.1230   -0.2010 hc        1 VDM      0.054200
     40 HE          2.8810   -2.6150   -0.7300 ho        1 VDM      0.417000
     41 H3'         0.7870   -3.1100   -2.0730 h1        1 VDM      0.082700
     42 H5'        -0.7610   -1.2810   -2.9710 hc        1 VDM      0.073700
     43 H7'1       -2.5600    0.4850   -2.3830 h1        1 VDM      0.044200
     44 H7'2       -3.0760   -0.6390   -1.0280 h1        1 VDM      0.044200
     45 H4'        -1.5750   -2.3400   -0.1570 h1        1 VDM      0.074700
     46 H7'        -3.4170   -2.1850   -2.7060 ho        1 VDM      0.418000
     47 HF         -1.4420   -3.7680   -2.5710 ho        1 VDM      0.412000
     48 HG          0.1520   -4.1370    0.4670 ho        1 VDM      0.407000
@<TRIPOS>BOND
     1    1    2 1   
     2    1   24 1   
     3    2    3 1   
     4    2   25 1   
     5    2   26 1   
     6    3    4 2   
     7    3    5 1   
     8    4   11 1   
     9    4   27 1   
    10    5    6 1   
    11    5    7 1   
    12    5   28 1   
    13    6   30 1   
    14    7    8 1   
    15    7    9 1   
    16    7   31 1   
    17    8   32 1   
    18    9   10 1   
    19    9   11 1   
    20    9   33 1   
    21   10   34 1   
    22   11   12 1   
    23   11   29 1   
    24   12   13 1   
    25   12   35 1   
    26   13   14 1   
    27   13   16 1   
    28   13   36 1   
    29   14   15 1   
    30   14   22 1   
    31   14   37 1   
    32   15   40 1   
    33   16   17 1   
    34   16   38 1   
    35   16   39 1   
    36   17   18 1   
    37   17   20 1   
    38   17   42 1   
    39   18   19 1   
    40   18   43 1   
    41   18   44 1   
    42   19   46 1   
    43   20   21 1   
    44   20   22 1   
    45   20   45 1   
    46   21   47 1   
    47   22   23 1   
    48   22   41 1   
    49   23   48 1   
@<TRIPOS>SUBSTRUCTURE
     1 VDM         1 TEMP              0 ****  ****    0 ROOT
