@<TRIPOS>MOLECULE
VDM
   49    50     1     0     0
SMALL
bcc


@<TRIPOS>ATOM
      1 O7          0.3160   -1.5530    0.0780 oh        1 VDM     -0.615800
      2 C7          1.4440   -0.6960   -0.0140 c3        1 VDM      0.151600
      3 C5          1.8280   -0.2840    1.3760 c2        1 VDM     -0.035400
      4 C6          2.4970    0.8620    1.5790 c2        1 VDM     -0.264200
      5 C4          1.3890   -1.2000    2.4840 c3        1 VDM      0.141300
      6 O4          1.7250   -2.5510    2.2250 oh        1 VDM     -0.597800
      7 C3          2.0780   -0.8700    3.8210 c3        1 VDM      0.110100
      8 O3          1.3450   -1.3970    4.9100 oh        1 VDM     -0.598800
      9 C2          2.1080    0.6490    4.0390 c3        1 VDM      0.130100
     10 O2          2.7130    0.9730    5.2780 oh        1 VDM     -0.629800
     11 C1          2.9290    1.3430    2.9250 c3        1 VDM      0.184700
     12 N1'         4.4120    1.1300    3.1260 ny        1 VDM     -0.764000
     13 C1'         5.2570    2.1950    2.4880 c3        1 VDM      0.130500
     14 C2'         6.6850    1.6740    2.1990 c3        1 VDM      0.129100
     15 O2'         6.5450    0.4650    1.4730 oh        1 VDM     -0.626800
     16 C6'         5.3550    3.4700    3.3240 c3        1 VDM     -0.100400
     17 C5'         6.1390    3.2990    4.6140 c3        1 VDM     -0.118700
     18 C7'         6.2480    4.6700    5.2910 c3        1 VDM      0.133400
     19 O7'         6.6930    4.4400    6.6160 oh        1 VDM     -0.610800
     20 C4'         7.5310    2.7130    4.3550 c3        1 VDM      0.119100
     21 O4'         8.1550    2.2840    5.5520 oh        1 VDM     -0.605800
     22 C3'         7.4600    1.4340    3.5010 c3        1 VDM      0.109100
     23 O3'         8.7530    1.0240    3.0950 oh        1 VDM     -0.600800
     24 H7          0.0450   -1.7600   -0.8250 ho        1 VDM      0.436000
     25 H7C1        1.1960    0.2020   -0.6430 h1        1 VDM      0.062200
     26 H7C2        2.3060   -1.2520   -0.4790 h1        1 VDM      0.062200
     27 H6          2.7410    1.5340    0.7400 ha        1 VDM      0.154000
     28 H4          0.2690   -1.0890    2.5950 h1        1 VDM      0.098700
     29 H1          2.7510    2.4580    3.0130 hx        1 VDM      0.113700
     30 HA          1.1210   -2.8790    1.5420 ho        1 VDM      0.446000
     31 H3          3.1180   -1.3010    3.8290 h1        1 VDM      0.055700
     32 HB          1.2600   -2.3500    4.7590 ho        1 VDM      0.447000
     33 H2          1.0590    1.0610    4.0070 h1        1 VDM      0.100700
     34 HC          2.2420    0.4750    5.9650 ho        1 VDM      0.468000
     35 H1'         4.6800    0.2230    2.7160 hn        1 VDM      0.468800
     36 HD          4.7700    2.4320    1.4930 hx        1 VDM      0.113700
     37 H2'         7.2180    2.4410    1.5690 h1        1 VDM      0.096700
     38 H6'1        5.8610    4.2410    2.6800 hc        1 VDM      0.083200
     39 H6'2        4.3280    3.8580    3.5620 hc        1 VDM      0.083200
     40 HE          7.4370    0.1060    1.3450 ho        1 VDM      0.465000
     41 H3'         6.9860    0.6070    4.1020 h1        1 VDM      0.049700
     42 H5'         5.5970    2.6150    5.3260 hc        1 VDM      0.083700
     43 H7'1        6.9810    5.3230    4.7450 h1        1 VDM      0.040200
     44 H7'2        5.2440    5.1740    5.3050 h1        1 VDM      0.040200
     45 H4'         8.1810    3.4760    3.8390 h1        1 VDM      0.063700
     46 H7'         6.7270    5.2970    7.0590 ho        1 VDM      0.429000
     47 HF          8.1830    3.0330    6.1650 ho        1 VDM      0.449000
     48 HG          9.3010    0.9780    3.8930 ho        1 VDM      0.451000
     49 H1'2        4.6010    1.1060    4.1390 hn        1 VDM      0.468800
@<TRIPOS>BOND
     1    1    2 1   
     2    1   24 1   
     3    2    3 1   
     4    2   25 1   
     5    2   26 1   
     6    3    4 2   
     7    3    5 1   
     8    4   11 1   
     9    4   27 1   
    10    5    6 1   
    11    5    7 1   
    12    5   28 1   
    13    6   30 1   
    14    7    8 1   
    15    7    9 1   
    16    7   31 1   
    17    8   32 1   
    18    9   10 1   
    19    9   11 1   
    20    9   33 1   
    21   10   34 1   
    22   11   12 1   
    23   11   29 1   
    24   12   13 1   
    25   12   35 1   
    26   12   49 1   
    27   13   14 1   
    28   13   16 1   
    29   13   36 1   
    30   14   15 1   
    31   14   22 1   
    32   14   37 1   
    33   15   40 1   
    34   16   17 1   
    35   16   38 1   
    36   16   39 1   
    37   17   18 1   
    38   17   20 1   
    39   17   42 1   
    40   18   19 1   
    41   18   43 1   
    42   18   44 1   
    43   19   46 1   
    44   20   21 1   
    45   20   22 1   
    46   20   45 1   
    47   21   47 1   
    48   22   23 1   
    49   22   41 1   
    50   23   48 1   
@<TRIPOS>SUBSTRUCTURE
     1 VDM         1 TEMP              0 ****  ****    0 ROOT
