@<TRIPOS>MOLECULE
VDN
   66    69     1     0     0
SMALL
bcc


@<TRIPOS>ATOM
      1 C1          0.1590    0.5130    0.7050 c3        1 VDN     -0.104100
      2 C2          1.6050    0.5300    0.2720 c3        1 VDN      0.129400
      3 O3          2.3750    0.4250    1.4850 os        1 VDN     -0.318900
      4 C4          3.7260    0.2740    1.3420 ca        1 VDN      0.231100
      5 C5          4.4220    0.4350    0.1310 ca        1 VDN     -0.241000
      6 C6          5.8040    0.3110    0.1160 ca        1 VDN      0.040000
      7 C7          6.5280    0.0290    1.2820 ca        1 VDN     -0.418500
      8 C8          5.8280   -0.1330    2.4830 ca        1 VDN      0.055000
      9 C9          4.4420   -0.0190    2.5260 ca        1 VDN     -0.220900
     10 S10         8.2170   -0.0690    1.2470 sy        1 VDN      1.514200
     11 O11         8.6640    0.6220    0.0970 o         1 VDN     -0.653800
     12 O12         8.6980    0.3870    2.4950 o         1 VDN     -0.653800
     13 C13        11.3450   -6.0140    1.8530 c3        1 VDN     -0.096100
     14 N14         8.5080   -1.6560    1.0880 n3        1 VDN     -0.819500
     15 C15         8.6190   -2.5500    2.2120 c3        1 VDN      0.222300
     16 C16         9.8700   -3.4530    2.1580 c3        1 VDN      0.156800
     17 N17        10.0390   -4.1180    0.8740 n3        1 VDN     -0.728600
     18 C18         9.9460   -3.1930   -0.2480 c3        1 VDN      0.156800
     19 C19         8.6890   -2.2990   -0.1890 c3        1 VDN      0.222300
     20 C20        11.2540   -4.9200    0.8030 c3        1 VDN      0.169800
     21 C21         3.7130   -0.2460    3.8020 cc        1 VDN      0.680800
     22 N22         2.9810   -1.3120    3.9660 nd        1 VDN     -0.632100
     23 C23         2.2590   -1.4880    5.1950 c         1 VDN      0.740100
     24 C24         2.4330   -0.4460    6.2160 cc        1 VDN     -0.334200
     25 N25         3.2350    0.6980    5.9230 na        1 VDN     -0.059700
     26 N26         4.0110    0.7720    4.8020 na        1 VDN     -0.620500
     27 O27         1.5380   -2.4790    5.3610 o         1 VDN     -0.503100
     28 C28         1.9810   -0.2670    7.5400 cd        1 VDN      0.421600
     29 N29         2.5060    0.9160    8.0610 nd        1 VDN     -0.676000
     30 C30         3.2840    1.4780    7.1010 cc        1 VDN      0.465800
     31 C31         1.0860   -1.1730    8.2830 c3        1 VDN     -0.137400
     32 C32         4.0530    2.7510    7.2140 c3        1 VDN     -0.109700
     33 C33         5.5270    2.4820    7.4570 c3        1 VDN     -0.084400
     34 C34         6.2920    3.7730    7.5960 c3        1 VDN     -0.095100
     35 H11        -0.0600    1.3750    1.3800 hc        1 VDN      0.056700
     36 H12        -0.4910    0.5820   -0.2000 hc        1 VDN      0.056700
     37 H13        -0.0730   -0.4310    1.2540 hc        1 VDN      0.056700
     38 H21         1.8440   -0.3380   -0.3960 h1        1 VDN      0.047200
     39 H22         1.8710    1.4920   -0.2410 h1        1 VDN      0.047200
     40 H5          3.8820    0.6610   -0.7990 ha        1 VDN      0.152000
     41 H6          6.3530    0.4560   -0.8340 ha        1 VDN      0.161000
     42 H8          6.3870   -0.3440    3.4140 ha        1 VDN      0.167000
     43 H131       12.2070   -6.6780    1.6020 hc        1 VDN      0.040700
     44 H132       10.4150   -6.6310    1.8790 hc        1 VDN      0.040700
     45 H133       11.5150   -5.5840    2.8690 hc        1 VDN      0.040700
     46 H151        7.7030   -3.2090    2.2540 h1        1 VDN      0.058950
     47 H152        8.6730   -1.9460    3.1630 h1        1 VDN      0.058950
     48 H161       10.7750   -2.8370    2.4330 h1        1 VDN      0.042200
     49 H162        9.7410   -4.2510    2.9420 h1        1 VDN      0.042200
     50 H181       10.8580   -2.5320   -0.3240 h1        1 VDN      0.042200
     51 H182        9.8820   -3.8040   -1.1920 h1        1 VDN      0.042200
     52 H191        7.7850   -2.9350   -0.4150 h1        1 VDN      0.058950
     53 H192        8.7890   -1.5130   -0.9910 h1        1 VDN      0.058950
     54 H201       12.1800   -4.2730    0.8790 h1        1 VDN      0.031200
     55 H202       11.2650   -5.4030   -0.2160 h1        1 VDN      0.031200
     56 H26         3.9580    1.7060    4.4070 hn        1 VDN      0.414800
     57 H311        0.1370   -0.6460    8.5520 hc        1 VDN      0.064033
     58 H312        0.8430   -2.0640    7.6500 hc        1 VDN      0.064033
     59 H313        1.5770   -1.5180    9.2270 hc        1 VDN      0.064033
     60 H321        3.6340    3.3540    8.0650 hc        1 VDN      0.066700
     61 H322        3.9230    3.3550    6.2760 hc        1 VDN      0.066700
     62 H331        5.6430    1.8690    8.3890 hc        1 VDN      0.056200
     63 H332        5.9490    1.8810    6.6080 hc        1 VDN      0.056200
     64 H341        7.3730    3.5590    7.7730 hc        1 VDN      0.037033
     65 H342        6.2010    4.3900    6.6700 hc        1 VDN      0.037033
     66 H343        5.9040    4.3720    8.4560 hc        1 VDN      0.037033
@<TRIPOS>BOND
     1    1    2 1   
     2    1   35 1   
     3    1   36 1   
     4    1   37 1   
     5    2    3 1   
     6    2   38 1   
     7    2   39 1   
     8    3    4 1   
     9    4    5 ar  
    10    4    9 ar  
    11    5    6 ar  
    12    5   40 1   
    13    6    7 ar  
    14    6   41 1   
    15    7    8 ar  
    16    7   10 1   
    17    8    9 ar  
    18    8   42 1   
    19    9   21 1   
    20   10   11 2   
    21   10   12 2   
    22   10   14 1   
    23   13   20 1   
    24   13   43 1   
    25   13   44 1   
    26   13   45 1   
    27   14   15 1   
    28   14   19 1   
    29   15   16 1   
    30   15   46 1   
    31   15   47 1   
    32   16   17 1   
    33   16   48 1   
    34   16   49 1   
    35   17   18 1   
    36   17   20 1   
    37   18   19 1   
    38   18   50 1   
    39   18   51 1   
    40   19   52 1   
    41   19   53 1   
    42   20   54 1   
    43   20   55 1   
    44   21   22 2   
    45   21   26 1   
    46   22   23 1   
    47   23   24 1   
    48   23   27 2   
    49   24   25 1   
    50   24   28 2   
    51   25   26 1   
    52   25   30 1   
    53   26   56 1   
    54   28   29 1   
    55   28   31 1   
    56   29   30 2   
    57   30   32 1   
    58   31   57 1   
    59   31   58 1   
    60   31   59 1   
    61   32   33 1   
    62   32   60 1   
    63   32   61 1   
    64   33   34 1   
    65   33   62 1   
    66   33   63 1   
    67   34   64 1   
    68   34   65 1   
    69   34   66 1   
@<TRIPOS>SUBSTRUCTURE
     1 VDN         1 TEMP              0 ****  ****    0 ROOT
