@<TRIPOS>MOLECULE
VDN
   66    69     1     0     0
SMALL
bcc


@<TRIPOS>ATOM
      1 C1          0.1640    0.5110    0.7010 c3        1 VDN     -0.104100
      2 C2          1.6120    0.5280    0.2690 c3        1 VDN      0.129400
      3 O3          2.3800    0.4230    1.4840 os        1 VDN     -0.319900
      4 C4          3.7310    0.2720    1.3420 ca        1 VDN      0.231100
      5 C5          4.4280    0.4320    0.1320 ca        1 VDN     -0.241000
      6 C6          5.8110    0.3080    0.1190 ca        1 VDN      0.040000
      7 C7          6.5330    0.0270    1.2860 ca        1 VDN     -0.418500
      8 C8          5.8310   -0.1350    2.4860 ca        1 VDN      0.056000
      9 C9          4.4450   -0.0210    2.5270 ca        1 VDN     -0.220900
     10 S10         8.2220   -0.0710    1.2530 sy        1 VDN      1.514200
     11 O11         8.6700    0.6210    0.1040 o         1 VDN     -0.653800
     12 O12         8.7020    0.3830    2.5020 o         1 VDN     -0.653800
     13 C13        11.3480   -6.0180    1.8540 c3        1 VDN     -0.096100
     14 N14         8.5120   -1.6580    1.0920 n3        1 VDN     -0.819500
     15 C15         8.6230   -2.5540    2.2150 c3        1 VDN      0.222300
     16 C16         9.8730   -3.4580    2.1600 c3        1 VDN      0.156800
     17 N17        10.0430   -4.1200    0.8760 n3        1 VDN     -0.728600
     18 C18         9.9520   -3.1940   -0.2450 c3        1 VDN      0.156800
     19 C19         8.6950   -2.3000   -0.1850 c3        1 VDN      0.222300
     20 C20        11.2590   -4.9220    0.8050 c3        1 VDN      0.169800
     21 C21         3.7150   -0.2470    3.8020 cc        1 VDN      0.680800
     22 N22         2.9850   -1.3150    3.9660 nd        1 VDN     -0.632100
     23 C23         2.2610   -1.4910    5.1940 c         1 VDN      0.740100
     24 C24         2.4310   -0.4460    6.2140 cc        1 VDN     -0.334200
     25 N25         3.2300    0.6990    5.9210 na        1 VDN     -0.059700
     26 N26         4.0080    0.7730    4.8010 na        1 VDN     -0.620500
     27 O27         1.5420   -2.4830    5.3620 o         1 VDN     -0.503100
     28 C28         1.9750   -0.2660    7.5370 cd        1 VDN      0.421600
     29 N29         2.4950    0.9200    8.0570 nd        1 VDN     -0.676000
     30 C30         3.2740    1.4820    7.0970 cc        1 VDN      0.465800
     31 C31         1.0810   -1.1730    8.2790 c3        1 VDN     -0.137400
     32 C32         4.0400    2.7570    7.2090 c3        1 VDN     -0.109700
     33 C33         5.5130    2.4930    7.4550 c3        1 VDN     -0.084400
     34 C34         6.2740    3.7860    7.5940 c3        1 VDN     -0.095100
     35 H11        -0.0690   -0.4330    1.2500 hc        1 VDN      0.056700
     36 H12        -0.4840    0.5800   -0.2050 hc        1 VDN      0.056700
     37 H13        -0.0550    1.3730    1.3750 hc        1 VDN      0.056700
     38 H21         1.8770    1.4900   -0.2430 h1        1 VDN      0.047200
     39 H22         1.8510   -0.3410   -0.3980 h1        1 VDN      0.047200
     40 H5          3.8890    0.6580   -0.7990 ha        1 VDN      0.152000
     41 H6          6.3600    0.4530   -0.8300 ha        1 VDN      0.161000
     42 H8          6.3890   -0.3460    3.4170 ha        1 VDN      0.167000
     43 H131       10.4180   -6.6350    1.8780 hc        1 VDN      0.040700
     44 H132       11.5180   -5.5900    2.8710 hc        1 VDN      0.040700
     45 H133       12.2110   -6.6820    1.6030 hc        1 VDN      0.040700
     46 H151        8.6750   -1.9510    3.1670 h1        1 VDN      0.058950
     47 H152        7.7070   -3.2120    2.2550 h1        1 VDN      0.058950
     48 H161       10.7790   -2.8420    2.4380 h1        1 VDN      0.042200
     49 H162        9.7430   -4.2570    2.9430 h1        1 VDN      0.042200
     50 H181        9.8890   -3.8030   -1.1900 h1        1 VDN      0.042200
     51 H182       10.8640   -2.5330   -0.3190 h1        1 VDN      0.042200
     52 H191        8.7950   -1.5120   -0.9870 h1        1 VDN      0.058950
     53 H192        7.7910   -2.9350   -0.4140 h1        1 VDN      0.058950
     54 H201       11.2710   -5.4040   -0.2150 h1        1 VDN      0.031200
     55 H202       12.1840   -4.2760    0.8830 h1        1 VDN      0.031200
     56 H26         3.9540    1.7070    4.4040 hn        1 VDN      0.414800
     57 H311        1.5710   -1.5140    9.2260 hc        1 VDN      0.064033
     58 H312        0.8410   -2.0660    7.6480 hc        1 VDN      0.064033
     59 H313        0.1300   -0.6480    8.5460 hc        1 VDN      0.064033
     60 H321        3.9100    3.3590    6.2700 hc        1 VDN      0.066700
     61 H322        3.6180    3.3610    8.0580 hc        1 VDN      0.066700
     62 H331        5.9390    1.8920    6.6090 hc        1 VDN      0.056200
     63 H332        5.6300    1.8810    8.3890 hc        1 VDN      0.056200
     64 H341        7.3570    3.5760    7.7730 hc        1 VDN      0.037033
     65 H342        5.8840    4.3850    8.4520 hc        1 VDN      0.037033
     66 H343        6.1840    4.4010    6.6660 hc        1 VDN      0.037033
@<TRIPOS>BOND
     1    1    2 1   
     2    1   35 1   
     3    1   36 1   
     4    1   37 1   
     5    2    3 1   
     6    2   38 1   
     7    2   39 1   
     8    3    4 1   
     9    4    5 ar  
    10    4    9 ar  
    11    5    6 ar  
    12    5   40 1   
    13    6    7 ar  
    14    6   41 1   
    15    7    8 ar  
    16    7   10 1   
    17    8    9 ar  
    18    8   42 1   
    19    9   21 1   
    20   10   11 2   
    21   10   12 2   
    22   10   14 1   
    23   13   20 1   
    24   13   43 1   
    25   13   44 1   
    26   13   45 1   
    27   14   15 1   
    28   14   19 1   
    29   15   16 1   
    30   15   46 1   
    31   15   47 1   
    32   16   17 1   
    33   16   48 1   
    34   16   49 1   
    35   17   18 1   
    36   17   20 1   
    37   18   19 1   
    38   18   50 1   
    39   18   51 1   
    40   19   52 1   
    41   19   53 1   
    42   20   54 1   
    43   20   55 1   
    44   21   22 2   
    45   21   26 1   
    46   22   23 1   
    47   23   24 1   
    48   23   27 2   
    49   24   25 1   
    50   24   28 2   
    51   25   26 1   
    52   25   30 1   
    53   26   56 1   
    54   28   29 1   
    55   28   31 1   
    56   29   30 2   
    57   30   32 1   
    58   31   57 1   
    59   31   58 1   
    60   31   59 1   
    61   32   33 1   
    62   32   60 1   
    63   32   61 1   
    64   33   34 1   
    65   33   62 1   
    66   33   63 1   
    67   34   64 1   
    68   34   65 1   
    69   34   66 1   
@<TRIPOS>SUBSTRUCTURE
     1 VDN         1 TEMP              0 ****  ****    0 ROOT
