@<TRIPOS>MOLECULE
VDN
   66    69     1     0     0
SMALL
bcc


@<TRIPOS>ATOM
      1 C1         -5.0870    0.1840    2.9720 c3        1 VDN     -0.104100
      2 C2         -4.5620    0.6480    1.6340 c3        1 VDN      0.129400
      3 O3         -3.1330    0.4760    1.6970 os        1 VDN     -0.319900
      4 C4         -2.4380    0.6940    0.5400 ca        1 VDN      0.231100
      5 C5         -2.9820    1.2780   -0.6170 ca        1 VDN     -0.241000
      6 C6         -2.1650    1.5020   -1.7170 ca        1 VDN      0.040000
      7 C7         -0.8060    1.1620   -1.7040 ca        1 VDN     -0.418500
      8 C8         -0.2740    0.5780   -0.5480 ca        1 VDN      0.056000
      9 C9         -1.0700    0.3370    0.5670 ca        1 VDN     -0.220900
     10 S10         0.1800    1.4900   -3.0380 sy        1 VDN      1.514200
     11 O11        -0.4500    2.5020   -3.7990 o         1 VDN     -0.653800
     12 O12         1.4780    1.7670   -2.5550 o         1 VDN     -0.653800
     13 C13         2.3800   -3.4940   -7.0160 c3        1 VDN     -0.096100
     14 N14         0.1830    0.0960   -3.8670 n3        1 VDN     -0.819500
     15 C15         1.1230   -0.9660   -3.6120 c3        1 VDN      0.222300
     16 C16         1.8070   -1.5010   -4.8880 c3        1 VDN      0.156800
     17 N17         0.8650   -1.8090   -5.9540 n3        1 VDN     -0.728600
     18 C18        -0.0600   -0.7140   -6.2120 c3        1 VDN      0.156800
     19 C19        -0.7440   -0.1900   -4.9320 c3        1 VDN      0.222300
     20 C20         1.5180   -2.2540   -7.1800 c3        1 VDN      0.169800
     21 C21        -0.4960   -0.3310    1.7650 cc        1 VDN      0.680800
     22 N22        -0.8320   -1.5550    2.0650 nd        1 VDN     -0.632100
     23 C23        -0.2900   -2.1630    3.2470 c         1 VDN      0.740100
     24 C24         0.6540   -1.3530    4.0310 cc        1 VDN     -0.334200
     25 N25         0.9300   -0.0120    3.6300 na        1 VDN     -0.059700
     26 N26         0.5060    0.4900    2.4340 na        1 VDN     -0.620500
     27 O27        -0.6150   -3.3130    3.5650 o         1 VDN     -0.503100
     28 C28         1.4420   -1.5810    5.1780 cd        1 VDN      0.421600
     29 N29         2.2020   -0.4450    5.4600 nd        1 VDN     -0.676000
     30 C30         1.9180    0.4850    4.5120 cc        1 VDN      0.465800
     31 C31         1.4740   -2.8170    5.9800 c3        1 VDN     -0.137400
     32 C32         2.5010    1.8530    4.4070 c3        1 VDN     -0.109700
     33 C33         3.5760    1.9110    3.3380 c3        1 VDN     -0.084400
     34 C34         4.1790    3.2900    3.2580 c3        1 VDN     -0.095100
     35 H11        -6.1990    0.2860    2.9790 hc        1 VDN      0.056700
     36 H12        -4.8130   -0.8840    3.1500 hc        1 VDN      0.056700
     37 H13        -4.6570    0.8000    3.7980 hc        1 VDN      0.056700
     38 H21        -4.7860    1.7330    1.4570 h1        1 VDN      0.047200
     39 H22        -4.9740    0.0300    0.7950 h1        1 VDN      0.047200
     40 H5         -4.0430    1.5600   -0.6560 ha        1 VDN      0.152000
     41 H6         -2.5890    1.9790   -2.6210 ha        1 VDN      0.161000
     42 H8          0.8010    0.3150   -0.5180 ha        1 VDN      0.167000
     43 H131        2.6800   -3.8550   -8.0290 hc        1 VDN      0.040700
     44 H132        3.3060   -3.2670   -6.4340 hc        1 VDN      0.040700
     45 H133        1.8240   -4.3100   -6.4960 hc        1 VDN      0.040700
     46 H151        1.9310   -0.5880   -2.9210 h1        1 VDN      0.058950
     47 H152        0.5870   -1.8210   -3.1070 h1        1 VDN      0.058950
     48 H161        2.3330   -2.4570   -4.6100 h1        1 VDN      0.042200
     49 H162        2.5890   -0.7570   -5.2210 h1        1 VDN      0.042200
     50 H181       -0.8690   -1.1010   -6.8930 h1        1 VDN      0.042200
     51 H182        0.4460    0.1510   -6.7330 h1        1 VDN      0.042200
     52 H191       -1.4870   -0.9630   -4.5790 h1        1 VDN      0.058950
     53 H192       -1.3040    0.7520   -5.2020 h1        1 VDN      0.058950
     54 H201        0.6970   -2.4860   -7.9180 h1        1 VDN      0.031200
     55 H202        2.1530   -1.4330   -7.6300 h1        1 VDN      0.031200
     56 H26         0.1810    1.4450    2.5560 hn        1 VDN      0.414800
     57 H311        1.1290   -2.6120    7.0250 hc        1 VDN      0.064033
     58 H312        0.8020   -3.5840    5.5180 hc        1 VDN      0.064033
     59 H313        2.5150   -3.2240    6.0280 hc        1 VDN      0.064033
     60 H321        1.6890    2.5930    4.1750 hc        1 VDN      0.066700
     61 H322        2.9410    2.1370    5.4010 hc        1 VDN      0.066700
     62 H331        4.3760    1.1610    3.5750 hc        1 VDN      0.056200
     63 H332        3.1400    1.6310    2.3430 hc        1 VDN      0.056200
     64 H341        4.9670    3.3180    2.4660 hc        1 VDN      0.037033
     65 H342        3.4000    4.0500    3.0050 hc        1 VDN      0.037033
     66 H343        4.6460    3.5760    4.2310 hc        1 VDN      0.037033
@<TRIPOS>BOND
     1    1    2 1   
     2    1   35 1   
     3    1   36 1   
     4    1   37 1   
     5    2    3 1   
     6    2   38 1   
     7    2   39 1   
     8    3    4 1   
     9    4    5 ar  
    10    4    9 ar  
    11    5    6 ar  
    12    5   40 1   
    13    6    7 ar  
    14    6   41 1   
    15    7    8 ar  
    16    7   10 1   
    17    8    9 ar  
    18    8   42 1   
    19    9   21 1   
    20   10   11 2   
    21   10   12 2   
    22   10   14 1   
    23   13   20 1   
    24   13   43 1   
    25   13   44 1   
    26   13   45 1   
    27   14   15 1   
    28   14   19 1   
    29   15   16 1   
    30   15   46 1   
    31   15   47 1   
    32   16   17 1   
    33   16   48 1   
    34   16   49 1   
    35   17   18 1   
    36   17   20 1   
    37   18   19 1   
    38   18   50 1   
    39   18   51 1   
    40   19   52 1   
    41   19   53 1   
    42   20   54 1   
    43   20   55 1   
    44   21   22 2   
    45   21   26 1   
    46   22   23 1   
    47   23   24 1   
    48   23   27 2   
    49   24   25 1   
    50   24   28 2   
    51   25   26 1   
    52   25   30 1   
    53   26   56 1   
    54   28   29 1   
    55   28   31 1   
    56   29   30 2   
    57   30   32 1   
    58   31   57 1   
    59   31   58 1   
    60   31   59 1   
    61   32   33 1   
    62   32   60 1   
    63   32   61 1   
    64   33   34 1   
    65   33   62 1   
    66   33   63 1   
    67   34   64 1   
    68   34   65 1   
    69   34   66 1   
@<TRIPOS>SUBSTRUCTURE
     1 VDN         1 TEMP              0 ****  ****    0 ROOT
