@<TRIPOS>MOLECULE
VDO
   52    53     1     0     0
SMALL
bcc


@<TRIPOS>ATOM
      1 OAY         3.1180   -0.8410   -2.3380 o         1 VDO     -0.822500
      2 PBA         3.9620    0.1020   -1.5770 p5        1 VDO      1.429800
      3 OAZ         4.8100   -0.1400   -0.4030 o         1 VDO     -0.822500
      4 OAX         4.8290    0.7850   -2.8000 oh        1 VDO     -0.805400
      5 OAW         3.0030    1.4140   -1.2280 os        1 VDO     -0.579200
      6 CAG         2.1610    1.8510   -2.2470 c3        1 VDO      0.187400
      7 CAF         2.5060    3.3060   -2.6040 c3        1 VDO     -0.125700
      8 CAV         2.2930    3.5660   -4.0820 c3        1 VDO     -0.072400
      9 CAE         1.6780    4.2790   -1.7670 c3        1 VDO      0.133100
     10 OAU         1.9150    4.1570   -0.3730 oh        1 VDO     -0.639800
     11 CAC         2.0170    5.7320   -2.1430 c3        1 VDO      0.101100
     12 OAP         1.1540    6.6460   -1.4740 oh        1 VDO     -0.633800
     13 CAB         1.8040    5.9590   -3.6460 c3        1 VDO      0.148100
     14 OAO         2.1170    7.2900   -4.0250 oh        1 VDO     -0.616800
     15 CAA         2.6920    4.9970   -4.4780 c3        1 VDO      0.191500
     16 NAN         4.1060    5.2810   -4.2810 n7        1 VDO     -0.839200
     17 CAM         5.0300    4.4810   -5.0700 c3        1 VDO      0.187700
     18 CAL         5.9040    5.2560   -6.0140 c2        1 VDO     -0.171200
     19 CAJ         5.9210    3.6060   -4.1310 c3        1 VDO      0.111100
     20 OAT         6.5970    4.3990   -3.1670 oh        1 VDO     -0.603800
     21 CAI         7.0260    2.8510   -4.8910 c3        1 VDO      0.116100
     22 OAS         6.8530    1.4460   -4.8020 oh        1 VDO     -0.639800
     23 CAH         7.0620    3.1510   -6.4060 c3        1 VDO      0.184300
     24 OAR         8.2900    2.7000   -6.9630 oh        1 VDO     -0.613800
     25 CAK         6.8980    4.6200   -6.6540 c2        1 VDO     -0.159400
     26 CAD         7.8350    5.2680   -7.6120 c3        1 VDO      0.177600
     27 OAQ         7.7570    6.6830   -7.6150 oh        1 VDO     -0.610800
     28 HAG1        2.2640    1.1860   -3.1500 h1        1 VDO      0.032700
     29 HAG2        1.0960    1.8000   -1.8800 h1        1 VDO      0.032700
     30 HAF         3.5930    3.4740   -2.3510 hc        1 VDO      0.089700
     31 HAV1        1.2130    3.4210   -4.3450 hc        1 VDO      0.049200
     32 HAV2        2.8880    2.8210   -4.6730 hc        1 VDO      0.049200
     33 HAE         0.5760    4.1030   -1.9320 h1        1 VDO      0.041700
     34 HAA         2.4010    5.1440   -5.5640 h1        1 VDO      0.023700
     35 HAU         2.3700    3.3140   -0.2160 ho        1 VDO      0.457000
     36 HAC         3.0790    5.9650   -1.8540 h1        1 VDO      0.067700
     37 HAP         1.1270    6.3660   -0.5500 ho        1 VDO      0.428000
     38 HAB         0.7250    5.7600   -3.9040 h1        1 VDO      0.043700
     39 HAO         1.7550    7.8650   -3.3380 ho        1 VDO      0.421000
     40 HAN         4.5670    0.4330   -3.6460 ho        1 VDO      0.431000
     41 HAM         4.4530    3.7390   -5.7100 h1        1 VDO      0.056700
     42 HAL         5.7080    6.3270   -6.1670 ha        1 VDO      0.136000
     43 HAJ         5.2510    2.8560   -3.6100 h1        1 VDO      0.098700
     44 HAT         5.9340    4.6720   -2.5200 ho        1 VDO      0.418000
     45 HAI         8.0250    3.1240   -4.4420 h1        1 VDO      0.067700
     46 HAS         6.6330    1.2290   -3.8810 ho        1 VDO      0.457000
     47 HAH         6.2160    2.5930   -6.9060 h1        1 VDO      0.054700
     48 HAR         8.4100    1.7970   -6.6400 ho        1 VDO      0.422000
     49 HAD1        7.5810    4.9680   -8.6660 h1        1 VDO      0.062200
     50 HAD2        8.8890    4.9460   -7.3830 h1        1 VDO      0.062200
     51 HAQ         7.9080    6.9770   -6.7080 ho        1 VDO      0.400000
     52 HAN2        4.2750    6.2630   -4.3860 hn        1 VDO      0.385800
@<TRIPOS>BOND
     1    1    2 1   
     2    2    3 1   
     3    2    4 1   
     4    2    5 1   
     5    4   40 1   
     6    5    6 1   
     7    6    7 1   
     8    6   28 1   
     9    6   29 1   
    10    7    8 1   
    11    7    9 1   
    12    7   30 1   
    13    8   15 1   
    14    8   31 1   
    15    8   32 1   
    16    9   10 1   
    17    9   11 1   
    18    9   33 1   
    19   10   35 1   
    20   11   12 1   
    21   11   13 1   
    22   11   36 1   
    23   12   37 1   
    24   13   14 1   
    25   13   15 1   
    26   13   38 1   
    27   14   39 1   
    28   15   16 1   
    29   15   34 1   
    30   16   17 1   
    31   16   52 1   
    32   17   18 1   
    33   17   19 1   
    34   17   41 1   
    35   18   25 2   
    36   18   42 1   
    37   19   20 1   
    38   19   21 1   
    39   19   43 1   
    40   20   44 1   
    41   21   22 1   
    42   21   23 1   
    43   21   45 1   
    44   22   46 1   
    45   23   24 1   
    46   23   25 1   
    47   23   47 1   
    48   24   48 1   
    49   25   26 1   
    50   26   27 1   
    51   26   49 1   
    52   26   50 1   
    53   27   51 1   
@<TRIPOS>SUBSTRUCTURE
     1 VDO         1 TEMP              0 ****  ****    0 ROOT
