@<TRIPOS>MOLECULE
VDO
   51    52     1     0     0
SMALL
bcc


@<TRIPOS>ATOM
      1 OAY         4.3680    2.6680   -0.3870 o         1 VDO     -0.918500
      2 PBA         5.2330    1.5380   -0.9130 p5        1 VDO      1.317900
      3 OAZ         5.9110    1.7660   -2.2270 o         1 VDO     -0.918500
      4 OAX         5.9780    0.7690    0.1400 o         1 VDO     -0.918500
      5 OAW         3.9150    0.4650   -1.3120 os        1 VDO     -0.563200
      6 CAG         3.3520   -0.1440   -0.2270 c3        1 VDO      0.240400
      7 CAF         1.8350    0.1630   -0.0860 c3        1 VDO     -0.142700
      8 CAV         1.3040   -0.6860    1.0570 c3        1 VDO     -0.068400
      9 CAE         1.6050    1.6550    0.1550 c3        1 VDO      0.159100
     10 OAU         1.7650    2.4080   -1.0260 oh        1 VDO     -0.686800
     11 CAC         0.1560    1.9530    0.5960 c3        1 VDO      0.099100
     12 OAP         0.0050    3.3150    0.9820 oh        1 VDO     -0.655800
     13 CAB        -0.2440    1.0910    1.7940 c3        1 VDO      0.100100
     14 OAO        -1.5630    1.3860    2.2410 oh        1 VDO     -0.644800
     15 CAA        -0.1640   -0.4100    1.4260 c3        1 VDO      0.186500
     16 NAN        -1.0620   -0.8870    0.3870 n3        1 VDO     -0.832200
     17 CAM        -2.4860   -0.8300    0.6780 c3        1 VDO      0.178700
     18 CAL        -3.2280    0.2750   -0.0190 c2        1 VDO     -0.134200
     19 CAJ        -3.1390   -2.2150    0.4130 c3        1 VDO      0.119100
     20 OAT        -2.8450   -2.7620   -0.8640 oh        1 VDO     -0.625800
     21 CAI        -4.6730   -2.1340    0.4820 c3        1 VDO      0.109100
     22 OAS        -5.1090   -1.8580    1.8000 oh        1 VDO     -0.599800
     23 CAH        -5.2450   -1.1130   -0.5170 c3        1 VDO      0.166300
     24 OAR        -5.3530   -1.6940   -1.8050 oh        1 VDO     -0.607800
     25 CAK        -4.4510    0.1610   -0.5460 c2        1 VDO     -0.231400
     26 CAD        -5.1670    1.2800   -1.2300 c3        1 VDO      0.177600
     27 OAQ        -4.4440    2.4900   -1.3210 oh        1 VDO     -0.603800
     28 HAG1        3.4240   -1.2710   -0.3370 h1        1 VDO     -0.008300
     29 HAG2        3.8730    0.1540    0.7280 h1        1 VDO     -0.008300
     30 HAF         1.3350   -0.1210   -1.0500 hc        1 VDO      0.041700
     31 HAV1        1.4260   -1.7700    0.7980 hc        1 VDO      0.043700
     32 HAV2        1.9190   -0.4880    1.9750 hc        1 VDO      0.043700
     33 HAE         2.3240    2.0230    0.9430 h1        1 VDO      0.079700
     34 HAA        -0.4190   -0.9930    2.3610 h1        1 VDO      0.037700
     35 HAU         2.7540    2.4660   -1.1750 ho        1 VDO      0.515000
     36 HAC        -0.5510    1.7800   -0.2640 h1        1 VDO      0.026700
     37 HAP         0.7230    3.8020    0.5500 ho        1 VDO      0.445000
     38 HAB         0.4670    1.2880    2.6470 h1        1 VDO      0.052700
     39 HAO        -1.6410    2.3490    2.2310 ho        1 VDO      0.417000
     40 HAN        -0.8490   -0.4490   -0.4900 hn        1 VDO      0.385800
     41 HAM        -2.6240   -0.6330    1.7910 h1        1 VDO      0.084700
     42 HAL        -2.6950    1.2470   -0.0170 ha        1 VDO      0.159000
     43 HAJ        -2.7770   -2.9300    1.2060 h1        1 VDO      0.048700
     44 HAT        -1.8840   -2.7520   -0.9670 ho        1 VDO      0.436000
     45 HAI        -5.1050   -3.1490    0.2480 h1        1 VDO      0.086700
     46 HAS        -4.7650   -0.9860    2.0370 ho        1 VDO      0.409000
     47 HAH        -6.3140   -0.8850   -0.2280 h1        1 VDO      0.069700
     48 HAR        -4.4610   -1.9570   -2.0750 ho        1 VDO      0.427000
     49 HAD1       -5.4650    0.9360   -2.2610 h1        1 VDO      0.045200
     50 HAD2       -6.0930    1.5550   -0.6530 h1        1 VDO      0.045200
     51 HAQ        -3.5840    2.2920   -1.7140 ho        1 VDO      0.413000
@<TRIPOS>BOND
     1    1    2 1   
     2    2    3 1   
     3    2    4 1   
     4    2    5 1   
     5    5    6 1   
     6    6    7 1   
     7    6   28 1   
     8    6   29 1   
     9    7    8 1   
    10    7    9 1   
    11    7   30 1   
    12    8   15 1   
    13    8   31 1   
    14    8   32 1   
    15    9   10 1   
    16    9   11 1   
    17    9   33 1   
    18   10   35 1   
    19   11   12 1   
    20   11   13 1   
    21   11   36 1   
    22   12   37 1   
    23   13   14 1   
    24   13   15 1   
    25   13   38 1   
    26   14   39 1   
    27   15   16 1   
    28   15   34 1   
    29   16   17 1   
    30   16   40 1   
    31   17   18 1   
    32   17   19 1   
    33   17   41 1   
    34   18   25 2   
    35   18   42 1   
    36   19   20 1   
    37   19   21 1   
    38   19   43 1   
    39   20   44 1   
    40   21   22 1   
    41   21   23 1   
    42   21   45 1   
    43   22   46 1   
    44   23   24 1   
    45   23   25 1   
    46   23   47 1   
    47   24   48 1   
    48   25   26 1   
    49   26   27 1   
    50   26   49 1   
    51   26   50 1   
    52   27   51 1   
@<TRIPOS>SUBSTRUCTURE
     1 VDO         1 TEMP              0 ****  ****    0 ROOT
