@<TRIPOS>MOLECULE
VDO
   52    53     1     0     0
SMALL
bcc


@<TRIPOS>ATOM
      1 OAY         3.2700   -0.7180   -2.5250 o         1 VDO     -0.820500
      2 PBA         3.9350    0.1540   -1.5420 p5        1 VDO      1.425800
      3 OAZ         4.5690   -0.1890   -0.2590 o         1 VDO     -0.820500
      4 OAX         5.0840    1.0350   -2.3220 oh        1 VDO     -0.803400
      5 OAW         2.9000    1.4220   -1.2470 os        1 VDO     -0.585200
      6 CAG         2.1350    1.8580   -2.3270 c3        1 VDO      0.179400
      7 CAF         2.4920    3.3160   -2.6590 c3        1 VDO     -0.124700
      8 CAV         2.2720    3.5910   -4.1340 c3        1 VDO     -0.074400
      9 CAE         1.6750    4.2870   -1.8110 c3        1 VDO      0.133100
     10 OAU         1.9210    4.1590   -0.4190 oh        1 VDO     -0.641800
     11 CAC         2.0230    5.7420   -2.1760 c3        1 VDO      0.103100
     12 OAP         1.1730    6.6570   -1.4940 oh        1 VDO     -0.634800
     13 CAB         1.8040    5.9840   -3.6750 c3        1 VDO      0.148100
     14 OAO         2.1270    7.3170   -4.0430 oh        1 VDO     -0.616800
     15 CAA         2.6760    5.0220   -4.5220 c3        1 VDO      0.189500
     16 NAN         4.0960    5.2940   -4.3420 n3        1 VDO     -0.838200
     17 CAM         4.9970    4.4830   -5.1480 c3        1 VDO      0.185700
     18 CAL         5.9540    5.2570   -6.0080 c2        1 VDO     -0.170200
     19 CAJ         5.7970    3.4970   -4.2390 c3        1 VDO      0.113100
     20 OAT         6.4980    4.1820   -3.2120 oh        1 VDO     -0.604800
     21 CAI         6.8680    2.7080   -5.0120 c3        1 VDO      0.118100
     22 OAS         6.5940    1.3160   -5.0300 oh        1 VDO     -0.639800
     23 CAH         6.9860    3.1080   -6.5000 c3        1 VDO      0.182300
     24 OAR         8.2040    2.6130   -7.0420 oh        1 VDO     -0.613800
     25 CAK         6.9280    4.5970   -6.6540 c2        1 VDO     -0.158400
     26 CAD         7.9430    5.2420   -7.5310 c3        1 VDO      0.176600
     27 OAQ         7.9590    6.6560   -7.4390 oh        1 VDO     -0.610800
     28 HAG1        1.0470    1.8020   -2.0380 h1        1 VDO      0.040700
     29 HAG2        2.3100    1.1960   -3.2220 h1        1 VDO      0.040700
     30 HAF         3.5810    3.4730   -2.4080 hc        1 VDO      0.084700
     31 HAV1        1.1890    3.4550   -4.3890 hc        1 VDO      0.051200
     32 HAV2        2.8570    2.8490   -4.7380 hc        1 VDO      0.051200
     33 HAE         0.5710    4.1200   -1.9740 h1        1 VDO      0.039700
     34 HAA         2.3740    5.1800   -5.6050 h1        1 VDO      0.023700
     35 HAU         2.2950    3.2780   -0.2590 ho        1 VDO      0.458000
     36 HAC         3.0890    5.9620   -1.8910 h1        1 VDO      0.066700
     37 HAP         1.1500    6.3690   -0.5710 ho        1 VDO      0.428000
     38 HAB         0.7210    5.7980   -3.9280 h1        1 VDO      0.043700
     39 HAO         1.7740    7.8880   -3.3490 ho        1 VDO      0.421000
     40 HAN         4.2700    6.2740   -4.4570 hn        1 VDO      0.384800
     41 HAM         4.4000    3.8190   -5.8540 h1        1 VDO      0.055700
     42 HAL         5.8340    6.3460   -6.0960 ha        1 VDO      0.136000
     43 HAJ         5.0630    2.7710   -3.7740 h1        1 VDO      0.096700
     44 HAT         5.8320    4.5090   -2.5930 ho        1 VDO      0.417000
     45 HAI         7.8670    2.8690   -4.5120 h1        1 VDO      0.066700
     46 HAS         6.2080    1.0660   -4.1740 ho        1 VDO      0.460000
     47 HAH         6.1270    2.6430   -7.0690 h1        1 VDO      0.055700
     48 HAR         8.2510    1.6830   -6.7780 ho        1 VDO      0.423000
     49 HAD1        7.7110    5.0310   -8.6120 h1        1 VDO      0.062200
     50 HAD2        8.9640    4.8340   -7.2900 h1        1 VDO      0.062200
     51 HAQ         8.0940    6.8780   -6.5100 ho        1 VDO      0.400000
     52 HAN2        5.7700    1.3230   -1.7300 ho        1 VDO      0.432000
@<TRIPOS>BOND
     1    1    2 1   
     2    2    3 1   
     3    2    4 1   
     4    2    5 1   
     5    4   52 1   
     6    5    6 1   
     7    6    7 1   
     8    6   28 1   
     9    6   29 1   
    10    7    8 1   
    11    7    9 1   
    12    7   30 1   
    13    8   15 1   
    14    8   31 1   
    15    8   32 1   
    16    9   10 1   
    17    9   11 1   
    18    9   33 1   
    19   10   35 1   
    20   11   12 1   
    21   11   13 1   
    22   11   36 1   
    23   12   37 1   
    24   13   14 1   
    25   13   15 1   
    26   13   38 1   
    27   14   39 1   
    28   15   16 1   
    29   15   34 1   
    30   16   17 1   
    31   16   40 1   
    32   17   18 1   
    33   17   19 1   
    34   17   41 1   
    35   18   25 2   
    36   18   42 1   
    37   19   20 1   
    38   19   21 1   
    39   19   43 1   
    40   20   44 1   
    41   21   22 1   
    42   21   23 1   
    43   21   45 1   
    44   22   46 1   
    45   23   24 1   
    46   23   25 1   
    47   23   47 1   
    48   24   48 1   
    49   25   26 1   
    50   26   27 1   
    51   26   49 1   
    52   26   50 1   
    53   27   51 1   
@<TRIPOS>SUBSTRUCTURE
     1 VDO         1 TEMP              0 ****  ****    0 ROOT
