@<TRIPOS>MOLECULE
VDO
   52    53     1     0     0
SMALL
bcc


@<TRIPOS>ATOM
      1 OAY         3.0860   -0.8360   -2.3460 o         1 VDO     -0.822500
      2 PBA         3.9330    0.1020   -1.5820 p5        1 VDO      1.429800
      3 OAZ         4.7750   -0.1450   -0.4050 o         1 VDO     -0.822500
      4 OAX         4.8070    0.7810   -2.8020 oh        1 VDO     -0.805400
      5 OAW         2.9800    1.4190   -1.2360 os        1 VDO     -0.579200
      6 CAG         2.1430    1.8610   -2.2570 c3        1 VDO      0.187400
      7 CAF         2.4980    3.3140   -2.6120 c3        1 VDO     -0.125700
      8 CAV         2.2920    3.5760   -4.0900 c3        1 VDO     -0.072400
      9 CAE         1.6730    4.2910   -1.7770 c3        1 VDO      0.133100
     10 OAU         1.9040    4.1680   -0.3830 oh        1 VDO     -0.639800
     11 CAC         2.0210    5.7430   -2.1520 c3        1 VDO      0.101100
     12 OAP         1.1610    6.6610   -1.4850 oh        1 VDO     -0.633800
     13 CAB         1.8140    5.9720   -3.6550 c3        1 VDO      0.148100
     14 OAO         2.1370    7.3020   -4.0320 oh        1 VDO     -0.616800
     15 CAA         2.7000    5.0050   -4.4850 c3        1 VDO      0.191500
     16 NAN         4.1150    5.2810   -4.2830 n3        1 VDO     -0.839200
     17 CAM         5.0370    4.4760   -5.0690 c3        1 VDO      0.187700
     18 CAL         5.9190    5.2470   -6.0100 c2        1 VDO     -0.171200
     19 CAJ         5.9200    3.5960   -4.1280 c3        1 VDO      0.111100
     20 OAT         6.5970    4.3840   -3.1610 oh        1 VDO     -0.603800
     21 CAI         7.0240    2.8350   -4.8840 c3        1 VDO      0.116100
     22 OAS         6.8420    1.4300   -4.7960 oh        1 VDO     -0.639800
     23 CAH         7.0660    3.1360   -6.3990 c3        1 VDO      0.184300
     24 OAR         8.2930    2.6770   -6.9520 oh        1 VDO     -0.613800
     25 CAK         6.9110    4.6050   -6.6470 c2        1 VDO     -0.159400
     26 CAD         7.8550    5.2480   -7.6010 c3        1 VDO      0.177600
     27 OAQ         7.7850    6.6640   -7.6040 oh        1 VDO     -0.610800
     28 HAG1        1.0770    1.8160   -1.8940 h1        1 VDO      0.032700
     29 HAG2        2.2460    1.1960   -3.1610 h1        1 VDO      0.032700
     30 HAF         3.5850    3.4760   -2.3560 hc        1 VDO      0.089700
     31 HAV1        2.8840    2.8280   -4.6800 hc        1 VDO      0.049200
     32 HAV2        1.2120    3.4370   -4.3570 hc        1 VDO      0.049200
     33 HAE         0.5700    4.1220   -1.9460 h1        1 VDO      0.041700
     34 HAA         2.4140    5.1540   -5.5720 h1        1 VDO      0.023700
     35 HAU         2.3540    3.3220   -0.2250 ho        1 VDO      0.457000
     36 HAC         3.0840    5.9700   -1.8590 h1        1 VDO      0.067700
     37 HAP         1.1300    6.3810   -0.5610 ho        1 VDO      0.428000
     38 HAB         0.7350    5.7790   -3.9170 h1        1 VDO      0.043700
     39 HAO         1.7760    7.8780   -3.3460 ho        1 VDO      0.421000
     40 HAN         4.2900    6.2620   -4.3870 hn        1 VDO      0.385800
     41 HAM         4.4580    3.7370   -5.7110 h1        1 VDO      0.056700
     42 HAL         5.7290    6.3190   -6.1630 ha        1 VDO      0.136000
     43 HAJ         5.2440    2.8500   -3.6090 h1        1 VDO      0.098700
     44 HAT         5.9340    4.6610   -2.5160 ho        1 VDO      0.418000
     45 HAI         8.0230    3.1020   -4.4320 h1        1 VDO      0.067700
     46 HAS         6.6180    1.2150   -3.8760 ho        1 VDO      0.457000
     47 HAH         6.2180    2.5820   -6.9020 h1        1 VDO      0.054700
     48 HAR         8.4070    1.7730   -6.6290 ho        1 VDO      0.422000
     49 HAD1        8.9060    4.9200   -7.3700 h1        1 VDO      0.062200
     50 HAD2        7.6030    4.9500   -8.6560 h1        1 VDO      0.062200
     51 HAQ         7.9350    6.9570   -6.6970 ho        1 VDO      0.400000
     52 HAN2        4.5460    0.4300   -3.6490 ho        1 VDO      0.431000
@<TRIPOS>BOND
     1    1    2 1   
     2    2    3 1   
     3    2    4 1   
     4    2    5 1   
     5    4   52 1   
     6    5    6 1   
     7    6    7 1   
     8    6   28 1   
     9    6   29 1   
    10    7    8 1   
    11    7    9 1   
    12    7   30 1   
    13    8   15 1   
    14    8   31 1   
    15    8   32 1   
    16    9   10 1   
    17    9   11 1   
    18    9   33 1   
    19   10   35 1   
    20   11   12 1   
    21   11   13 1   
    22   11   36 1   
    23   12   37 1   
    24   13   14 1   
    25   13   15 1   
    26   13   38 1   
    27   14   39 1   
    28   15   16 1   
    29   15   34 1   
    30   16   17 1   
    31   16   40 1   
    32   17   18 1   
    33   17   19 1   
    34   17   41 1   
    35   18   25 2   
    36   18   42 1   
    37   19   20 1   
    38   19   21 1   
    39   19   43 1   
    40   20   44 1   
    41   21   22 1   
    42   21   23 1   
    43   21   45 1   
    44   22   46 1   
    45   23   24 1   
    46   23   25 1   
    47   23   47 1   
    48   24   48 1   
    49   25   26 1   
    50   26   27 1   
    51   26   49 1   
    52   26   50 1   
    53   27   51 1   
@<TRIPOS>SUBSTRUCTURE
     1 VDO         1 TEMP              0 ****  ****    0 ROOT
