@<TRIPOS>MOLECULE
VDX
   74    76     1     0     0
SMALL
bcc


@<TRIPOS>ATOM
      1 O2         -0.3110    0.4360    0.4630 oh        1 VDX     -0.599800
      2 O3         13.8630   -4.6120   -2.6780 oh        1 VDX     -0.597800
      3 C1          3.0430    1.7280   -0.6770 c3        1 VDX      0.186300
      4 C2          1.5370    1.7300   -0.4350 c3        1 VDX     -0.146400
      5 C3          1.0790    0.4050    0.1620 c3        1 VDX      0.146100
      6 C4          1.7990    0.1290    1.4800 c3        1 VDX     -0.035200
      7 C5          3.2790    0.1600    1.2940 ce        1 VDX     -0.074200
      8 C6          4.0470   -0.8240    1.8080 cf        1 VDX     -0.108000
      9 C7          5.4810   -0.9180    1.6630 cf        1 VDX     -0.150000
     10 C8          6.3100   -1.5900    2.4790 c2        1 VDX     -0.081400
     11 C9          5.8970   -2.2780    3.7410 c3        1 VDX     -0.044200
     12 C10         3.8040    1.3080    0.5570 ce        1 VDX     -0.069200
     13 C11         6.4970   -3.6640    3.9050 c3        1 VDX     -0.073400
     14 C12         7.9800   -3.7420    3.5850 c3        1 VDX     -0.066400
     15 C13         8.2700   -3.1350    2.2210 c3        1 VDX     -0.040000
     16 C14         7.7800   -1.6600    2.2720 c3        1 VDX     -0.036500
     17 C15         8.4320   -1.0160    1.0570 c3        1 VDX     -0.074400
     18 C16         9.7780   -1.7310    0.9230 c3        1 VDX     -0.079400
     19 C17         9.7660   -2.9440    1.8770 c3        1 VDX     -0.053700
     20 C18         7.5590   -3.9090    1.1240 c3        1 VDX     -0.083100
     21 C19         4.8890    1.9900    0.9420 c2        1 VDX     -0.192000
     22 C20        10.4920   -4.1450    1.2810 c3        1 VDX     -0.055700
     23 C21        10.4500   -5.3440    2.2090 c3        1 VDX     -0.091100
     24 C22        11.9470   -3.7880    0.9800 c3        1 VDX     -0.079400
     25 C23        12.5340   -4.6750   -0.0990 c3        1 VDX     -0.079400
     26 C24        13.9930   -4.3490   -0.3300 c3        1 VDX     -0.064400
     27 C25        14.5850   -5.0820   -1.5380 c3        1 VDX      0.147800
     28 C26        16.0610   -4.7200   -1.6810 c3        1 VDX     -0.123100
     29 C27        14.4340   -6.5930   -1.4120 c3        1 VDX     -0.123100
     30 O1          3.4030    0.8290   -1.7230 oh        1 VDX     -0.588800
     31 HO2        -0.7710    0.5940   -0.3690 ho        1 VDX      0.398000
     32 HO3        14.2280   -5.0710   -3.4440 ho        1 VDX      0.397000
     33 H11         3.3600    2.7690   -0.9810 h1        1 VDX      0.034700
     34 H21         1.2760    2.5640    0.2670 hc        1 VDX      0.052700
     35 H22         1.0000    1.9140   -1.4010 hc        1 VDX      0.052700
     36 H31         1.2890   -0.4260   -0.5700 h1        1 VDX      0.048700
     37 H41         1.5000    0.9090    2.2310 hc        1 VDX      0.061700
     38 H42         1.4590   -0.8640    1.8760 hc        1 VDX      0.061700
     39 H61         3.5560   -1.6480    2.3570 ha        1 VDX      0.124000
     40 H71         5.8970   -0.3880    0.7840 ha        1 VDX      0.137000
     41 H91         4.7800   -2.3640    3.8040 hc        1 VDX      0.046700
     42 H92         6.2260   -1.6320    4.6020 hc        1 VDX      0.046700
     43 H111        5.9430   -4.3820    3.2440 hc        1 VDX      0.039700
     44 H112        6.3370   -3.9980    4.9640 hc        1 VDX      0.039700
     45 H121        8.5670   -3.1960    4.3690 hc        1 VDX      0.041700
     46 H122        8.3030   -4.8150    3.6120 hc        1 VDX      0.041700
     47 H141        8.2480   -1.1830    3.1870 hc        1 VDX      0.052700
     48 H151        7.8130   -1.1730    0.1390 hc        1 VDX      0.045700
     49 H152        8.5640    0.0830    1.2000 hc        1 VDX      0.045700
     50 H161       10.6160   -1.0420    1.1900 hc        1 VDX      0.043200
     51 H162        9.9320   -2.0650   -0.1340 hc        1 VDX      0.043200
     52 H171       10.3000   -2.6600    2.8270 hc        1 VDX      0.044700
     53 H181        7.8790   -3.5400    0.1190 hc        1 VDX      0.038033
     54 H182        7.7940   -4.9970    1.1970 hc        1 VDX      0.038033
     55 H183        6.4520   -3.7770    1.2060 hc        1 VDX      0.038033
     56 H191        5.4520    1.7290    1.8480 ha        1 VDX      0.120000
     57 H192        5.2750    2.8490    0.3770 ha        1 VDX      0.120000
     58 H201        9.9870   -4.4230    0.3130 hc        1 VDX      0.053700
     59 H211       10.6870   -5.0400    3.2570 hc        1 VDX      0.033367
     60 H212       11.1970   -6.1110    1.8890 hc        1 VDX      0.033367
     61 H213        9.4410   -5.8210    2.1960 hc        1 VDX      0.033367
     62 H221       12.5530   -3.8820    1.9200 hc        1 VDX      0.040200
     63 H222       12.0230   -2.7200    0.6460 hc        1 VDX      0.040200
     64 H231       12.4300   -5.7530    0.1940 hc        1 VDX      0.048700
     65 H232       11.9690   -4.5330   -1.0580 hc        1 VDX      0.048700
     66 H241       14.1050   -3.2460   -0.5020 hc        1 VDX      0.047200
     67 H242       14.5960   -4.6210    0.5750 hc        1 VDX      0.047200
     68 H261       16.1720   -3.6160   -1.8010 hc        1 VDX      0.042200
     69 H262       16.6250   -5.0480   -0.7770 hc        1 VDX      0.042200
     70 H263       16.4970   -5.2200   -2.5790 hc        1 VDX      0.042200
     71 H271       13.3580   -6.8780   -1.5020 hc        1 VDX      0.042200
     72 H272       15.0060   -7.1090   -2.2200 hc        1 VDX      0.042200
     73 H273       14.8200   -6.9350   -0.4230 hc        1 VDX      0.042200
     74 HO1         2.8660    1.0680   -2.4870 ho        1 VDX      0.396000
@<TRIPOS>BOND
     1    1    5 1   
     2    1   31 1   
     3    2   27 1   
     4    2   32 1   
     5    3    4 1   
     6    3   12 1   
     7    3   30 1   
     8    3   33 1   
     9    4    5 1   
    10    4   34 1   
    11    4   35 1   
    12    5    6 1   
    13    5   36 1   
    14    6    7 1   
    15    6   37 1   
    16    6   38 1   
    17    7    8 2   
    18    7   12 1   
    19    8    9 1   
    20    8   39 1   
    21    9   10 2   
    22    9   40 1   
    23   10   11 1   
    24   10   16 1   
    25   11   13 1   
    26   11   41 1   
    27   11   42 1   
    28   12   21 2   
    29   13   14 1   
    30   13   43 1   
    31   13   44 1   
    32   14   15 1   
    33   14   45 1   
    34   14   46 1   
    35   15   16 1   
    36   15   19 1   
    37   15   20 1   
    38   16   17 1   
    39   16   47 1   
    40   17   18 1   
    41   17   48 1   
    42   17   49 1   
    43   18   19 1   
    44   18   50 1   
    45   18   51 1   
    46   19   22 1   
    47   19   52 1   
    48   20   53 1   
    49   20   54 1   
    50   20   55 1   
    51   21   56 1   
    52   21   57 1   
    53   22   23 1   
    54   22   24 1   
    55   22   58 1   
    56   23   59 1   
    57   23   60 1   
    58   23   61 1   
    59   24   25 1   
    60   24   62 1   
    61   24   63 1   
    62   25   26 1   
    63   25   64 1   
    64   25   65 1   
    65   26   27 1   
    66   26   66 1   
    67   26   67 1   
    68   27   28 1   
    69   27   29 1   
    70   28   68 1   
    71   28   69 1   
    72   28   70 1   
    73   29   71 1   
    74   29   72 1   
    75   29   73 1   
    76   30   74 1   
@<TRIPOS>SUBSTRUCTURE
     1 VDX         1 TEMP              0 ****  ****    0 ROOT
