@<TRIPOS>MOLECULE
VDX
   74    76     1     0     0
SMALL
bcc


@<TRIPOS>ATOM
      1 O2         -0.3150    0.4290    0.4650 oh        1 VDX     -0.599800
      2 O3         13.8570   -4.6240   -2.6780 oh        1 VDX     -0.597800
      3 C1          3.0370    1.7180   -0.6850 c3        1 VDX      0.186300
      4 C2          1.5310    1.7200   -0.4410 c3        1 VDX     -0.146400
      5 C3          1.0750    0.3970    0.1630 c3        1 VDX      0.146100
      6 C4          1.7960    0.1280    1.4810 c3        1 VDX     -0.035200
      7 C5          3.2770    0.1590    1.2930 ce        1 VDX     -0.074200
      8 C6          4.0450   -0.8220    1.8100 cf        1 VDX     -0.108000
      9 C7          5.4790   -0.9160    1.6630 cf        1 VDX     -0.150000
     10 C8          6.3100   -1.5850    2.4810 c2        1 VDX     -0.081400
     11 C9          5.8990   -2.2670    3.7450 c3        1 VDX     -0.044200
     12 C10         3.7990    1.3040    0.5490 ce        1 VDX     -0.069200
     13 C11         6.5010   -3.6520    3.9140 c3        1 VDX     -0.073400
     14 C12         7.9820   -3.7320    3.5910 c3        1 VDX     -0.066400
     15 C13         8.2710   -3.1290    2.2250 c3        1 VDX     -0.040000
     16 C14         7.7800   -1.6540    2.2710 c3        1 VDX     -0.036500
     17 C15         8.4300   -1.0150    1.0530 c3        1 VDX     -0.074400
     18 C16         9.7750   -1.7300    0.9190 c3        1 VDX     -0.079400
     19 C17         9.7660   -2.9390    1.8780 c3        1 VDX     -0.053700
     20 C18         7.5580   -3.9070    1.1320 c3        1 VDX     -0.083100
     21 C19         4.8850    1.9890    0.9300 c2        1 VDX     -0.192000
     22 C20        10.4910   -4.1430    1.2850 c3        1 VDX     -0.055700
     23 C21        10.4520   -5.3380    2.2180 c3        1 VDX     -0.091100
     24 C22        11.9450   -3.7860    0.9800 c3        1 VDX     -0.079400
     25 C23        12.5310   -4.6770   -0.0960 c3        1 VDX     -0.079400
     26 C24        13.9900   -4.3510   -0.3300 c3        1 VDX     -0.064400
     27 C25        14.5800   -5.0890   -1.5360 c3        1 VDX      0.147800
     28 C26        16.0560   -4.7270   -1.6830 c3        1 VDX     -0.123100
     29 C27        14.4290   -6.5990   -1.4050 c3        1 VDX     -0.123100
     30 O1          3.3960    0.8150   -1.7270 oh        1 VDX     -0.588800
     31 HO2        -0.7760    0.5830   -0.3670 ho        1 VDX      0.398000
     32 HO3        14.2200   -5.0850   -3.4420 ho        1 VDX      0.397000
     33 H11         3.3520    2.7580   -0.9940 h1        1 VDX      0.034700
     34 H21         1.2700    2.5570    0.2570 hc        1 VDX      0.052700
     35 H22         0.9930    1.8990   -1.4070 hc        1 VDX      0.052700
     36 H31         1.2840   -0.4370   -0.5660 h1        1 VDX      0.048700
     37 H41         1.4580   -0.8630    1.8820 hc        1 VDX      0.061700
     38 H42         1.4980    0.9110    2.2280 hc        1 VDX      0.061700
     39 H61         3.5560   -1.6440    2.3630 ha        1 VDX      0.124000
     40 H71         5.8940   -0.3890    0.7810 ha        1 VDX      0.137000
     41 H91         6.2300   -1.6180    4.6030 hc        1 VDX      0.046700
     42 H92         4.7830   -2.3530    3.8110 hc        1 VDX      0.046700
     43 H111        6.3420   -3.9830    4.9750 hc        1 VDX      0.039700
     44 H112        5.9460   -4.3740    3.2570 hc        1 VDX      0.039700
     45 H121        8.5710   -3.1820    4.3720 hc        1 VDX      0.041700
     46 H122        8.3060   -4.8040    3.6220 hc        1 VDX      0.041700
     47 H141        8.2490   -1.1730    3.1830 hc        1 VDX      0.052700
     48 H151        7.8090   -1.1750    0.1360 hc        1 VDX      0.046200
     49 H152        8.5610    0.0850    1.1910 hc        1 VDX      0.046200
     50 H161        9.9280   -2.0670   -0.1370 hc        1 VDX      0.043200
     51 H162       10.6140   -1.0390    1.1820 hc        1 VDX      0.043200
     52 H171       10.3010   -2.6510    2.8250 hc        1 VDX      0.044700
     53 H181        7.7940   -4.9960    1.2090 hc        1 VDX      0.038033
     54 H182        6.4510   -3.7770    1.2150 hc        1 VDX      0.038033
     55 H183        7.8760   -3.5420    0.1250 hc        1 VDX      0.038033
     56 H191        5.4490    1.7320    1.8370 ha        1 VDX      0.120000
     57 H192        5.2690    2.8450    0.3610 ha        1 VDX      0.120000
     58 H201        9.9840   -4.4240    0.3190 hc        1 VDX      0.053700
     59 H211       11.1980   -6.1060    1.9000 hc        1 VDX      0.033367
     60 H212       10.6900   -5.0290    3.2650 hc        1 VDX      0.033367
     61 H213        9.4430   -5.8150    2.2080 hc        1 VDX      0.033367
     62 H221       12.0200   -2.7200    0.6420 hc        1 VDX      0.040200
     63 H222       12.5530   -3.8750    1.9190 hc        1 VDX      0.040200
     64 H231       11.9650   -4.5390   -1.0550 hc        1 VDX      0.048700
     65 H232       12.4280   -5.7540    0.2010 hc        1 VDX      0.048700
     66 H241       14.5940   -4.6200    0.5740 hc        1 VDX      0.047200
     67 H242       14.1020   -3.2490   -0.5070 hc        1 VDX      0.047200
     68 H261       16.6210   -5.0520   -0.7780 hc        1 VDX      0.042200
     69 H262       16.1670   -3.6240   -1.8070 hc        1 VDX      0.042200
     70 H263       16.4910   -5.2310   -2.5790 hc        1 VDX      0.042200
     71 H271       14.8170   -6.9380   -0.4150 hc        1 VDX      0.042200
     72 H272       13.3540   -6.8850   -1.4920 hc        1 VDX      0.042200
     73 H273       15.0000   -7.1180   -2.2120 hc        1 VDX      0.042200
     74 HO1         2.8580    1.0500   -2.4920 ho        1 VDX      0.396000
@<TRIPOS>BOND
     1    1    5 1   
     2    1   31 1   
     3    2   27 1   
     4    2   32 1   
     5    3    4 1   
     6    3   12 1   
     7    3   30 1   
     8    3   33 1   
     9    4    5 1   
    10    4   34 1   
    11    4   35 1   
    12    5    6 1   
    13    5   36 1   
    14    6    7 1   
    15    6   37 1   
    16    6   38 1   
    17    7    8 2   
    18    7   12 1   
    19    8    9 1   
    20    8   39 1   
    21    9   10 2   
    22    9   40 1   
    23   10   11 1   
    24   10   16 1   
    25   11   13 1   
    26   11   41 1   
    27   11   42 1   
    28   12   21 2   
    29   13   14 1   
    30   13   43 1   
    31   13   44 1   
    32   14   15 1   
    33   14   45 1   
    34   14   46 1   
    35   15   16 1   
    36   15   19 1   
    37   15   20 1   
    38   16   17 1   
    39   16   47 1   
    40   17   18 1   
    41   17   48 1   
    42   17   49 1   
    43   18   19 1   
    44   18   50 1   
    45   18   51 1   
    46   19   22 1   
    47   19   52 1   
    48   20   53 1   
    49   20   54 1   
    50   20   55 1   
    51   21   56 1   
    52   21   57 1   
    53   22   23 1   
    54   22   24 1   
    55   22   58 1   
    56   23   59 1   
    57   23   60 1   
    58   23   61 1   
    59   24   25 1   
    60   24   62 1   
    61   24   63 1   
    62   25   26 1   
    63   25   64 1   
    64   25   65 1   
    65   26   27 1   
    66   26   66 1   
    67   26   67 1   
    68   27   28 1   
    69   27   29 1   
    70   28   68 1   
    71   28   69 1   
    72   28   70 1   
    73   29   71 1   
    74   29   72 1   
    75   29   73 1   
    76   30   74 1   
@<TRIPOS>SUBSTRUCTURE
     1 VDX         1 TEMP              0 ****  ****    0 ROOT
