@<TRIPOS>MOLECULE
VDX
   74    76     1     0     0
SMALL
bcc


@<TRIPOS>ATOM
      1 O2         -1.0050    1.3130   -8.2970 oh        1 VDX     -0.600800
      2 O3         -2.7910    0.3580    6.9560 oh        1 VDX     -0.596800
      3 C1         -2.4260   -0.8540   -5.6220 c3        1 VDX      0.183300
      4 C2         -2.1900   -0.2770   -7.0140 c3        1 VDX     -0.069400
      5 C3         -1.2040    0.8820   -6.9550 c3        1 VDX      0.145100
      6 C4          0.1230    0.4460   -6.3360 c3        1 VDX     -0.075200
      7 C5         -0.0780   -0.1700   -4.9920 ce        1 VDX     -0.068200
      8 C6          0.6920    0.2000   -3.9480 cf        1 VDX     -0.116000
      9 C7          0.5660   -0.3080   -2.6020 cf        1 VDX     -0.152000
     10 C8          1.5180   -0.2720   -1.6550 c2        1 VDX     -0.076400
     11 C9          2.9140    0.2200   -1.8620 c3        1 VDX     -0.044200
     12 C10        -1.1310   -1.1820   -4.9210 ce        1 VDX     -0.120200
     13 C11         3.4150    1.1240   -0.7480 c3        1 VDX     -0.073400
     14 C12         3.1140    0.6140    0.6500 c3        1 VDX     -0.067400
     15 C13         1.6390    0.2690    0.7930 c3        1 VDX     -0.039000
     16 C14         1.3240   -0.8090   -0.2820 c3        1 VDX     -0.038500
     17 C15        -0.0170   -1.3790    0.1540 c3        1 VDX     -0.073400
     18 C16         0.0220   -1.3180    1.6830 c3        1 VDX     -0.079400
     19 C17         1.2490   -0.4760    2.0910 c3        1 VDX     -0.053700
     20 C18         0.7760    1.5040    0.5980 c3        1 VDX     -0.083100
     21 C19        -0.9710   -2.3580   -4.3020 c2        1 VDX     -0.194000
     22 C20         0.9660    0.3860    3.3170 c3        1 VDX     -0.055700
     23 C21         2.1650    1.2340    3.6960 c3        1 VDX     -0.091100
     24 C22         0.5760   -0.4950    4.5030 c3        1 VDX     -0.079400
     25 C23        -0.2500    0.2630    5.5220 c3        1 VDX     -0.080400
     26 C24        -0.5680   -0.6050    6.7200 c3        1 VDX     -0.104400
     27 C25        -1.5910    0.0390    7.6620 c3        1 VDX      0.147800
     28 C26        -1.9070   -0.9300    8.7980 c3        1 VDX     -0.103600
     29 C27        -1.0820    1.3600    8.2240 c3        1 VDX     -0.103600
     30 O1         -3.1950    0.1070   -4.9020 oh        1 VDX     -0.596800
     31 HO2        -0.4190    2.0770   -8.2570 ho        1 VDX      0.399000
     32 HO3        -3.1180   -0.4650    6.5770 ho        1 VDX      0.397000
     33 H11        -3.0500   -1.7920   -5.7170 h1        1 VDX      0.038700
     34 H21        -3.1610    0.0880   -7.4360 hc        1 VDX      0.067200
     35 H22        -1.7920   -1.0810   -7.6840 hc        1 VDX      0.067200
     36 H31        -1.6490    1.7210   -6.3490 h1        1 VDX      0.053700
     37 H41         0.8080    1.3320   -6.2690 hc        1 VDX      0.054200
     38 H42         0.6120   -0.3060   -7.0140 hc        1 VDX      0.054200
     39 H61         1.4660    0.9730   -4.1080 ha        1 VDX      0.125000
     40 H71        -0.4180   -0.7540   -2.3600 ha        1 VDX      0.127000
     41 H91         3.5840   -0.6820   -1.9300 hc        1 VDX      0.047700
     42 H92         3.0070    0.7710   -2.8350 hc        1 VDX      0.047700
     43 H111        4.5260    1.2440   -0.8590 hc        1 VDX      0.041200
     44 H112        2.9590    2.1420   -0.8710 hc        1 VDX      0.041200
     45 H121        3.7320   -0.2970    0.8640 hc        1 VDX      0.042700
     46 H122        3.4060    1.3990    1.3960 hc        1 VDX      0.042700
     47 H141        2.0870   -1.6380   -0.1610 hc        1 VDX      0.054700
     48 H151       -0.1550   -2.4250   -0.2120 hc        1 VDX      0.043700
     49 H152       -0.8640   -0.7620   -0.2380 hc        1 VDX      0.043700
     50 H161        0.1030   -2.3470    2.1130 hc        1 VDX      0.042700
     51 H162       -0.9190   -0.8570    2.0730 hc        1 VDX      0.042700
     52 H171        2.0940   -1.1730    2.3510 hc        1 VDX      0.046700
     53 H181        0.8310    1.8580   -0.4600 hc        1 VDX      0.038033
     54 H182       -0.2920    1.2710    0.8320 hc        1 VDX      0.038033
     55 H183        1.1170    2.3290    1.2670 hc        1 VDX      0.038033
     56 H191       -0.0330   -2.6350   -3.8030 ha        1 VDX      0.120500
     57 H192       -1.7640   -3.1170   -4.2690 ha        1 VDX      0.120500
     58 H201        0.1020    1.0690    3.0820 hc        1 VDX      0.053700
     59 H211        3.1020    0.6270    3.6700 hc        1 VDX      0.034367
     60 H212        2.2780    2.0950    2.9940 hc        1 VDX      0.034367
     61 H213        2.0410    1.6470    4.7270 hc        1 VDX      0.034367
     62 H221       -0.0150   -1.3810    4.1500 hc        1 VDX      0.039200
     63 H222        1.5040   -0.8940    4.9900 hc        1 VDX      0.039200
     64 H231        0.3040    1.1780    5.8590 hc        1 VDX      0.049700
     65 H232       -1.2090    0.6120    5.0540 hc        1 VDX      0.049700
     66 H241       -0.9760   -1.5900    6.3680 hc        1 VDX      0.042200
     67 H242        0.3680   -0.8160    7.2980 hc        1 VDX      0.042200
     68 H261       -2.7110   -0.5060    9.4440 hc        1 VDX      0.043367
     69 H262       -2.2570   -1.9080    8.3900 hc        1 VDX      0.043367
     70 H263       -0.9950   -1.1030    9.4160 hc        1 VDX      0.043367
     71 H271       -0.0760    1.2100    8.6810 hc        1 VDX      0.043367
     72 H272       -1.0110    2.1200    7.4100 hc        1 VDX      0.043367
     73 H273       -1.7880    1.7400    9.0010 hc        1 VDX      0.043367
     74 HO1        -3.1360   -0.1250   -3.9680 ho        1 VDX      0.404000
@<TRIPOS>BOND
     1    1    5 1   
     2    1   31 1   
     3    2   27 1   
     4    2   32 1   
     5    3    4 1   
     6    3   12 1   
     7    3   30 1   
     8    3   33 1   
     9    4    5 1   
    10    4   34 1   
    11    4   35 1   
    12    5    6 1   
    13    5   36 1   
    14    6    7 1   
    15    6   37 1   
    16    6   38 1   
    17    7    8 2   
    18    7   12 1   
    19    8    9 1   
    20    8   39 1   
    21    9   10 2   
    22    9   40 1   
    23   10   11 1   
    24   10   16 1   
    25   11   13 1   
    26   11   41 1   
    27   11   42 1   
    28   12   21 2   
    29   13   14 1   
    30   13   43 1   
    31   13   44 1   
    32   14   15 1   
    33   14   45 1   
    34   14   46 1   
    35   15   16 1   
    36   15   19 1   
    37   15   20 1   
    38   16   17 1   
    39   16   47 1   
    40   17   18 1   
    41   17   48 1   
    42   17   49 1   
    43   18   19 1   
    44   18   50 1   
    45   18   51 1   
    46   19   22 1   
    47   19   52 1   
    48   20   53 1   
    49   20   54 1   
    50   20   55 1   
    51   21   56 1   
    52   21   57 1   
    53   22   23 1   
    54   22   24 1   
    55   22   58 1   
    56   23   59 1   
    57   23   60 1   
    58   23   61 1   
    59   24   25 1   
    60   24   62 1   
    61   24   63 1   
    62   25   26 1   
    63   25   64 1   
    64   25   65 1   
    65   26   27 1   
    66   26   66 1   
    67   26   67 1   
    68   27   28 1   
    69   27   29 1   
    70   28   68 1   
    71   28   69 1   
    72   28   70 1   
    73   29   71 1   
    74   29   72 1   
    75   29   73 1   
    76   30   74 1   
@<TRIPOS>SUBSTRUCTURE
     1 VDX         1 TEMP              0 ****  ****    0 ROOT
