@<TRIPOS>MOLECULE
VDY
   73    75     1     0     0
SMALL
bcc


@<TRIPOS>ATOM
      1 O1         -0.3180    0.5070    0.5310 oh        1 VDY     -0.600800
      2 O2         13.8250   -4.5480   -2.6940 oh        1 VDY     -0.597800
      3 C1          3.0490    1.6090   -0.7250 c3        1 VDY     -0.037200
      4 C2          1.5550    1.6740   -0.4910 c3        1 VDY     -0.110400
      5 C3          1.0630    0.4080    0.2030 c3        1 VDY      0.144100
      6 C4          1.7990    0.1860    1.5220 c3        1 VDY     -0.037200
      7 C5          3.2790    0.1900    1.3230 ce        1 VDY     -0.079200
      8 C6          4.0410   -0.7800    1.8690 cf        1 VDY     -0.116000
      9 C7          5.4730   -0.8880    1.7220 cf        1 VDY     -0.150000
     10 C8          6.2960   -1.5840    2.5250 c2        1 VDY     -0.079400
     11 C9          5.8790   -2.2950    3.7720 c3        1 VDY     -0.044200
     12 C10         3.8000    1.3050    0.5300 ce        1 VDY     -0.076200
     13 C11         6.4700   -3.6880    3.9090 c3        1 VDY     -0.073400
     14 C12         7.9520   -3.7690    3.5880 c3        1 VDY     -0.067400
     15 C13         8.2470   -3.1360    2.2370 c3        1 VDY     -0.040000
     16 C14         7.7660   -1.6590    2.3180 c3        1 VDY     -0.036500
     17 C15         8.4240   -0.9950    1.1170 c3        1 VDY     -0.073400
     18 C16         9.7650   -1.7150    0.9690 c3        1 VDY     -0.079400
     19 C17         9.7450   -2.9470    1.8980 c3        1 VDY     -0.053700
     20 C18         7.5320   -3.8830    1.1240 c3        1 VDY     -0.083100
     21 C19         4.8730    2.0180    0.8950 c2        1 VDY     -0.211000
     22 C20        10.4630   -4.1410    1.2780 c3        1 VDY     -0.055700
     23 C21        10.4140   -5.3580    2.1810 c3        1 VDY     -0.091100
     24 C22        11.9200   -3.7870    0.9840 c3        1 VDY     -0.079400
     25 C23        12.5020   -4.6540   -0.1130 c3        1 VDY     -0.079400
     26 C24        13.9620   -4.3300   -0.3410 c3        1 VDY     -0.064400
     27 C25        14.5490   -5.0420   -1.5640 c3        1 VDY      0.147800
     28 C26        16.0250   -4.6810   -1.7050 c3        1 VDY     -0.123100
     29 C27        14.3930   -6.5540   -1.4670 c3        1 VDY     -0.123100
     30 HO1        -0.7830    0.7140   -0.2880 ho        1 VDY      0.399000
     31 HO2        14.1870   -4.9910   -3.4690 ho        1 VDY      0.397000
     32 H11         3.3970    2.5820   -1.1630 hc        1 VDY      0.049200
     33 H12         3.2750    0.8040   -1.4770 hc        1 VDY      0.049200
     34 H21         1.0250    1.7980   -1.4700 hc        1 VDY      0.048700
     35 H22         1.3020    2.5620    0.1450 hc        1 VDY      0.048700
     36 H31         1.2160   -0.4790   -0.4750 h1        1 VDY      0.036700
     37 H41         1.5200    1.0080    2.2370 hc        1 VDY      0.062200
     38 H42         1.4520   -0.7800    1.9720 hc        1 VDY      0.062200
     39 H61         3.5460   -1.5770    2.4530 ha        1 VDY      0.124000
     40 H71         5.8980   -0.3430    0.8570 ha        1 VDY      0.132000
     41 H91         4.7620   -2.3760    3.8350 hc        1 VDY      0.047700
     42 H92         6.2120   -1.6680    4.6460 hc        1 VDY      0.047700
     43 H111        5.9120   -4.3890    3.2340 hc        1 VDY      0.040200
     44 H112        6.3070   -4.0420    4.9610 hc        1 VDY      0.040200
     45 H121        8.5420   -3.2420    4.3830 hc        1 VDY      0.041700
     46 H122        8.2690   -4.8440    3.5940 hc        1 VDY      0.041700
     47 H141        8.2360   -1.2030    3.2420 hc        1 VDY      0.053700
     48 H151        7.8060   -1.1290    0.1940 hc        1 VDY      0.044700
     49 H152        8.5610    0.1010    1.2820 hc        1 VDY      0.044700
     50 H161        9.9190   -2.0270   -0.0930 hc        1 VDY      0.043700
     51 H162       10.6070   -1.0360    1.2530 hc        1 VDY      0.043700
     52 H171       10.2800   -2.6870    2.8540 hc        1 VDY      0.045700
     53 H181        6.4270   -3.7470    1.2080 hc        1 VDY      0.037700
     54 H182        7.8550   -3.4960    0.1270 hc        1 VDY      0.037700
     55 H183        7.7610   -4.9740    1.1750 hc        1 VDY      0.037700
     56 H191        5.4350    1.8040    1.8130 ha        1 VDY      0.117500
     57 H192        5.2450    2.8610    0.2990 ha        1 VDY      0.117500
     58 H201        9.9570   -4.3960    0.3040 hc        1 VDY      0.053700
     59 H211        9.4020   -5.8280    2.1580 hc        1 VDY      0.033367
     60 H212       11.1560   -6.1230    1.8450 hc        1 VDY      0.033367
     61 H213       10.6530   -5.0760    3.2350 hc        1 VDY      0.033367
     62 H221       12.0030   -2.7130    0.6720 hc        1 VDY      0.040200
     63 H222       12.5260   -3.9040    1.9210 hc        1 VDY      0.040200
     64 H231       12.3940   -5.7370    0.1580 hc        1 VDY      0.048700
     65 H232       11.9360   -4.4910   -1.0690 hc        1 VDY      0.048700
     66 H241       14.5660   -4.6230    0.5570 hc        1 VDY      0.047200
     67 H242       14.0790   -3.2240   -0.4910 hc        1 VDY      0.047200
     68 H261       16.1390   -3.5750   -1.8050 hc        1 VDY      0.042367
     69 H262       16.5900   -5.0270   -0.8090 hc        1 VDY      0.042367
     70 H263       16.4570   -5.1660   -2.6130 hc        1 VDY      0.042367
     71 H271       13.3170   -6.8340   -1.5580 hc        1 VDY      0.042367
     72 H272       14.9610   -7.0560   -2.2870 hc        1 VDY      0.042367
     73 H273       14.7820   -6.9160   -0.4870 hc        1 VDY      0.042367
@<TRIPOS>BOND
     1    1    5 1   
     2    1   30 1   
     3    2   27 1   
     4    2   31 1   
     5    3    4 1   
     6    3   12 1   
     7    3   32 1   
     8    3   33 1   
     9    4    5 1   
    10    4   34 1   
    11    4   35 1   
    12    5    6 1   
    13    5   36 1   
    14    6    7 1   
    15    6   37 1   
    16    6   38 1   
    17    7    8 2   
    18    7   12 1   
    19    8    9 1   
    20    8   39 1   
    21    9   10 2   
    22    9   40 1   
    23   10   11 1   
    24   10   16 1   
    25   11   13 1   
    26   11   41 1   
    27   11   42 1   
    28   12   21 2   
    29   13   14 1   
    30   13   43 1   
    31   13   44 1   
    32   14   15 1   
    33   14   45 1   
    34   14   46 1   
    35   15   16 1   
    36   15   19 1   
    37   15   20 1   
    38   16   17 1   
    39   16   47 1   
    40   17   18 1   
    41   17   48 1   
    42   17   49 1   
    43   18   19 1   
    44   18   50 1   
    45   18   51 1   
    46   19   22 1   
    47   19   52 1   
    48   20   53 1   
    49   20   54 1   
    50   20   55 1   
    51   21   56 1   
    52   21   57 1   
    53   22   23 1   
    54   22   24 1   
    55   22   58 1   
    56   23   59 1   
    57   23   60 1   
    58   23   61 1   
    59   24   25 1   
    60   24   62 1   
    61   24   63 1   
    62   25   26 1   
    63   25   64 1   
    64   25   65 1   
    65   26   27 1   
    66   26   66 1   
    67   26   67 1   
    68   27   28 1   
    69   27   29 1   
    70   28   68 1   
    71   28   69 1   
    72   28   70 1   
    73   29   71 1   
    74   29   72 1   
    75   29   73 1   
@<TRIPOS>SUBSTRUCTURE
     1 VDY         1 TEMP              0 ****  ****    0 ROOT
