@<TRIPOS>MOLECULE
VDY
   73    75     1     0     0
SMALL
bcc


@<TRIPOS>ATOM
      1 O1         -1.3050    1.3750   -8.4380 oh        1 VDY     -0.599800
      2 O2         -2.7420    0.4320    6.8430 oh        1 VDY     -0.596800
      3 C1         -2.7010   -0.7050   -5.6990 c3        1 VDY     -0.041200
      4 C2         -2.5000   -0.1620   -7.0980 c3        1 VDY     -0.072400
      5 C3         -1.4680    0.9600   -7.0870 c3        1 VDY      0.144100
      6 C4         -0.1400    0.4730   -6.5070 c3        1 VDY     -0.075200
      7 C5         -0.3240   -0.1390   -5.1590 ce        1 VDY     -0.074200
      8 C6          0.4870    0.2030   -4.1370 cf        1 VDY     -0.118000
      9 C7          0.3790   -0.3040   -2.7890 cf        1 VDY     -0.149000
     10 C8          1.3540   -0.2930   -1.8640 c2        1 VDY     -0.080400
     11 C9          2.7570    0.1630   -2.1020 c3        1 VDY     -0.044200
     12 C10        -1.4130   -1.1140   -5.0630 ce        1 VDY     -0.076200
     13 C11         3.3060    1.0510   -0.9980 c3        1 VDY     -0.073400
     14 C12         3.0240    0.5460    0.4060 c3        1 VDY     -0.067400
     15 C13         1.5440    0.2380    0.5810 c3        1 VDY     -0.040000
     16 C14         1.1780   -0.8300   -0.4890 c3        1 VDY     -0.036500
     17 C15        -0.1680   -1.3660   -0.0230 c3        1 VDY     -0.074400
     18 C16        -0.0930   -1.3100    1.5040 c3        1 VDY     -0.079400
     19 C17         1.1640   -0.5000    1.8860 c3        1 VDY     -0.053700
     20 C18         0.7090    1.4940    0.4080 c3        1 VDY     -0.083100
     21 C19        -1.2760   -2.2980   -4.4540 c2        1 VDY     -0.211000
     22 C20         0.9310    0.3650    3.1200 c3        1 VDY     -0.055700
     23 C21         2.1600    1.1820    3.4740 c3        1 VDY     -0.091100
     24 C22         0.5450   -0.5080    4.3130 c3        1 VDY     -0.079400
     25 C23        -0.2370    0.2690    5.3520 c3        1 VDY     -0.080400
     26 C24        -0.5530   -0.5950    6.5530 c3        1 VDY     -0.104400
     27 C25        -1.5360    0.0740    7.5210 c3        1 VDY      0.147800
     28 C26        -1.8560   -0.8920    8.6580 c3        1 VDY     -0.103600
     29 C27        -0.9770    1.3770    8.0780 c3        1 VDY     -0.103600
     30 HO1        -0.6210    2.0550   -8.4390 ho        1 VDY      0.399000
     31 HO2        -3.0990   -0.3790    6.4630 ho        1 VDY      0.397000
     32 H11        -3.4080   -1.5760   -5.7430 hc        1 VDY      0.050200
     33 H12        -3.1800    0.0830   -5.0560 hc        1 VDY      0.050200
     34 H21        -3.4680    0.2320   -7.5010 hc        1 VDY      0.057700
     35 H22        -2.1520   -0.9740   -7.7870 hc        1 VDY      0.057700
     36 H31        -1.8500    1.8280   -6.4780 h1        1 VDY      0.036700
     37 H41         0.5800    1.3330   -6.4610 hc        1 VDY      0.054200
     38 H42         0.2980   -0.2940   -7.2010 hc        1 VDY      0.054200
     39 H61         1.2830    0.9490   -4.3180 ha        1 VDY      0.122000
     40 H71        -0.6100   -0.7260   -2.5260 ha        1 VDY      0.132000
     41 H91         3.4020   -0.7560   -2.1870 hc        1 VDY      0.047200
     42 H92         2.8420    0.7130   -3.0750 hc        1 VDY      0.047200
     43 H111        4.4170    1.1430   -1.1330 hc        1 VDY      0.040200
     44 H112        2.8740    2.0810   -1.1080 hc        1 VDY      0.040200
     45 H121        3.6230   -0.3820    0.6040 hc        1 VDY      0.042700
     46 H122        3.3520    1.3200    1.1460 hc        1 VDY      0.042700
     47 H141        1.9220   -1.6770   -0.3860 hc        1 VDY      0.054700
     48 H151       -0.3400   -2.4070   -0.3880 hc        1 VDY      0.045200
     49 H152       -1.0070   -0.7270   -0.3960 hc        1 VDY      0.045200
     50 H161       -0.0280   -2.3410    1.9310 hc        1 VDY      0.041700
     51 H162       -1.0120   -0.8250    1.9160 hc        1 VDY      0.041700
     52 H171        1.9960   -1.2190    2.1260 hc        1 VDY      0.045700
     53 H181        0.7490    1.8490   -0.6500 hc        1 VDY      0.037700
     54 H182       -0.3590    1.2890    0.6660 hc        1 VDY      0.037700
     55 H183        1.0850    2.3100    1.0710 hc        1 VDY      0.037700
     56 H191       -0.3350   -2.6090   -3.9810 ha        1 VDY      0.117500
     57 H192       -2.0950   -3.0270   -4.4000 ha        1 VDY      0.117500
     58 H201        0.0800    1.0710    2.9060 hc        1 VDY      0.053700
     59 H211        3.0800    0.5510    3.4260 hc        1 VDY      0.034033
     60 H212        2.2790    2.0410    2.7710 hc        1 VDY      0.034033
     61 H213        2.0700    1.5940    4.5080 hc        1 VDY      0.034033
     62 H221       -0.0770   -1.3770    3.9720 hc        1 VDY      0.039700
     63 H222        1.4730   -0.9330    4.7780 hc        1 VDY      0.039700
     64 H231        0.3490    1.1670    5.6800 hc        1 VDY      0.049700
     65 H232       -1.1960    0.6460    4.9060 hc        1 VDY      0.049700
     66 H241       -0.9960   -1.5660    6.2080 hc        1 VDY      0.042700
     67 H242        0.3890   -0.8340    7.1100 hc        1 VDY      0.042700
     68 H261       -2.6330   -0.4470    9.3250 hc        1 VDY      0.043367
     69 H262       -2.2450   -1.8560    8.2530 hc        1 VDY      0.043367
     70 H263       -0.9370   -1.0950    9.2560 hc        1 VDY      0.043367
     71 H271        0.0330    1.1940    8.5130 hc        1 VDY      0.043367
     72 H272       -0.9000    2.1380    7.2660 hc        1 VDY      0.043367
     73 H273       -1.6550    1.7730    8.8710 hc        1 VDY      0.043367
@<TRIPOS>BOND
     1    1    5 1   
     2    1   30 1   
     3    2   27 1   
     4    2   31 1   
     5    3    4 1   
     6    3   12 1   
     7    3   32 1   
     8    3   33 1   
     9    4    5 1   
    10    4   34 1   
    11    4   35 1   
    12    5    6 1   
    13    5   36 1   
    14    6    7 1   
    15    6   37 1   
    16    6   38 1   
    17    7    8 2   
    18    7   12 1   
    19    8    9 1   
    20    8   39 1   
    21    9   10 2   
    22    9   40 1   
    23   10   11 1   
    24   10   16 1   
    25   11   13 1   
    26   11   41 1   
    27   11   42 1   
    28   12   21 2   
    29   13   14 1   
    30   13   43 1   
    31   13   44 1   
    32   14   15 1   
    33   14   45 1   
    34   14   46 1   
    35   15   16 1   
    36   15   19 1   
    37   15   20 1   
    38   16   17 1   
    39   16   47 1   
    40   17   18 1   
    41   17   48 1   
    42   17   49 1   
    43   18   19 1   
    44   18   50 1   
    45   18   51 1   
    46   19   22 1   
    47   19   52 1   
    48   20   53 1   
    49   20   54 1   
    50   20   55 1   
    51   21   56 1   
    52   21   57 1   
    53   22   23 1   
    54   22   24 1   
    55   22   58 1   
    56   23   59 1   
    57   23   60 1   
    58   23   61 1   
    59   24   25 1   
    60   24   62 1   
    61   24   63 1   
    62   25   26 1   
    63   25   64 1   
    64   25   65 1   
    65   26   27 1   
    66   26   66 1   
    67   26   67 1   
    68   27   28 1   
    69   27   29 1   
    70   28   68 1   
    71   28   69 1   
    72   28   70 1   
    73   29   71 1   
    74   29   72 1   
    75   29   73 1   
@<TRIPOS>SUBSTRUCTURE
     1 VDY         1 TEMP              0 ****  ****    0 ROOT
