@<TRIPOS>MOLECULE
VDY
   73    75     1     0     0
SMALL
bcc


@<TRIPOS>ATOM
      1 O1         -0.3130    0.5180    0.5310 oh        1 VDY     -0.600800
      2 O2         13.8250   -4.5460   -2.6960 oh        1 VDY     -0.597800
      3 C1          3.0560    1.6160   -0.7240 c3        1 VDY     -0.037200
      4 C2          1.5620    1.6830   -0.4900 c3        1 VDY     -0.110400
      5 C3          1.0680    0.4180    0.2030 c3        1 VDY      0.144100
      6 C4          1.8040    0.1940    1.5230 c3        1 VDY     -0.037200
      7 C5          3.2830    0.1960    1.3230 ce        1 VDY     -0.079200
      8 C6          4.0440   -0.7750    1.8690 cf        1 VDY     -0.116000
      9 C7          5.4770   -0.8850    1.7230 cf        1 VDY     -0.150000
     10 C8          6.2980   -1.5830    2.5250 c2        1 VDY     -0.079400
     11 C9          5.8800   -2.2950    3.7710 c3        1 VDY     -0.044200
     12 C10         3.8060    1.3120    0.5320 ce        1 VDY     -0.076200
     13 C11         6.4690   -3.6890    3.9050 c3        1 VDY     -0.073400
     14 C12         7.9510   -3.7720    3.5850 c3        1 VDY     -0.067400
     15 C13         8.2480   -3.1370    2.2350 c3        1 VDY     -0.040000
     16 C14         7.7680   -1.6600    2.3180 c3        1 VDY     -0.036500
     17 C15         8.4270   -0.9950    1.1190 c3        1 VDY     -0.073400
     18 C16         9.7680   -1.7160    0.9710 c3        1 VDY     -0.079400
     19 C17         9.7450   -2.9490    1.8970 c3        1 VDY     -0.053700
     20 C18         7.5320   -3.8810    1.1210 c3        1 VDY     -0.083100
     21 C19         4.8800    2.0230    0.8970 c2        1 VDY     -0.211000
     22 C20        10.4630   -4.1430    1.2750 c3        1 VDY     -0.055700
     23 C21        10.4120   -5.3620    2.1760 c3        1 VDY     -0.091100
     24 C22        11.9200   -3.7900    0.9820 c3        1 VDY     -0.079400
     25 C23        12.5020   -4.6560   -0.1160 c3        1 VDY     -0.079400
     26 C24        13.9620   -4.3330   -0.3430 c3        1 VDY     -0.064400
     27 C25        14.5480   -5.0430   -1.5680 c3        1 VDY      0.147800
     28 C26        16.0250   -4.6840   -1.7070 c3        1 VDY     -0.123100
     29 C27        14.3900   -6.5560   -1.4740 c3        1 VDY     -0.123100
     30 HO1        -0.7770    0.7260   -0.2880 ho        1 VDY      0.399000
     31 HO2        14.1870   -4.9880   -3.4730 ho        1 VDY      0.397000
     32 H11         3.4060    2.5890   -1.1610 hc        1 VDY      0.049200
     33 H12         3.2810    0.8110   -1.4760 hc        1 VDY      0.049200
     34 H21         1.0320    1.8080   -1.4690 hc        1 VDY      0.048700
     35 H22         1.3100    2.5710    0.1470 hc        1 VDY      0.048700
     36 H31         1.2210   -0.4690   -0.4750 h1        1 VDY      0.036700
     37 H41         1.5260    1.0150    2.2370 hc        1 VDY      0.062200
     38 H42         1.4550   -0.7720    1.9720 hc        1 VDY      0.062200
     39 H61         3.5480   -1.5720    2.4530 ha        1 VDY      0.124000
     40 H71         5.9030   -0.3390    0.8590 ha        1 VDY      0.132000
     41 H91         6.2130   -1.6700    4.6460 hc        1 VDY      0.047700
     42 H92         4.7630   -2.3750    3.8330 hc        1 VDY      0.047700
     43 H111        6.3050   -4.0450    4.9570 hc        1 VDY      0.040200
     44 H112        5.9110   -4.3890    3.2290 hc        1 VDY      0.040200
     45 H121        8.2660   -4.8470    3.5890 hc        1 VDY      0.041700
     46 H122        8.5420   -3.2470    4.3810 hc        1 VDY      0.041700
     47 H141        8.2380   -1.2060    3.2430 hc        1 VDY      0.053700
     48 H151        8.5660    0.1010    1.2850 hc        1 VDY      0.044700
     49 H152        7.8090   -1.1260    0.1960 hc        1 VDY      0.044700
     50 H161       10.6100   -1.0380    1.2550 hc        1 VDY      0.043700
     51 H162        9.9220   -2.0260   -0.0930 hc        1 VDY      0.043700
     52 H171       10.2800   -2.6920    2.8530 hc        1 VDY      0.045700
     53 H181        7.7600   -4.9730    1.1700 hc        1 VDY      0.037700
     54 H182        7.8560   -3.4930    0.1240 hc        1 VDY      0.037700
     55 H183        6.4270   -3.7440    1.2050 hc        1 VDY      0.037700
     56 H191        5.2530    2.8660    0.3020 ha        1 VDY      0.117500
     57 H192        5.4410    1.8080    1.8160 ha        1 VDY      0.117500
     58 H201        9.9560   -4.3950    0.3000 hc        1 VDY      0.053700
     59 H211        9.3990   -5.8300    2.1520 hc        1 VDY      0.033367
     60 H212       11.1530   -6.1270    1.8390 hc        1 VDY      0.033367
     61 H213       10.6500   -5.0820    3.2310 hc        1 VDY      0.033367
     62 H221       12.0050   -2.7160    0.6720 hc        1 VDY      0.040200
     63 H222       12.5250   -3.9090    1.9190 hc        1 VDY      0.040200
     64 H231       11.9360   -4.4910   -1.0720 hc        1 VDY      0.048700
     65 H232       12.3920   -5.7400    0.1530 hc        1 VDY      0.048700
     66 H241       14.5650   -4.6290    0.5540 hc        1 VDY      0.047200
     67 H242       14.0800   -3.2270   -0.4910 hc        1 VDY      0.047200
     68 H261       16.1400   -3.5780   -1.8050 hc        1 VDY      0.042367
     69 H262       16.5890   -5.0330   -0.8110 hc        1 VDY      0.042367
     70 H263       16.4560   -5.1680   -2.6160 hc        1 VDY      0.042367
     71 H271       14.7780   -6.9200   -0.4940 hc        1 VDY      0.042367
     72 H272       13.3130   -6.8340   -1.5660 hc        1 VDY      0.042367
     73 H273       14.9570   -7.0560   -2.2950 hc        1 VDY      0.042367
@<TRIPOS>BOND
     1    1    5 1   
     2    1   30 1   
     3    2   27 1   
     4    2   31 1   
     5    3    4 1   
     6    3   12 1   
     7    3   32 1   
     8    3   33 1   
     9    4    5 1   
    10    4   34 1   
    11    4   35 1   
    12    5    6 1   
    13    5   36 1   
    14    6    7 1   
    15    6   37 1   
    16    6   38 1   
    17    7    8 2   
    18    7   12 1   
    19    8    9 1   
    20    8   39 1   
    21    9   10 2   
    22    9   40 1   
    23   10   11 1   
    24   10   16 1   
    25   11   13 1   
    26   11   41 1   
    27   11   42 1   
    28   12   21 2   
    29   13   14 1   
    30   13   43 1   
    31   13   44 1   
    32   14   15 1   
    33   14   45 1   
    34   14   46 1   
    35   15   16 1   
    36   15   19 1   
    37   15   20 1   
    38   16   17 1   
    39   16   47 1   
    40   17   18 1   
    41   17   48 1   
    42   17   49 1   
    43   18   19 1   
    44   18   50 1   
    45   18   51 1   
    46   19   22 1   
    47   19   52 1   
    48   20   53 1   
    49   20   54 1   
    50   20   55 1   
    51   21   56 1   
    52   21   57 1   
    53   22   23 1   
    54   22   24 1   
    55   22   58 1   
    56   23   59 1   
    57   23   60 1   
    58   23   61 1   
    59   24   25 1   
    60   24   62 1   
    61   24   63 1   
    62   25   26 1   
    63   25   64 1   
    64   25   65 1   
    65   26   27 1   
    66   26   66 1   
    67   26   67 1   
    68   27   28 1   
    69   27   29 1   
    70   28   68 1   
    71   28   69 1   
    72   28   70 1   
    73   29   71 1   
    74   29   72 1   
    75   29   73 1   
@<TRIPOS>SUBSTRUCTURE
     1 VDY         1 TEMP              0 ****  ****    0 ROOT
