@<TRIPOS>MOLECULE
VDZ
   74    76     1     0     0
SMALL
bcc


@<TRIPOS>ATOM
      1 O1          0.3300    0.0960    1.0790 oh        1 VDZ     -0.593800
      2 C1          1.6800    0.1490    0.6270 c3        1 VDZ      0.183300
      3 C2          2.6500   -0.0640    1.7550 c2        1 VDZ     -0.193400
      4 C28         3.4630    0.8980    2.1900 c2        1 VDZ     -0.198000
      5 C3          2.6180   -1.4580    2.3080 c3        1 VDZ      0.183300
      6 O2          3.5750   -1.6790    3.3360 oh        1 VDZ     -0.593800
      7 C4          2.9350   -2.4650    1.2000 c3        1 VDZ     -0.035200
      8 C10         1.8270   -0.9150   -0.4640 c3        1 VDZ     -0.035200
      9 C5          2.0020   -2.3010    0.0490 c2        1 VDZ     -0.105400
     10 C6          1.4090   -3.3780   -0.4990 ce        1 VDZ     -0.123000
     11 C7          0.5490   -3.3580   -1.6620 ce        1 VDZ     -0.146000
     12 C8         -0.4180   -4.2520   -1.9250 c2        1 VDZ     -0.077400
     13 C9         -0.7590   -5.4160   -1.0500 c3        1 VDZ     -0.044200
     14 C11        -2.2520   -5.6090   -0.8460 c3        1 VDZ     -0.073400
     15 C14        -1.2330   -4.2370   -3.1680 c3        1 VDZ     -0.036500
     16 C13        -2.7550   -4.1920   -2.8460 c3        1 VDZ     -0.040000
     17 C12        -3.0780   -5.4870   -2.1140 c3        1 VDZ     -0.067400
     18 C18        -3.0980   -2.9860   -1.9900 c3        1 VDZ     -0.084100
     19 C15        -1.0460   -3.1490   -4.2130 c3        1 VDZ     -0.073400
     20 C16        -2.3490   -3.1600   -5.0140 c3        1 VDZ     -0.078400
     21 C17        -3.3590   -4.0530   -4.2620 c3        1 VDZ     -0.054700
     22 C20        -4.7770   -3.4970   -4.3740 c3        1 VDZ     -0.054700
     23 C21        -5.1710   -3.3910   -5.8370 c3        1 VDZ     -0.093100
     24 C22        -5.7800   -4.3580   -3.6190 c3        1 VDZ     -0.076400
     25 C23        -7.2140   -3.9170   -3.8330 c3        1 VDZ     -0.079400
     26 C24        -8.1450   -4.6240   -2.8710 c3        1 VDZ     -0.064400
     27 C25        -9.5890   -4.1200   -2.9590 c3        1 VDZ      0.147800
     28 C26       -10.1590   -4.2720   -4.3640 c3        1 VDZ     -0.123600
     29 C27       -10.4570   -4.8870   -1.9640 c3        1 VDZ     -0.123600
     30 O3         -9.5500   -2.7390   -2.5950 oh        1 VDZ     -0.597800
     31 HO1         0.2640    0.6920    1.8340 ho        1 VDZ      0.399500
     32 H1          1.8540    1.1650    0.1630 h1        1 VDZ      0.044700
     33 H281        4.1960    0.7300    2.9910 ha        1 VDZ      0.119500
     34 H282        3.4610    1.9100    1.7630 ha        1 VDZ      0.119500
     35 H3          1.5810   -1.6530    2.7120 h1        1 VDZ      0.044700
     36 HO2         3.3420   -1.0890    4.0620 ho        1 VDZ      0.399500
     37 H41         2.8780   -3.4980    1.6300 hc        1 VDZ      0.063200
     38 H42         3.9910   -2.3040    0.8510 hc        1 VDZ      0.063200
     39 H101        2.7250   -0.6480   -1.0830 hc        1 VDZ      0.063200
     40 H102        0.9170   -0.8500   -1.1190 hc        1 VDZ      0.063200
     41 H6          1.5950   -4.3740   -0.0580 ha        1 VDZ      0.122000
     42 H7          0.7370   -2.5400   -2.3810 ha        1 VDZ      0.125000
     43 H91        -0.3310   -6.3400   -1.5300 hc        1 VDZ      0.047200
     44 H92        -0.2770   -5.3090   -0.0430 hc        1 VDZ      0.047200
     45 H111       -2.4210   -6.6250   -0.3990 hc        1 VDZ      0.041200
     46 H112       -2.6180   -4.8550   -0.0990 hc        1 VDZ      0.041200
     47 H14        -1.0290   -5.2250   -3.6840 hc        1 VDZ      0.053700
     48 H121       -2.8670   -6.3580   -2.7890 hc        1 VDZ      0.041200
     49 H122       -4.1640   -5.5300   -1.8440 hc        1 VDZ      0.041200
     50 H181       -4.1520   -3.0480   -1.6270 hc        1 VDZ      0.039700
     51 H182       -2.4200   -2.9260   -1.1050 hc        1 VDZ      0.039700
     52 H183       -2.9790   -2.0450   -2.5820 hc        1 VDZ      0.039700
     53 H151       -0.8940   -2.1500   -3.7320 hc        1 VDZ      0.044200
     54 H152       -0.1620   -3.3550   -4.8630 hc        1 VDZ      0.044200
     55 H161       -2.7420   -2.1180   -5.1130 hc        1 VDZ      0.041700
     56 H162       -2.1770   -3.5610   -6.0430 hc        1 VDZ      0.041700
     57 H17        -3.3580   -5.0750   -4.7330 hc        1 VDZ      0.045700
     58 H20        -4.7950   -2.4620   -3.9260 hc        1 VDZ      0.052700
     59 H211       -6.1310   -2.8290   -5.9390 hc        1 VDZ      0.033367
     60 H212       -4.3940   -2.8500   -6.4270 hc        1 VDZ      0.033367
     61 H213       -5.3050   -4.4080   -6.2790 hc        1 VDZ      0.033367
     62 H221       -5.5500   -4.3010   -2.5220 hc        1 VDZ      0.040200
     63 H222       -5.6660   -5.4290   -3.9340 hc        1 VDZ      0.040200
     64 H231       -7.5260   -4.1420   -4.8860 hc        1 VDZ      0.049700
     65 H232       -7.3030   -2.8090   -3.6830 hc        1 VDZ      0.049700
     66 H241       -7.7850   -4.4680   -1.8200 hc        1 VDZ      0.046200
     67 H242       -8.1460   -5.7260   -3.0780 hc        1 VDZ      0.046200
     68 H261       -9.9980   -5.3130   -4.7310 hc        1 VDZ      0.042033
     69 H262       -9.6560   -3.5580   -5.0590 hc        1 VDZ      0.042033
     70 H263      -11.2540   -4.0550   -4.3640 hc        1 VDZ      0.042033
     71 H271      -10.4580   -5.9730   -2.2160 hc        1 VDZ      0.042033
     72 H272      -10.0600   -4.7530   -0.9290 hc        1 VDZ      0.042033
     73 H273      -11.5060   -4.5090   -1.9940 hc        1 VDZ      0.042033
     74 HO3       -10.4560   -2.4140   -2.6440 ho        1 VDZ      0.396000
@<TRIPOS>BOND
     1    1    2 1   
     2    1   31 1   
     3    2    3 1   
     4    2    8 1   
     5    2   32 1   
     6    3    4 2   
     7    3    5 1   
     8    4   33 1   
     9    4   34 1   
    10    5    6 1   
    11    5    7 1   
    12    5   35 1   
    13    6   36 1   
    14    7    9 1   
    15    7   37 1   
    16    7   38 1   
    17    8    9 1   
    18    8   39 1   
    19    8   40 1   
    20    9   10 2   
    21   10   11 1   
    22   10   41 1   
    23   11   12 2   
    24   11   42 1   
    25   12   13 1   
    26   12   15 1   
    27   13   14 1   
    28   13   43 1   
    29   13   44 1   
    30   14   17 1   
    31   14   45 1   
    32   14   46 1   
    33   15   16 1   
    34   15   19 1   
    35   15   47 1   
    36   16   17 1   
    37   16   18 1   
    38   16   21 1   
    39   17   48 1   
    40   17   49 1   
    41   18   50 1   
    42   18   51 1   
    43   18   52 1   
    44   19   20 1   
    45   19   53 1   
    46   19   54 1   
    47   20   21 1   
    48   20   55 1   
    49   20   56 1   
    50   21   22 1   
    51   21   57 1   
    52   22   23 1   
    53   22   24 1   
    54   22   58 1   
    55   23   59 1   
    56   23   60 1   
    57   23   61 1   
    58   24   25 1   
    59   24   62 1   
    60   24   63 1   
    61   25   26 1   
    62   25   64 1   
    63   25   65 1   
    64   26   27 1   
    65   26   66 1   
    66   26   67 1   
    67   27   28 1   
    68   27   29 1   
    69   27   30 1   
    70   28   68 1   
    71   28   69 1   
    72   28   70 1   
    73   29   71 1   
    74   29   72 1   
    75   29   73 1   
    76   30   74 1   
@<TRIPOS>SUBSTRUCTURE
     1 VDZ         1 TEMP              0 ****  ****    0 ROOT
