@<TRIPOS>MOLECULE
VDZ
   74    76     1     0     0
SMALL
bcc


@<TRIPOS>ATOM
      1 O1         -4.3000    2.1970    1.2260 oh        1 VDZ     -0.593800
      2 C1         -5.3230    1.2400    1.4840 c3        1 VDZ      0.183800
      3 C2         -6.5700    1.5370    0.6990 c2        1 VDZ     -0.194400
      4 C28        -7.7080    1.9140    1.2810 c2        1 VDZ     -0.198000
      5 C3         -6.4000    1.3410   -0.7790 c3        1 VDZ      0.183800
      6 O2         -7.5920    1.5650   -1.5180 oh        1 VDZ     -0.593800
      7 C4         -5.9780   -0.1010   -1.0670 c3        1 VDZ     -0.035200
      8 C10        -4.7440   -0.1350    1.1400 c3        1 VDZ     -0.035200
      9 C5         -4.7430   -0.4560   -0.3130 c2        1 VDZ     -0.104400
     10 C6         -3.7240   -1.0760   -0.9370 ce        1 VDZ     -0.124000
     11 C7         -2.5110   -1.5390   -0.2990 ce        1 VDZ     -0.145000
     12 C8         -1.3210   -1.6800   -0.9080 c2        1 VDZ     -0.078400
     13 C9         -1.0650   -1.3760   -2.3490 c3        1 VDZ     -0.044200
     14 C11         0.2170   -0.5960   -2.5890 c3        1 VDZ     -0.072400
     15 C14        -0.1150   -2.2260   -0.2340 c3        1 VDZ     -0.036500
     16 C13         1.0830   -1.2380   -0.3310 c3        1 VDZ     -0.040000
     17 C12         1.4160   -1.1090   -1.8100 c3        1 VDZ     -0.066400
     18 C18         0.7260    0.1130    0.2650 c3        1 VDZ     -0.084100
     19 C15        -0.1490   -2.6210    1.2340 c3        1 VDZ     -0.074400
     20 C16         1.3180   -2.6120    1.6660 c3        1 VDZ     -0.078400
     21 C17         2.1410   -1.9590    0.5360 c3        1 VDZ     -0.054700
     22 C20         3.2840   -1.1200    1.1000 c3        1 VDZ     -0.053700
     23 C21         4.1870   -1.9930    1.9550 c3        1 VDZ     -0.094100
     24 C22         4.0930   -0.4530   -0.0050 c3        1 VDZ     -0.077400
     25 C23         5.3190    0.2680    0.5140 c3        1 VDZ     -0.079400
     26 C24         5.9420    1.1290   -0.5630 c3        1 VDZ     -0.104400
     27 C25         7.0820    2.0070   -0.0340 c3        1 VDZ      0.147800
     28 C26         8.2290    1.1670    0.5160 c3        1 VDZ     -0.103100
     29 C27         7.5830    2.9090   -1.1590 c3        1 VDZ     -0.103100
     30 O3          6.6330    2.8090    1.0590 oh        1 VDZ     -0.596800
     31 HO1        -4.6960    3.0680    1.3420 ho        1 VDZ      0.399500
     32 H1         -5.5550    1.2650    2.5900 h1        1 VDZ      0.044700
     33 H281       -7.7990    2.0490    2.3670 ha        1 VDZ      0.119500
     34 H282       -8.6270    2.0970    0.7080 ha        1 VDZ      0.119500
     35 H3         -5.5960    2.0500   -1.1370 h1        1 VDZ      0.044700
     36 HO2        -7.8300    2.4910   -1.3870 ho        1 VDZ      0.399500
     37 H41        -6.8110   -0.7930   -0.7670 hc        1 VDZ      0.063200
     38 H42        -5.8310   -0.2150   -2.1730 hc        1 VDZ      0.063200
     39 H101       -3.7000   -0.1710    1.5520 hc        1 VDZ      0.063200
     40 H102       -5.3590   -0.9090    1.6750 hc        1 VDZ      0.063200
     41 H6         -3.8040   -1.2810   -2.0200 ha        1 VDZ      0.122000
     42 H7         -2.6050   -1.8080    0.7690 ha        1 VDZ      0.125000
     43 H91        -1.0080   -2.3560   -2.8990 hc        1 VDZ      0.047200
     44 H92        -1.9170   -0.7950   -2.7900 hc        1 VDZ      0.047200
     45 H111        0.4550   -0.6320   -3.6860 hc        1 VDZ      0.040700
     46 H112        0.0440    0.4800   -2.3230 hc        1 VDZ      0.040700
     47 H14         0.1710   -3.1560   -0.8160 hc        1 VDZ      0.054700
     48 H121        1.7280   -2.1100   -2.2090 hc        1 VDZ      0.040700
     49 H122        2.2750   -0.4070   -1.9640 hc        1 VDZ      0.040700
     50 H181        0.6110    0.0290    1.3730 hc        1 VDZ      0.038700
     51 H182        1.5230    0.8620    0.0450 hc        1 VDZ      0.038700
     52 H183       -0.2390    0.4860   -0.1570 hc        1 VDZ      0.038700
     53 H151       -0.7360   -1.8830    1.8360 hc        1 VDZ      0.044200
     54 H152       -0.6140   -3.6270    1.3750 hc        1 VDZ      0.044200
     55 H161        1.4300   -2.0350    2.6180 hc        1 VDZ      0.041700
     56 H162        1.6820   -3.6520    1.8510 hc        1 VDZ      0.041700
     57 H17         2.5970   -2.7730   -0.0950 hc        1 VDZ      0.045700
     58 H20         2.8490   -0.3120    1.7540 hc        1 VDZ      0.051700
     59 H211        3.5960   -2.5690    2.7070 hc        1 VDZ      0.034700
     60 H212        4.7480   -2.7170    1.3170 hc        1 VDZ      0.034700
     61 H213        4.9230   -1.3610    2.5090 hc        1 VDZ      0.034700
     62 H221        4.4020   -1.2230   -0.7600 hc        1 VDZ      0.040200
     63 H222        3.4370    0.2900   -0.5320 hc        1 VDZ      0.040200
     64 H231        5.0450    0.9130    1.3910 hc        1 VDZ      0.049700
     65 H232        6.0750   -0.4790    0.8730 hc        1 VDZ      0.049700
     66 H241        6.3400    0.4810   -1.3860 hc        1 VDZ      0.042700
     67 H242        5.1570    1.7960   -1.0090 hc        1 VDZ      0.042700
     68 H261        8.5430    0.4180   -0.2470 hc        1 VDZ      0.043200
     69 H262        9.0940    1.8250    0.7680 hc        1 VDZ      0.043200
     70 H263        7.9050    0.6400    1.4450 hc        1 VDZ      0.043200
     71 H271        6.7430    3.5120   -1.5780 hc        1 VDZ      0.043200
     72 H272        8.3610    3.6060   -0.7660 hc        1 VDZ      0.043200
     73 H273        8.0260    2.2910   -1.9740 hc        1 VDZ      0.043200
     74 HO3         5.8840    3.3230    0.7380 ho        1 VDZ      0.397000
@<TRIPOS>BOND
     1    1    2 1   
     2    1   31 1   
     3    2    3 1   
     4    2    8 1   
     5    2   32 1   
     6    3    4 2   
     7    3    5 1   
     8    4   33 1   
     9    4   34 1   
    10    5    6 1   
    11    5    7 1   
    12    5   35 1   
    13    6   36 1   
    14    7    9 1   
    15    7   37 1   
    16    7   38 1   
    17    8    9 1   
    18    8   39 1   
    19    8   40 1   
    20    9   10 2   
    21   10   11 1   
    22   10   41 1   
    23   11   12 2   
    24   11   42 1   
    25   12   13 1   
    26   12   15 1   
    27   13   14 1   
    28   13   43 1   
    29   13   44 1   
    30   14   17 1   
    31   14   45 1   
    32   14   46 1   
    33   15   16 1   
    34   15   19 1   
    35   15   47 1   
    36   16   17 1   
    37   16   18 1   
    38   16   21 1   
    39   17   48 1   
    40   17   49 1   
    41   18   50 1   
    42   18   51 1   
    43   18   52 1   
    44   19   20 1   
    45   19   53 1   
    46   19   54 1   
    47   20   21 1   
    48   20   55 1   
    49   20   56 1   
    50   21   22 1   
    51   21   57 1   
    52   22   23 1   
    53   22   24 1   
    54   22   58 1   
    55   23   59 1   
    56   23   60 1   
    57   23   61 1   
    58   24   25 1   
    59   24   62 1   
    60   24   63 1   
    61   25   26 1   
    62   25   64 1   
    63   25   65 1   
    64   26   27 1   
    65   26   66 1   
    66   26   67 1   
    67   27   28 1   
    68   27   29 1   
    69   27   30 1   
    70   28   68 1   
    71   28   69 1   
    72   28   70 1   
    73   29   71 1   
    74   29   72 1   
    75   29   73 1   
    76   30   74 1   
@<TRIPOS>SUBSTRUCTURE
     1 VDZ         1 TEMP              0 ****  ****    0 ROOT
