@<TRIPOS>MOLECULE
VDZ
   74    76     1     0     0
SMALL
bcc


@<TRIPOS>ATOM
      1 O1          0.3430    0.1530    1.0170 oh        1 VDZ     -0.598300
      2 C1          1.6990    0.1860    0.5810 c3        1 VDZ      0.184800
      3 C2          2.6560   -0.0030    1.7240 c2        1 VDZ     -0.171400
      4 C28         3.4510    0.9730    2.1640 c2        1 VDZ     -0.174000
      5 C3          2.6220   -1.3830    2.3040 c3        1 VDZ      0.184800
      6 O2          3.5770   -1.4690    3.3570 oh        1 VDZ     -0.598300
      7 C4          2.9230   -2.4190    1.2180 c3        1 VDZ     -0.054200
      8 C10         1.8490   -0.9000   -0.4880 c3        1 VDZ     -0.054200
      9 C5          2.0010   -2.2760    0.0580 c2        1 VDZ     -0.100400
     10 C6          1.3960   -3.3590   -0.4670 ce        1 VDZ     -0.125000
     11 C7          0.5420   -3.3560   -1.6340 ce        1 VDZ     -0.145000
     12 C8         -0.4290   -4.2510   -1.8860 c2        1 VDZ     -0.077400
     13 C9         -0.7800   -5.3970   -0.9920 c3        1 VDZ     -0.044200
     14 C11        -2.2750   -5.5790   -0.7920 c3        1 VDZ     -0.073400
     15 C14        -1.2360   -4.2540   -3.1330 c3        1 VDZ     -0.036500
     16 C13        -2.7600   -4.1960   -2.8210 c3        1 VDZ     -0.039000
     17 C12        -3.0930   -5.4760   -2.0680 c3        1 VDZ     -0.067400
     18 C18        -3.1020   -2.9720   -1.9900 c3        1 VDZ     -0.085100
     19 C15        -1.0380   -3.1860   -4.1970 c3        1 VDZ     -0.074400
     20 C16        -2.3360   -3.2050   -5.0050 c3        1 VDZ     -0.078400
     21 C17        -3.3550   -4.0790   -4.2430 c3        1 VDZ     -0.054700
     22 C20        -4.7690   -3.5180   -4.3730 c3        1 VDZ     -0.054700
     23 C21        -5.1550   -3.4380   -5.8400 c3        1 VDZ     -0.093100
     24 C22        -5.7810   -4.3620   -3.6090 c3        1 VDZ     -0.076400
     25 C23        -7.2120   -3.9190   -3.8390 c3        1 VDZ     -0.079400
     26 C24        -8.1520   -4.6050   -2.8720 c3        1 VDZ     -0.064400
     27 C25        -9.5930   -4.0960   -2.9770 c3        1 VDZ      0.147800
     28 C26       -10.1540   -4.2690   -4.3830 c3        1 VDZ     -0.123600
     29 C27       -10.4700   -4.8410   -1.9740 c3        1 VDZ     -0.123600
     30 O3         -9.5490   -2.7080   -2.6360 oh        1 VDZ     -0.597800
     31 HO1         0.2880    0.7030    1.8070 ho        1 VDZ      0.402500
     32 H1          1.8830    1.1910    0.0970 h1        1 VDZ      0.045200
     33 H281        4.1530    0.8180    2.9960 ha        1 VDZ      0.124000
     34 H282        3.4510    1.9770    1.7210 ha        1 VDZ      0.124000
     35 H3          1.5900   -1.5670    2.7260 h1        1 VDZ      0.045200
     36 HO2         3.5500   -2.3780    3.6750 ho        1 VDZ      0.402500
     37 H41         3.9820   -2.2800    0.8680 hc        1 VDZ      0.058450
     38 H42         2.8500   -3.4450    1.6660 hc        1 VDZ      0.058450
     39 H101        0.9490   -0.8390   -1.1570 hc        1 VDZ      0.058450
     40 H102        2.7590   -0.6570   -1.1000 hc        1 VDZ      0.058450
     41 H6          1.5670   -4.3460   -0.0000 ha        1 VDZ      0.119000
     42 H7          0.7370   -2.5530   -2.3680 ha        1 VDZ      0.125000
     43 H91        -0.3540   -6.3310   -1.4520 hc        1 VDZ      0.045700
     44 H92        -0.3040   -5.2740    0.0160 hc        1 VDZ      0.045700
     45 H111       -2.6420   -4.8090   -0.0620 hc        1 VDZ      0.041200
     46 H112       -2.4520   -6.5850   -0.3280 hc        1 VDZ      0.041200
     47 H14        -1.0340   -5.2520   -3.6300 hc        1 VDZ      0.053700
     48 H121       -4.1810   -5.5080   -1.8030 hc        1 VDZ      0.041200
     49 H122       -2.8830   -6.3600   -2.7260 hc        1 VDZ      0.041200
     50 H181       -2.9750   -2.0430   -2.5980 hc        1 VDZ      0.039700
     51 H182       -2.4280   -2.9000   -1.1010 hc        1 VDZ      0.039700
     52 H183       -4.1570   -3.0230   -1.6320 hc        1 VDZ      0.039700
     53 H151       -0.8830   -2.1790   -3.7330 hc        1 VDZ      0.044200
     54 H152       -0.1500   -3.4080   -4.8380 hc        1 VDZ      0.044200
     55 H161       -2.1600   -3.6260   -6.0260 hc        1 VDZ      0.042200
     56 H162       -2.7240   -2.1630   -5.1250 hc        1 VDZ      0.042200
     57 H17        -3.3560   -5.1100   -4.6950 hc        1 VDZ      0.045700
     58 H20        -4.7850   -2.4770   -3.9440 hc        1 VDZ      0.053700
     59 H211       -6.1110   -2.8730   -5.9570 hc        1 VDZ      0.033700
     60 H212       -5.2910   -4.4610   -6.2650 hc        1 VDZ      0.033700
     61 H213       -4.3710   -2.9100   -6.4350 hc        1 VDZ      0.033700
     62 H221       -5.5570   -4.2860   -2.5120 hc        1 VDZ      0.039700
     63 H222       -5.6700   -5.4380   -3.9030 hc        1 VDZ      0.039700
     64 H231       -7.2960   -2.8070   -3.7100 hc        1 VDZ      0.049700
     65 H232       -7.5180   -4.1610   -4.8910 hc        1 VDZ      0.049700
     66 H241       -7.7980   -4.4320   -1.8210 hc        1 VDZ      0.046200
     67 H242       -8.1560   -5.7100   -3.0590 hc        1 VDZ      0.046200
     68 H261       -9.9970   -5.3170   -4.7310 hc        1 VDZ      0.042200
     69 H262       -9.6440   -3.5700   -5.0870 hc        1 VDZ      0.042200
     70 H263      -11.2480   -4.0470   -4.3930 hc        1 VDZ      0.042200
     71 H271      -11.5180   -4.4590   -2.0170 hc        1 VDZ      0.042200
     72 H272      -10.4750   -5.9320   -2.2080 hc        1 VDZ      0.042200
     73 H273      -10.0790   -4.6910   -0.9400 hc        1 VDZ      0.042200
     74 HO3       -10.4540   -2.3800   -2.6960 ho        1 VDZ      0.396000
@<TRIPOS>BOND
     1    1    2 1   
     2    1   31 1   
     3    2    3 1   
     4    2    8 1   
     5    2   32 1   
     6    3    4 2   
     7    3    5 1   
     8    4   33 1   
     9    4   34 1   
    10    5    6 1   
    11    5    7 1   
    12    5   35 1   
    13    6   36 1   
    14    7    9 1   
    15    7   37 1   
    16    7   38 1   
    17    8    9 1   
    18    8   39 1   
    19    8   40 1   
    20    9   10 2   
    21   10   11 1   
    22   10   41 1   
    23   11   12 2   
    24   11   42 1   
    25   12   13 1   
    26   12   15 1   
    27   13   14 1   
    28   13   43 1   
    29   13   44 1   
    30   14   17 1   
    31   14   45 1   
    32   14   46 1   
    33   15   16 1   
    34   15   19 1   
    35   15   47 1   
    36   16   17 1   
    37   16   18 1   
    38   16   21 1   
    39   17   48 1   
    40   17   49 1   
    41   18   50 1   
    42   18   51 1   
    43   18   52 1   
    44   19   20 1   
    45   19   53 1   
    46   19   54 1   
    47   20   21 1   
    48   20   55 1   
    49   20   56 1   
    50   21   22 1   
    51   21   57 1   
    52   22   23 1   
    53   22   24 1   
    54   22   58 1   
    55   23   59 1   
    56   23   60 1   
    57   23   61 1   
    58   24   25 1   
    59   24   62 1   
    60   24   63 1   
    61   25   26 1   
    62   25   64 1   
    63   25   65 1   
    64   26   27 1   
    65   26   66 1   
    66   26   67 1   
    67   27   28 1   
    68   27   29 1   
    69   27   30 1   
    70   28   68 1   
    71   28   69 1   
    72   28   70 1   
    73   29   71 1   
    74   29   72 1   
    75   29   73 1   
    76   30   74 1   
@<TRIPOS>SUBSTRUCTURE
     1 VDZ         1 TEMP              0 ****  ****    0 ROOT
