@<TRIPOS>MOLECULE
VEK
   50    54     1     0     0
SMALL
bcc


@<TRIPOS>ATOM
      1 C01         0.0570   -0.3110   -0.1580 c3        1 VEK     -0.141400
      2 C02         1.4290   -0.0390    0.2600 cc        1 VEK      0.267000
      3 C03         2.3250   -0.6040    1.1450 cd        1 VEK     -0.342600
      4 C04         3.5230    0.2270    1.0290 cd        1 VEK      0.314600
      5 C05         4.7740    0.0650    1.8270 c3        1 VEK      0.128500
      6 N06         5.3320   -1.2840    1.7870 n3        1 VEK     -0.708600
      7 C07         6.5470   -1.3860    2.5850 c3        1 VEK      0.153300
      8 C08         7.8040   -0.7700    1.9360 c3        1 VEK      0.149300
      9 N09         8.0000   -1.2020    0.5600 nh        1 VEK     -0.636000
     10 C10         9.1290   -0.5940   -0.0640 ca        1 VEK      0.161600
     11 C11        10.2780   -1.3440   -0.3630 ca        1 VEK     -0.123200
     12 Br         10.4060   -3.1650    0.0290 br        1 VEK     -0.053100
     13 C13        11.3950   -0.7150   -0.9860 ca        1 VEK      0.407200
     14 N14        11.4830    0.5680   -1.3360 nb        1 VEK     -0.595000
     15 C15        10.3860    1.3310   -1.0610 ca        1 VEK      0.541300
     16 N16        10.1750    2.7090   -1.3160 nc        1 VEK     -0.608700
     17 C17         8.9260    2.9680   -0.8550 cd        1 VEK      0.525400
     18 C18         8.3000    4.2710   -0.8820 cd        1 VEK     -0.282500
     19 C19         8.9510    5.5290   -0.9010 cc        1 VEK      0.379200
     20 N20         8.0100    6.5480   -0.9200 nc        1 VEK     -0.671000
     21 C21         6.8020    5.9380   -0.9210 cd        1 VEK      0.417400
     22 N22         6.9180    4.5430   -0.8910 na        1 VEK     -0.196900
     23 C23         5.8390    3.6150   -0.9700 c3        1 VEK      0.015600
     24 N24         8.2880    1.8290   -0.3100 na        1 VEK     -0.279300
     25 C25         9.1910    0.7740   -0.4210 ca        1 VEK     -0.215500
     26 C26         6.8060   -1.2080   -0.2710 c3        1 VEK      0.149300
     27 C27         5.5740   -1.7960    0.4470 c3        1 VEK      0.153300
     28 N28         3.2950    1.1990    0.1200 nc        1 VEK     -0.385300
     29 O29         2.0720    1.0730   -0.3480 os        1 VEK     -0.122100
     30 H01         0.0110   -0.4620   -1.2670 hc        1 VEK      0.068033
     31 H01A       -0.6070    0.5510    0.1060 hc        1 VEK      0.068033
     32 H01B       -0.3210   -1.2320    0.3510 hc        1 VEK      0.068033
     33 H03         2.2130   -1.4680    1.7920 ha        1 VEK      0.187000
     34 H05         4.5110    0.2810    2.9050 h1        1 VEK      0.048200
     35 H05A        5.5300    0.8410    1.4980 h1        1 VEK      0.048200
     36 H07         6.7240   -2.4840    2.7640 h1        1 VEK      0.069200
     37 H07A        6.3900   -0.8870    3.5800 h1        1 VEK      0.069200
     38 H08         8.7050   -1.1030    2.5240 h1        1 VEK      0.041700
     39 H08A        7.7400    0.3550    2.0190 h1        1 VEK      0.041700
     40 H13        12.2960   -1.3170   -1.2180 h4        1 VEK      0.041100
     41 H19        10.0260    5.7190   -0.9040 h4        1 VEK      0.064100
     42 H21         5.8300    6.4460   -0.9380 h5        1 VEK      0.067100
     43 H23         5.6550    3.1390    0.0330 h1        1 VEK      0.062033
     44 H23A        4.9030    4.1530   -1.2810 h1        1 VEK      0.062033
     45 H23B        6.0630    2.8150   -1.7250 h1        1 VEK      0.062033
     46 HN24        7.4040    1.7990    0.1250 hn        1 VEK      0.309700
     47 H26         6.5380   -0.1770   -0.6440 h1        1 VEK      0.041700
     48 H26A        7.0300   -1.8470   -1.1710 h1        1 VEK      0.041700
     49 H27         4.6720   -1.6050   -0.1970 h1        1 VEK      0.069200
     50 H27A        5.7060   -2.9110    0.5470 h1        1 VEK      0.069200
@<TRIPOS>BOND
     1    1    2 1   
     2    1   30 1   
     3    1   31 1   
     4    1   32 1   
     5    2    3 2   
     6    2   29 1   
     7    3    4 1   
     8    3   33 1   
     9    4    5 1   
    10    4   28 2   
    11    5    6 1   
    12    5   34 1   
    13    5   35 1   
    14    6    7 1   
    15    6   27 1   
    16    7    8 1   
    17    7   36 1   
    18    7   37 1   
    19    8    9 1   
    20    8   38 1   
    21    8   39 1   
    22    9   10 1   
    23    9   26 1   
    24   10   11 ar  
    25   10   25 ar  
    26   11   12 1   
    27   11   13 ar  
    28   13   14 ar  
    29   13   40 1   
    30   14   15 ar  
    31   15   16 1   
    32   15   25 ar  
    33   16   17 2   
    34   17   18 1   
    35   17   24 1   
    36   18   19 2   
    37   18   22 1   
    38   19   20 1   
    39   19   41 1   
    40   20   21 2   
    41   21   22 1   
    42   21   42 1   
    43   22   23 1   
    44   23   43 1   
    45   23   44 1   
    46   23   45 1   
    47   24   25 1   
    48   24   46 1   
    49   26   27 1   
    50   26   47 1   
    51   26   48 1   
    52   27   49 1   
    53   27   50 1   
    54   28   29 1   
@<TRIPOS>SUBSTRUCTURE
     1 VEK         1 TEMP              0 ****  ****    0 ROOT
