@<TRIPOS>MOLECULE
VEK
   50    54     1     0     0
SMALL
bcc


@<TRIPOS>ATOM
      1 C01         0.0580   -0.3130   -0.1960 c3        1 VEK     -0.141400
      2 C02         1.4290   -0.0470    0.2310 cc        1 VEK      0.267000
      3 C03         2.3240   -0.6270    1.1070 cd        1 VEK     -0.342600
      4 C04         3.5210    0.2070    1.0090 cd        1 VEK      0.314600
      5 C05         4.7690    0.0320    1.8080 c3        1 VEK      0.128500
      6 N06         5.3290   -1.3150    1.7440 n3        1 VEK     -0.708600
      7 C07         6.5420   -1.4300    2.5440 c3        1 VEK      0.153300
      8 C08         7.8010   -0.8010    1.9110 c3        1 VEK      0.149300
      9 N09         8.0010   -1.2070    0.5280 nh        1 VEK     -0.636000
     10 C10         9.1320   -0.5870   -0.0820 ca        1 VEK      0.161600
     11 C11        10.2820   -1.3300   -0.3910 ca        1 VEK     -0.123200
     12 BR         10.4110   -3.1580   -0.0330 br        1 VEK     -0.053100
     13 C13        11.4000   -0.6880   -0.9990 ca        1 VEK      0.407200
     14 N14        11.4880    0.6010   -1.3240 nb        1 VEK     -0.595000
     15 C15        10.3890    1.3580   -1.0380 ca        1 VEK      0.541300
     16 N16        10.1780    2.7410   -1.2680 nc        1 VEK     -0.608700
     17 C17         8.9270    2.9890   -0.8060 cd        1 VEK      0.525400
     18 C18         8.3000    4.2920   -0.8110 cd        1 VEK     -0.282500
     19 C19         8.9490    5.5510   -0.8040 cc        1 VEK      0.379200
     20 N20         8.0080    6.5690   -0.8070 nc        1 VEK     -0.671000
     21 C21         6.8000    5.9580   -0.8240 cd        1 VEK      0.417400
     22 N22         6.9180    4.5630   -0.8200 na        1 VEK     -0.196900
     23 C23         5.8400    3.6350   -0.9190 c3        1 VEK      0.015600
     24 N24         8.2880    1.8390   -0.2850 na        1 VEK     -0.279300
     25 C25         9.1930    0.7880   -0.4130 ca        1 VEK     -0.215500
     26 C26         6.8100   -1.1990   -0.3070 c3        1 VEK      0.149300
     27 C27         5.5760   -1.8020    0.3960 c3        1 VEK      0.153300
     28 N28         3.2940    1.1960    0.1180 nc        1 VEK     -0.385300
     29 O29         2.0720    1.0770   -0.3560 os        1 VEK     -0.122100
     30 H01         0.0100   -0.4180   -1.3100 hc        1 VEK      0.068033
     31 H01A       -0.6120    0.5330    0.1040 hc        1 VEK      0.068033
     32 H01B       -0.3110   -1.2560    0.2770 hc        1 VEK      0.068033
     33 H03         2.2110   -1.5030    1.7370 ha        1 VEK      0.187000
     34 H05         4.5030    0.2280    2.8890 h1        1 VEK      0.048200
     35 H05A        5.5260    0.8160    1.4960 h1        1 VEK      0.048200
     36 H07         6.7200   -2.5310    2.7030 h1        1 VEK      0.069200
     37 H07A        6.3810   -0.9500    3.5480 h1        1 VEK      0.069200
     38 H08         7.7340    0.3220    2.0150 h1        1 VEK      0.041700
     39 H08A        8.7000   -1.1440    2.4950 h1        1 VEK      0.041700
     40 H13        12.3020   -1.2850   -1.2390 h4        1 VEK      0.041100
     41 H19        10.0240    5.7420   -0.8000 h4        1 VEK      0.064100
     42 H21         5.8280    6.4650   -0.8340 h5        1 VEK      0.067100
     43 H23         5.6530    3.1400    0.0740 h1        1 VEK      0.062033
     44 H23A        6.0670    2.8490   -1.6880 h1        1 VEK      0.062033
     45 H23B        4.9040    4.1780   -1.2230 h1        1 VEK      0.062033
     46 HN24        7.4030    1.8010    0.1470 hn        1 VEK      0.309700
     47 H26         6.5420   -0.1610   -0.6620 h1        1 VEK      0.041700
     48 H26A        7.0370   -1.8210   -1.2180 h1        1 VEK      0.041700
     49 H27         4.6760   -1.5990   -0.2480 h1        1 VEK      0.069200
     50 H27A        5.7090   -2.9180    0.4750 h1        1 VEK      0.069200
@<TRIPOS>BOND
     1    1    2 1   
     2    1   30 1   
     3    1   31 1   
     4    1   32 1   
     5    2    3 2   
     6    2   29 1   
     7    3    4 1   
     8    3   33 1   
     9    4    5 1   
    10    4   28 2   
    11    5    6 1   
    12    5   34 1   
    13    5   35 1   
    14    6    7 1   
    15    6   27 1   
    16    7    8 1   
    17    7   36 1   
    18    7   37 1   
    19    8    9 1   
    20    8   38 1   
    21    8   39 1   
    22    9   10 1   
    23    9   26 1   
    24   10   11 ar  
    25   10   25 ar  
    26   11   12 1   
    27   11   13 ar  
    28   13   14 ar  
    29   13   40 1   
    30   14   15 ar  
    31   15   16 1   
    32   15   25 ar  
    33   16   17 2   
    34   17   18 1   
    35   17   24 1   
    36   18   19 2   
    37   18   22 1   
    38   19   20 1   
    39   19   41 1   
    40   20   21 2   
    41   21   22 1   
    42   21   42 1   
    43   22   23 1   
    44   23   43 1   
    45   23   44 1   
    46   23   45 1   
    47   24   25 1   
    48   24   46 1   
    49   26   27 1   
    50   26   47 1   
    51   26   48 1   
    52   27   49 1   
    53   27   50 1   
    54   28   29 1   
@<TRIPOS>SUBSTRUCTURE
     1 VEK         1 TEMP              0 ****  ****    0 ROOT
