@<TRIPOS>MOLECULE
VEK
   50    54     1     0     0
SMALL
bcc


@<TRIPOS>ATOM
      1 C01         6.5070   -3.3450    0.9190 c3        1 VEK     -0.141400
      2 C02         5.3580   -2.6630    0.3290 cc        1 VEK      0.267000
      3 C03         4.3220   -3.0160   -0.5120 cd        1 VEK     -0.342600
      4 C04         3.5480   -1.7860   -0.6690 cd        1 VEK      0.314600
      5 C05         2.3440   -1.6210   -1.5360 c3        1 VEK      0.128500
      6 N06         1.3000   -2.6120   -1.2940 n3        1 VEK     -0.708600
      7 C07         0.1520   -2.4070   -2.1700 c3        1 VEK      0.153300
      8 C08        -0.7690   -1.2350   -1.7710 c3        1 VEK      0.149300
      9 N09        -1.1360   -1.2580   -0.3630 nh        1 VEK     -0.636000
     10 C10        -1.9420   -0.1470    0.0260 ca        1 VEK      0.161600
     11 C11        -3.2970   -0.3190    0.3520 ca        1 VEK     -0.123200
     12 BR         -4.1270   -1.9900    0.3020 br        1 VEK     -0.053100
     13 C13        -4.0830    0.8060    0.7360 ca        1 VEK      0.407200
     14 N14        -3.6630    2.0670    0.8260 nb        1 VEK     -0.595000
     15 C15        -2.3510    2.2760    0.5160 ca        1 VEK      0.541300
     16 N16        -1.6170    3.4890    0.5240 nc        1 VEK     -0.608700
     17 C17        -0.3620    3.1460    0.1420 cd        1 VEK      0.525400
     18 C18         0.7260    4.0850   -0.0200 cd        1 VEK     -0.282500
     19 C19         0.6230    5.4690   -0.3010 cc        1 VEK      0.379200
     20 N20         1.8890    6.0290   -0.3880 nc        1 VEK     -0.671000
     21 C21         2.7600    5.0190   -0.1570 cd        1 VEK      0.417400
     22 N22         2.1030    3.8020    0.0680 na        1 VEK     -0.196900
     23 C23         2.7290    2.5710    0.4220 c3        1 VEK      0.015600
     24 N24        -0.2170    1.7620   -0.1140 na        1 VEK     -0.279300
     25 C25        -1.4640    1.1830    0.1100 ca        1 VEK     -0.215500
     26 C26        -0.0510   -1.5440    0.5640 c3        1 VEK      0.149300
     27 C27         0.8590   -2.6970    0.0900 c3        1 VEK      0.153300
     28 N28         4.1290   -0.8060    0.0560 nc        1 VEK     -0.385300
     29 O29         5.1980   -1.2890    0.6520 os        1 VEK     -0.122100
     30 H01         7.4600   -2.9010    0.5340 hc        1 VEK      0.068367
     31 H01A        6.4950   -3.2360    2.0330 hc        1 VEK      0.068367
     32 H01B        6.4800   -4.4320    0.6570 hc        1 VEK      0.068367
     33 H03         4.0920   -3.9730   -0.9700 ha        1 VEK      0.187000
     34 H05         1.9510   -0.5640   -1.4340 h1        1 VEK      0.048200
     35 H05A        2.6840   -1.7550   -2.6060 h1        1 VEK      0.048200
     36 H07         0.5050   -2.2290   -3.2220 h1        1 VEK      0.069200
     37 H07A       -0.4410   -3.3650   -2.1520 h1        1 VEK      0.069200
     38 H08        -0.2650   -0.2660   -2.0590 h1        1 VEK      0.041700
     39 H08A       -1.7210   -1.3150   -2.3670 h1        1 VEK      0.041700
     40 H13        -5.1510    0.6580    0.9920 h4        1 VEK      0.041100
     41 H19        -0.2900    6.0520   -0.4360 h4        1 VEK      0.064100
     42 H21         3.8520    5.1070   -0.1450 h5        1 VEK      0.067100
     43 H23         2.7230    1.8610   -0.4500 h1        1 VEK      0.062033
     44 H23A        3.7970    2.7630    0.7130 h1        1 VEK      0.062033
     45 H23B        2.1980    2.0970    1.2910 h1        1 VEK      0.062033
     46 HN24        0.5890    1.3050   -0.4500 hn        1 VEK      0.309700
     47 H26         0.5970   -0.6400    0.7570 h1        1 VEK      0.041700
     48 H26A       -0.5190   -1.8430    1.5430 h1        1 VEK      0.041700
     49 H27         0.3000   -3.6700    0.1910 h1        1 VEK      0.069200
     50 H27A        1.7550   -2.7330    0.7680 h1        1 VEK      0.069200
@<TRIPOS>BOND
     1    1    2 1   
     2    1   30 1   
     3    1   31 1   
     4    1   32 1   
     5    2    3 2   
     6    2   29 1   
     7    3    4 1   
     8    3   33 1   
     9    4    5 1   
    10    4   28 2   
    11    5    6 1   
    12    5   34 1   
    13    5   35 1   
    14    6    7 1   
    15    6   27 1   
    16    7    8 1   
    17    7   36 1   
    18    7   37 1   
    19    8    9 1   
    20    8   38 1   
    21    8   39 1   
    22    9   10 1   
    23    9   26 1   
    24   10   11 ar  
    25   10   25 ar  
    26   11   12 1   
    27   11   13 ar  
    28   13   14 ar  
    29   13   40 1   
    30   14   15 ar  
    31   15   16 1   
    32   15   25 ar  
    33   16   17 2   
    34   17   18 1   
    35   17   24 1   
    36   18   19 2   
    37   18   22 1   
    38   19   20 1   
    39   19   41 1   
    40   20   21 2   
    41   21   22 1   
    42   21   42 1   
    43   22   23 1   
    44   23   43 1   
    45   23   44 1   
    46   23   45 1   
    47   24   25 1   
    48   24   46 1   
    49   26   27 1   
    50   26   47 1   
    51   26   48 1   
    52   27   49 1   
    53   27   50 1   
    54   28   29 1   
@<TRIPOS>SUBSTRUCTURE
     1 VEK         1 TEMP              0 ****  ****    0 ROOT
