@<TRIPOS>MOLECULE
VES
   14    14     1     0     0
SMALL
bcc


@<TRIPOS>ATOM
      1 N5          0.0040    0.2730    0.0010 n3        1 VES     -0.794200
      2 C4          1.4530    0.0830   -0.0120 c3        1 VES      0.142800
      3 C3          1.9520   -0.1710    1.4220 c3        1 VES     -0.103400
      4 C2          0.6980   -0.3270    2.2750 c3        1 VES     -0.103400
      5 C1         -0.4890   -0.1590    1.3070 c3        1 VES      0.142800
      6 H41C        1.9790    0.9630   -0.4690 h1        1 VES      0.046200
      7 H42C        1.6650   -0.8150   -0.6550 h1        1 VES      0.046200
      8 H11C       -1.2430    0.5610    1.7210 h1        1 VES      0.046200
      9 H12C       -1.0030   -1.1480    1.1590 h1        1 VES      0.046200
     10 H31C        2.5830   -1.0900    1.4580 hc        1 VES      0.046200
     11 H32C        2.5750    0.6850    1.7790 hc        1 VES      0.046200
     12 H21C        0.6630   -1.3300    2.7630 hc        1 VES      0.046200
     13 H22C        0.6610    0.4460    3.0800 hc        1 VES      0.046200
     14 H2         -0.2190    1.2400   -0.1490 hn        1 VES      0.345800
@<TRIPOS>BOND
     1    1    2 1   
     2    1    5 1   
     3    1   14 1   
     4    2    3 1   
     5    2    6 1   
     6    2    7 1   
     7    3    4 1   
     8    3   10 1   
     9    3   11 1   
    10    4    5 1   
    11    4   12 1   
    12    4   13 1   
    13    5    8 1   
    14    5    9 1   
@<TRIPOS>SUBSTRUCTURE
     1 VES         1 TEMP              0 ****  ****    0 ROOT
