@<TRIPOS>MOLECULE
VES
   14    14     1     0     0
SMALL
bcc


@<TRIPOS>ATOM
      1 N5         -0.8910    0.3700   -0.9150 n3        1 VES     -0.794200
      2 C4          0.7090    0.3700   -0.9150 c3        1 VES      0.142800
      3 C3          1.0820    0.3700    0.3620 c3        1 VES     -0.103400
      4 C2         -0.0680   -0.3020    1.1120 c3        1 VES     -0.103400
      5 C1         -1.2520   -0.3860    0.0800 c3        1 VES      0.142800
      6 H41C        1.0440    1.1700   -1.3620 h1        1 VES      0.046200
      7 H42C        1.0440   -0.4300   -1.3620 h1        1 VES      0.046200
      8 H11C       -1.3740   -1.3060   -0.2200 h1        1 VES      0.046200
      9 H12C       -2.0750   -0.0470    0.4810 h1        1 VES      0.046200
     10 H31C        1.2060    1.2850    0.6790 hc        1 VES      0.046200
     11 H32C        1.9060   -0.1430    0.4740 hc        1 VES      0.046200
     12 H21C        0.1940   -1.1980    1.3990 hc        1 VES      0.046200
     13 H22C       -0.3290    0.2370    1.8820 hc        1 VES      0.046200
     14 H2         -1.1950    0.0100   -1.6960 hn        1 VES      0.345800
@<TRIPOS>BOND
     1    1    2 1   
     2    1    5 1   
     3    1   14 1   
     4    2    3 1   
     5    2    6 1   
     6    2    7 1   
     7    3    4 1   
     8    3   10 1   
     9    3   11 1   
    10    4    5 1   
    11    4   12 1   
    12    4   13 1   
    13    5    8 1   
    14    5    9 1   
@<TRIPOS>SUBSTRUCTURE
     1 VES         1 TEMP              0 ****  ****    0 ROOT
