@<TRIPOS>MOLECULE
VES
   14    14     1     0     0
SMALL
bcc


@<TRIPOS>ATOM
      1 N5         -1.2780    0.1450   -0.1370 n3        1 VES     -0.794200
      2 C4         -0.5800   -1.1290    0.0180 c3        1 VES      0.142800
      3 C3          0.9410   -0.8910   -0.0360 c3        1 VES     -0.103400
      4 C2          1.1230    0.6220   -0.0270 c3        1 VES     -0.103400
      5 C1         -0.2970    1.2140    0.0320 c3        1 VES      0.142800
      6 H41C       -0.8650   -1.5460    1.0230 h1        1 VES      0.046200
      7 H42C       -0.8970   -1.8700   -0.7620 h1        1 VES      0.046200
      8 H11C       -0.4270    2.0180   -0.7390 h1        1 VES      0.046200
      9 H12C       -0.4770    1.6750    1.0420 h1        1 VES      0.046200
     10 H31C        1.4410   -1.3650    0.8430 hc        1 VES      0.046200
     11 H32C        1.3770   -1.3420   -0.9600 hc        1 VES      0.046200
     12 H21C        1.7200    0.9530    0.8570 hc        1 VES      0.046200
     13 H22C        1.6550    0.9670   -0.9460 hc        1 VES      0.046200
     14 H2         -1.6960    0.2000   -1.0480 hn        1 VES      0.345800
@<TRIPOS>BOND
     1    1    2 1   
     2    1    5 1   
     3    1   14 1   
     4    2    3 1   
     5    2    6 1   
     6    2    7 1   
     7    3    4 1   
     8    3   10 1   
     9    3   11 1   
    10    4    5 1   
    11    4   12 1   
    12    4   13 1   
    13    5    8 1   
    14    5    9 1   
@<TRIPOS>SUBSTRUCTURE
     1 VES         1 TEMP              0 ****  ****    0 ROOT
