@<TRIPOS>MOLECULE
VES
   14    14     1     0     0
SMALL
bcc


@<TRIPOS>ATOM
      1 N5          0.0080    0.2510   -0.0080 n3        1 VES     -0.794200
      2 C4          1.4580    0.0720   -0.0110 c3        1 VES      0.142800
      3 C3          1.9500   -0.1580    1.4300 c3        1 VES     -0.103400
      4 C2          0.6930   -0.3120    2.2770 c3        1 VES     -0.103400
      5 C1         -0.4890   -0.1660    1.3020 c3        1 VES      0.142800
      6 H41C        1.6800   -0.8340   -0.6390 h1        1 VES      0.046200
      7 H42C        1.9800    0.9490   -0.4770 h1        1 VES      0.046200
      8 H11C       -0.9960   -1.1600    1.1640 h1        1 VES      0.046200
      9 H12C       -1.2510    0.5540    1.7010 h1        1 VES      0.046200
     10 H31C        2.5650    0.7070    1.7780 hc        1 VES      0.046200
     11 H32C        2.5880   -1.0730    1.4820 hc        1 VES      0.046200
     12 H21C        0.6630   -1.3080    2.7800 hc        1 VES      0.046200
     13 H22C        0.6470    0.4720    3.0720 hc        1 VES      0.046200
     14 H2         -0.2210    1.2140   -0.1720 hn        1 VES      0.345800
@<TRIPOS>BOND
     1    1    2 1   
     2    1    5 1   
     3    1   14 1   
     4    2    3 1   
     5    2    6 1   
     6    2    7 1   
     7    3    4 1   
     8    3   10 1   
     9    3   11 1   
    10    4    5 1   
    11    4   12 1   
    12    4   13 1   
    13    5    8 1   
    14    5    9 1   
@<TRIPOS>SUBSTRUCTURE
     1 VES         1 TEMP              0 ****  ****    0 ROOT
