@<TRIPOS>MOLECULE
VES
   14    14     1     0     0
SMALL
bcc


@<TRIPOS>ATOM
      1 N5          0.0100    0.2350   -0.0140 n7        1 VES     -0.794200
      2 C4          1.4620    0.0720   -0.0080 c3        1 VES      0.142800
      3 C3          1.9500   -0.1430    1.4360 c3        1 VES     -0.103400
      4 C2          0.6900   -0.3060    2.2780 c3        1 VES     -0.103400
      5 C1         -0.4890   -0.1800    1.2960 c3        1 VES      0.142800
      6 H41C        1.9770    0.9520   -0.4770 h1        1 VES      0.046200
      7 H42C        1.6980   -0.8340   -0.6300 h1        1 VES      0.046200
      8 H11C       -1.2610    0.5340    1.6870 h1        1 VES      0.046200
      9 H12C       -0.9840   -1.1810    1.1620 h1        1 VES      0.046200
     10 H31C        2.5980   -1.0500    1.4980 hc        1 VES      0.046200
     11 H32C        2.5530    0.7310    1.7830 hc        1 VES      0.046200
     12 H21C        0.6680   -1.3000    2.7870 hc        1 VES      0.046200
     13 H22C        0.6300    0.4820    3.0680 hc        1 VES      0.046200
     14 H2         -0.2290    1.1950   -0.1850 hn        1 VES      0.345800
@<TRIPOS>BOND
     1    1    2 1   
     2    1    5 1   
     3    1   14 1   
     4    2    3 1   
     5    2    6 1   
     6    2    7 1   
     7    3    4 1   
     8    3   10 1   
     9    3   11 1   
    10    4    5 1   
    11    4   12 1   
    12    4   13 1   
    13    5    8 1   
    14    5    9 1   
@<TRIPOS>SUBSTRUCTURE
     1 VES         1 TEMP              0 ****  ****    0 ROOT
