@<TRIPOS>MOLECULE
VET
   36    37     1     0     0
SMALL
bcc


@<TRIPOS>ATOM
      1 OP1         3.6390   -1.9110    0.6680 o         1 VET     -0.922500
      2 P           4.4460   -0.7360    0.1540 p5        1 VET      1.324900
      3 OP2         5.4610   -1.0340   -0.9070 o         1 VET     -0.922500
      4 O5'         3.1780    0.0630   -0.7280 os        1 VET     -0.568200
      5 C5'         2.2950    0.7870    0.0280 c3        1 VET      0.231400
      6 C4'         1.0330   -0.0240    0.3870 c3        1 VET     -0.152700
      7 C3'         0.6760   -1.0490   -0.7080 c3        1 VET      0.189100
      8 O3'         1.0840   -2.3500   -0.3660 oh        1 VET     -0.701800
      9 C2'        -0.8620   -1.0380   -0.8380 c3        1 VET     -0.115400
     10 C6'        -0.2170    0.8220    0.5960 c3        1 VET     -0.063400
     11 C1'        -1.3620   -0.1850    0.3450 c3        1 VET      0.078700
     12 N1         -2.6880    0.3950    0.2350 n         1 VET     -0.445800
     13 C2         -3.0630    1.2980   -0.7890 c         1 VET      0.801500
     14 O2         -2.3720    2.1150   -1.4130 o         1 VET     -0.599500
     15 N3         -4.4920    1.2420   -0.9690 n         1 VET     -0.627500
     16 C4         -5.0580    0.2620   -0.1620 c         1 VET      0.710500
     17 O4         -6.2620    0.0160   -0.0470 o         1 VET     -0.612500
     18 C5         -3.8660   -0.4390    0.5940 c3        1 VET      0.224200
     19 C6         -4.1330   -0.4800    2.0960 c3        1 VET     -0.107100
     20 O6         -3.8390   -1.7610    0.0690 oh        1 VET     -0.599800
     21 OP3         4.8130    0.2830    1.1960 o         1 VET     -0.922500
     22 H5'         2.7820    1.1350    0.9840 h1        1 VET     -0.004300
     23 H5''        1.9650    1.6930   -0.5660 h1        1 VET     -0.004300
     24 H4'         1.2550   -0.5960    1.3310 hc        1 VET      0.077700
     25 H3'         1.1510   -0.7520   -1.6840 h1        1 VET      0.061700
     26 H6'        -0.2720    1.2440    1.6260 hc        1 VET      0.041700
     27 H6''       -0.2650    1.6640   -0.1390 hc        1 VET      0.041700
     28 HA          2.0460   -2.2790   -0.0860 ho        1 VET      0.520000
     29 H2'        -1.1580   -0.5750   -1.8100 hc        1 VET      0.034200
     30 H2''       -1.2710   -2.0750   -0.7950 hc        1 VET      0.034200
     31 H1'        -1.4230   -0.8550    1.2580 h1        1 VET      0.049700
     32 H3         -4.9750    1.8380   -1.5870 hn        1 VET      0.339500
     33 H61C       -4.2170    0.5510    2.5120 hc        1 VET      0.057033
     34 H62C       -5.0920   -1.0270    2.2630 hc        1 VET      0.057033
     35 H63C       -3.3050   -1.0160    2.6190 hc        1 VET      0.057033
     36 HO6        -3.0220   -2.1880    0.3680 ho        1 VET      0.437000
@<TRIPOS>BOND
     1    1    2 1   
     2    2    3 1   
     3    2    4 1   
     4    2   21 1   
     5    4    5 1   
     6    5    6 1   
     7    5   22 1   
     8    5   23 1   
     9    6    7 1   
    10    6   10 1   
    11    6   24 1   
    12    7    8 1   
    13    7    9 1   
    14    7   25 1   
    15    8   28 1   
    16    9   11 1   
    17    9   29 1   
    18    9   30 1   
    19   10   11 1   
    20   10   26 1   
    21   10   27 1   
    22   11   12 1   
    23   11   31 1   
    24   12   13 1   
    25   12   18 1   
    26   13   14 2   
    27   13   15 1   
    28   15   16 1   
    29   15   32 1   
    30   16   17 2   
    31   16   18 1   
    32   18   19 1   
    33   18   20 1   
    34   19   33 1   
    35   19   34 1   
    36   19   35 1   
    37   20   36 1   
@<TRIPOS>SUBSTRUCTURE
     1 VET         1 TEMP              0 ****  ****    0 ROOT
