@<TRIPOS>MOLECULE
VFB
   19    21     1     0     0
SMALL
bcc


@<TRIPOS>ATOM
      1 N1          0.2980   -1.6750    0.0010 na        1 VFB     -0.170500
      2 CAB        -2.2210   -1.2270    0.0010 ca        1 VFB     -0.100000
      3 CAC        -2.7940    1.1520   -0.0000 ca        1 VFB     -0.097000
      4 CAD        -0.8740   -0.8640    0.0000 ca        1 VFB     -0.046200
      5 CAE        -1.4570    1.5510   -0.0000 ca        1 VFB     -0.066000
      6 CAF         3.0640    0.6220    0.0000 cc        1 VFB      0.456400
      7 CAG         1.3610   -0.8070    0.0000 cz        1 VFB      0.097400
      8 NAH         2.7440   -0.7670    0.0000 na        1 VFB     -0.314900
      9 NAI         1.9630    1.4110   -0.0000 n2        1 VFB     -0.394800
     10 CAJ        -3.1640   -0.1990    0.0000 ca        1 VFB     -0.080000
     11 CAK        -0.4970    0.5410    0.0000 ca        1 VFB     -0.022200
     12 NAL         0.9190    0.5650    0.0000 na        1 VFB      0.175300
     13 HN1         0.3360   -2.6660    0.0010 hn        1 VFB      0.360700
     14 HAB        -2.5320   -2.2830    0.0010 ha        1 VFB      0.173000
     15 HAC        -3.5800    1.9270   -0.0000 ha        1 VFB      0.176000
     16 HAE        -1.1720    2.6150   -0.0000 ha        1 VFB      0.185000
     17 HAF         4.1080    0.9820   -0.0000 h5        1 VFB      0.126100
     18 HNAH        3.3730   -1.5340    0.0010 hn        1 VFB      0.370700
     19 HAJ        -4.2370   -0.4620    0.0000 ha        1 VFB      0.174000
@<TRIPOS>BOND
     1    1    4 1   
     2    1    7 2   
     3    1   13 1   
     4    2    4 ar  
     5    2   10 ar  
     6    2   14 1   
     7    3    5 ar  
     8    3   10 ar  
     9    3   15 1   
    10    4   11 ar  
    11    5   11 ar  
    12    5   16 1   
    13    6    8 1   
    14    6    9 2   
    15    6   17 1   
    16    7    8 1   
    17    7   12 1   
    18    8   18 1   
    19    9   12 1   
    20   10   19 1   
    21   11   12 1   
@<TRIPOS>SUBSTRUCTURE
     1 VFB         1 TEMP              0 ****  ****    0 ROOT
