@<TRIPOS>MOLECULE
VFB
   19    14     1     0     0
SMALL
bcc


@<TRIPOS>ATOM
      1 N1         -1.2810   -0.0000   -1.0030 ne        1 VFB     -0.505700
      2 CAB         1.0180   -0.0000   -2.0490 c1        1 VFB     -0.042500
      3 CAC         2.8000   -0.0000   -0.4410 c1        1 VFB     -0.031000
      4 CAD         0.0740   -0.0000   -1.0030 cg        1 VFB      0.051000
      5 CAE         1.8720   -0.0000    0.5880 c1        1 VFB     -0.008500
      6 CAF        -2.3900   -0.0000    2.3910 cg        1 VFB      0.345800
      7 CAG        -1.7080   -0.0000    0.3070 cf        1 VFB      0.893600
      8 NAH        -2.8070   -0.0000    1.1050 n1        1 VFB     -0.767400
      9 NAI        -1.0410   -0.0000    2.3930 ne        1 VFB     -0.014000
     10 CAJ         2.3730   -0.0000   -1.7590 c1        1 VFB     -0.031000
     11 CAK         0.4950   -0.0000    0.2940 c1        1 VFB      0.023000
     12 NAL        -0.6180   -0.0000    1.1010 nf        1 VFB     -0.283300
     13 HN1        -1.8170   -0.0000   -1.7410 DU        1 VFB      0.298333
     14 HAB         0.7170   -0.0000   -2.9770 ha        1 VFB      0.115500
     15 HAC         3.7540   -0.0000   -0.2380 ha        1 VFB      0.117500
     16 HAE         2.1730   -0.0000    1.5160 ha        1 VFB      0.127500
     17 HAF        -2.9650    0.0000    3.1800 DU        1 VFB      0.298333
     18 HNAH       -3.6740   -0.0000    0.8220 DU        1 VFB      0.298333
     19 HAJ         3.0260   -0.0000   -2.4840 ha        1 VFB      0.117500
@<TRIPOS>BOND
     1    1    4 1   
     2    1    7 2   
     3    2    4 3   
     4    2   14 1   
     5    3   10 3   
     6    3   15 1   
     7    5   11 3   
     8    5   16 1   
     9    6    8 3   
    10    6    9 1   
    11    7    8 1   
    12    7   12 1   
    13    9   12 2   
    14   10   19 1   
@<TRIPOS>SUBSTRUCTURE
     1 VFB         1 TEMP              0 ****  ****    0 ROOT
