@<TRIPOS>MOLECULE
VFC
   52    56     1     0     0
SMALL
bcc


@<TRIPOS>ATOM
      1 F32        -3.7520   -5.2980    0.1550 f         1 VFC     -0.139900
      2 C29        -3.6830   -3.9490    0.0570 ca        1 VFC      0.157900
      3 C28        -2.4050   -3.3300    0.0300 ca        1 VFC     -0.198000
      4 C26        -2.2800   -1.9540   -0.0690 ca        1 VFC     -0.021000
      5 C24        -3.4380   -1.1780   -0.1390 ca        1 VFC     -0.192900
      6 C27        -4.8670   -3.2070   -0.0140 ca        1 VFC     -0.190000
      7 C25        -4.7330   -1.8170   -0.1110 ca        1 VFC     -0.036200
      8 N30        -5.6890   -0.7870   -0.2280 na        1 VFC      0.098900
      9 C33        -7.1110   -0.9760   -0.0750 c3        1 VFC      0.046600
     10 N31        -5.1010    0.4190   -0.2800 nc        1 VFC     -0.500100
     11 C23        -3.7520    0.2450   -0.2520 cd        1 VFC      0.285900
     12 C5         -2.7920    1.3440   -0.3300 ca        1 VFC      0.295700
     13 N3         -1.5040    1.1020    0.0010 nb        1 VFC     -0.572000
     14 C6         -3.2460    2.6460   -0.7590 ca        1 VFC      0.325900
     15 N4         -2.4540    3.7170   -0.8670 nb        1 VFC     -0.629000
     16 C2         -1.1490    3.4790   -0.5380 ca        1 VFC      0.302500
     17 N7         -0.0560    4.3570   -0.5320 na        1 VFC     -0.267100
     18 C8          1.0680    3.6490   -0.1250 cc        1 VFC     -0.047100
     19 C9          0.7480    2.3140    0.1430 cd        1 VFC     -0.310000
     20 C1         -0.6720    2.1590   -0.1070 ca        1 VFC      0.346800
     21 C10         1.6610    1.2450    0.5600 c         1 VFC      0.711300
     22 O11         1.5370    0.0610    0.1880 o         1 VFC     -0.602100
     23 N12         2.6830    1.6100    1.4290 n         1 VFC     -0.561900
     24 C13         3.7220    0.6840    1.7990 c3        1 VFC      0.044700
     25 C22         4.3270    0.9810    3.1700 c3        1 VFC     -0.103100
     26 C14         4.8860    0.7260    0.7730 c         1 VFC      0.615100
     27 O21         5.4700    1.7970    0.5190 o         1 VFC     -0.597100
     28 N15         5.3120   -0.4750    0.2280 n         1 VFC     -0.438800
     29 C17         6.1260   -0.5620   -0.9950 cy        1 VFC      0.071500
     30 C18         5.2430   -1.7580   -1.4760 cy        1 VFC     -0.057600
     31 C16         4.4180   -1.5790   -0.1610 cy        1 VFC      0.071500
     32 C19         5.9330   -3.0110   -1.5950 c1        1 VFC      0.220700
     33 N20         6.4890   -4.0270   -1.6980 n1        1 VFC     -0.357800
     34 H28        -1.5110   -3.9680    0.0890 ha        1 VFC      0.153000
     35 H27        -5.8470   -3.7010    0.0080 ha        1 VFC      0.153000
     36 H26        -1.2820   -1.4860   -0.0890 ha        1 VFC      0.178000
     37 H331       -7.3960   -0.9300    1.0110 h1        1 VFC      0.059033
     38 H332       -7.6690   -0.1800   -0.6340 h1        1 VFC      0.059033
     39 H333       -7.3760   -1.9840   -0.4890 h1        1 VFC      0.059033
     40 H6         -4.3070    2.8120   -1.0240 h4        1 VFC      0.053100
     41 H7         -0.0850    5.3060   -0.8040 hn        1 VFC      0.320700
     42 H8          2.0420    4.1460   -0.0670 h4        1 VFC      0.182000
     43 H12         2.8600    2.5720    1.5980 hn        1 VFC      0.314500
     44 H13         3.2610   -0.3510    1.8180 h1        1 VFC      0.095700
     45 H221        4.8320    1.9770    3.1750 hc        1 VFC      0.055367
     46 H222        3.5360    0.9670    3.9580 hc        1 VFC      0.055367
     47 H223        5.0850    0.1950    3.4040 hc        1 VFC      0.055367
     48 H171        6.0770    0.3430   -1.6490 h1        1 VFC      0.082700
     49 H172        7.1880   -0.8170   -0.7670 h1        1 VFC      0.082700
     50 H161        4.4830   -2.4330    0.5550 h1        1 VFC      0.082700
     51 H162        3.3480   -1.2900   -0.3260 h1        1 VFC      0.082700
     52 H18         4.6580   -1.5410   -2.4030 hc        1 VFC      0.101700
@<TRIPOS>BOND
     1    1    2 1   
     2    2    3 ar  
     3    2    6 ar  
     4    3    4 ar  
     5    3   34 1   
     6    4    5 ar  
     7    4   36 1   
     8    5    7 ar  
     9    5   11 1   
    10    6    7 ar  
    11    6   35 1   
    12    7    8 1   
    13    8    9 1   
    14    8   10 1   
    15    9   37 1   
    16    9   38 1   
    17    9   39 1   
    18   10   11 2   
    19   11   12 1   
    20   12   13 ar  
    21   12   14 ar  
    22   13   20 ar  
    23   14   15 ar  
    24   14   40 1   
    25   15   16 ar  
    26   16   17 1   
    27   16   20 ar  
    28   17   18 1   
    29   17   41 1   
    30   18   19 2   
    31   18   42 1   
    32   19   20 1   
    33   19   21 1   
    34   21   22 2   
    35   21   23 1   
    36   23   24 1   
    37   23   43 1   
    38   24   25 1   
    39   24   26 1   
    40   24   44 1   
    41   25   45 1   
    42   25   46 1   
    43   25   47 1   
    44   26   27 2   
    45   26   28 1   
    46   28   29 1   
    47   28   31 1   
    48   29   30 1   
    49   29   48 1   
    50   29   49 1   
    51   30   31 1   
    52   30   32 1   
    53   30   52 1   
    54   31   50 1   
    55   31   51 1   
    56   32   33 3   
@<TRIPOS>SUBSTRUCTURE
     1 VFC         1 TEMP              0 ****  ****    0 ROOT
