@<TRIPOS>MOLECULE
VFC
   53    57     1     0     0
SMALL
bcc


@<TRIPOS>ATOM
      1 F32         0.2370    1.3080   -1.4550 f         1 VFC     -0.127900
      2 C29         1.4720    0.9470   -1.0360 ca        1 VFC      0.162900
      3 C28         1.8930    1.3380    0.2660 ca        1 VFC     -0.184000
      4 C26         3.1460    0.9970    0.7430 ca        1 VFC     -0.039000
      5 C24         4.0020    0.2570   -0.0750 ca        1 VFC     -0.181900
      6 C27         2.2970    0.2040   -1.8870 ca        1 VFC     -0.173000
      7 C25         3.5620   -0.1370   -1.3940 ca        1 VFC     -0.043200
      8 N30         4.6310   -0.8570   -1.9710 na        1 VFC      0.124900
      9 C33         4.5840   -1.4860   -3.2720 c3        1 VFC      0.037600
     10 N31         5.6620   -0.9520   -1.1320 nc        1 VFC     -0.475100
     11 C23         5.3470   -0.2950    0.0250 cd        1 VFC      0.237900
     12 C5          6.2620   -0.1910    1.1520 ca        1 VFC      0.360700
     13 N3          5.9880    0.6850    2.1450 nb        1 VFC     -0.607000
     14 C6          7.4460   -1.0340    1.1770 ca        1 VFC      0.330900
     15 N4          8.3530   -1.0210    2.1540 nb        1 VFC     -0.593000
     16 C2          8.0750   -0.1360    3.1590 ca        1 VFC      0.279500
     17 N7          8.8060    0.1440    4.3340 na        1 VFC     -0.212100
     18 C8          8.1460    1.1110    5.0440 cc        1 VFC      0.009900
     19 C9          6.9610    1.5030    4.3700 cd        1 VFC     -0.415000
     20 C1          6.8890    0.7110    3.1520 ca        1 VFC      0.367800
     21 C10         5.9590    2.4400    4.7510 c         1 VFC      0.625300
     22 O11         4.7780    2.5250    4.4460 o         1 VFC     -0.434100
     23 N12         6.4440    3.5760    5.6700 n4        1 VFC     -0.686800
     24 C13         5.7330    3.6010    6.9920 c3        1 VFC      0.051500
     25 C22         5.7010    5.0030    7.5860 c3        1 VFC     -0.132100
     26 C14         6.4570    2.6600    7.9910 c         1 VFC      0.658100
     27 O21         7.6820    2.4500    7.8370 o         1 VFC     -0.633100
     28 N15         5.7240    2.0520    8.9520 n         1 VFC     -0.454800
     29 C17         6.2020    1.3430   10.1470 cy        1 VFC      0.096000
     30 C18         4.7870    1.5510   10.7810 cy        1 VFC     -0.029600
     31 C16         4.3800    2.3090    9.4750 cy        1 VFC      0.096000
     32 C19         4.7760    2.3630   11.9640 c1        1 VFC      0.184700
     33 N20         4.7630    3.0150   12.9270 n1        1 VFC     -0.298800
     34 H28         1.1960    1.9200    0.8870 ha        1 VFC      0.155000
     35 H27         1.9570   -0.0930   -2.8880 ha        1 VFC      0.163000
     36 H26         3.4580    1.3070    1.7520 ha        1 VFC      0.158000
     37 H331        4.1380   -2.5130   -3.1790 h1        1 VFC      0.070700
     38 H332        3.9430   -0.8550   -3.9430 h1        1 VFC      0.070700
     39 H333        5.6170   -1.5680   -3.7050 h1        1 VFC      0.070700
     40 H6          7.6460   -1.7460    0.3510 h4        1 VFC      0.074100
     41 H7          9.6480   -0.3130    4.5980 hn        1 VFC      0.342700
     42 H8          8.5280    1.4580    6.0180 h4        1 VFC      0.214000
     43 H12         7.4550    3.4810    5.8420 hn        1 VFC      0.462800
     44 H13         4.6750    3.2430    6.8010 hx        1 VFC      0.131700
     45 H221        6.7330    5.3820    7.7930 hc        1 VFC      0.082700
     46 H222        5.1390    4.9730    8.5540 hc        1 VFC      0.082700
     47 H223        5.1760    5.7170    6.9050 hc        1 VFC      0.082700
     48 H171        7.0470    1.8520   10.6710 h1        1 VFC      0.087450
     49 H172        6.4620    0.2770    9.9320 h1        1 VFC      0.087450
     50 H161        4.1320    3.3890    9.6170 h1        1 VFC      0.087450
     51 H162        3.5840    1.8010    8.8770 h1        1 VFC      0.087450
     52 H18         4.2220    0.5990   10.9430 hc        1 VFC      0.122700
     53 H122        6.2700    4.4670    5.1940 hn        1 VFC      0.462800
@<TRIPOS>BOND
     1    1    2 1   
     2    2    3 ar  
     3    2    6 ar  
     4    3    4 ar  
     5    3   34 1   
     6    4    5 ar  
     7    4   36 1   
     8    5    7 ar  
     9    5   11 1   
    10    6    7 ar  
    11    6   35 1   
    12    7    8 1   
    13    8    9 1   
    14    8   10 1   
    15    9   37 1   
    16    9   38 1   
    17    9   39 1   
    18   10   11 2   
    19   11   12 1   
    20   12   13 ar  
    21   12   14 ar  
    22   13   20 ar  
    23   14   15 ar  
    24   14   40 1   
    25   15   16 ar  
    26   16   17 1   
    27   16   20 ar  
    28   17   18 1   
    29   17   41 1   
    30   18   19 2   
    31   18   42 1   
    32   19   20 1   
    33   19   21 1   
    34   21   22 2   
    35   21   23 1   
    36   23   24 1   
    37   23   43 1   
    38   23   53 1   
    39   24   25 1   
    40   24   26 1   
    41   24   44 1   
    42   25   45 1   
    43   25   46 1   
    44   25   47 1   
    45   26   27 2   
    46   26   28 1   
    47   28   29 1   
    48   28   31 1   
    49   29   30 1   
    50   29   48 1   
    51   29   49 1   
    52   30   31 1   
    53   30   32 1   
    54   30   52 1   
    55   31   50 1   
    56   31   51 1   
    57   32   33 3   
@<TRIPOS>SUBSTRUCTURE
     1 VFC         1 TEMP              0 ****  ****    0 ROOT
