@<TRIPOS>MOLECULE
VFC
   52    44     1     0     0
SMALL
bcc


@<TRIPOS>ATOM
      1 F32        -2.4230   -2.5450   -7.4340 f         1 VFC     -0.102000
      2 C29        -2.1310   -1.4250   -6.6740 c2        1 VFC      0.121000
      3 C28        -0.9930   -1.9710   -6.0930 c2        1 VFC     -0.188000
      4 C26        -0.2650   -1.2360   -5.2050 c1        1 VFC     -0.045000
      5 C24        -0.6770    0.1020   -4.8700 c1        1 VFC     -0.057000
      6 C27        -2.5310   -0.1160   -6.3440 c1        1 VFC     -0.179000
      7 C25        -1.7860    0.6300   -5.4370 c1        1 VFC     -0.057000
      8 N30        -1.9430    1.8960   -4.9430 n1        1 VFC     -0.148000
      9 C33        -2.9790    2.8150   -5.3710 c2        1 VFC     -0.053000
     10 N31        -0.9270    2.1390   -4.0770 n2        1 VFC      0.015000
     11 C23        -0.1470    1.0430   -4.0280 c1        1 VFC     -0.070000
     12 C5          0.9030    0.9670   -2.9690 c1        1 VFC      0.010000
     13 N3          0.7250    0.8730   -1.6410 n2        1 VFC     -0.060000
     14 C6          2.1680    1.1560   -3.4810 c1        1 VFC     -0.092000
     15 N4          3.2380    1.2460   -2.6410 n1        1 VFC     -0.097000
     16 C2          3.0610    1.1520   -1.3170 c1        1 VFC     -0.024000
     17 N7          3.9330    1.2070   -0.2900 n1        1 VFC     -0.184000
     18 C8          3.2170    1.0540    0.8800 c1        1 VFC      0.025000
     19 C9          1.9020    0.9050    0.5500 c1        1 VFC     -0.193000
     20 C1          1.7940    0.9640   -0.8030 c1        1 VFC     -0.036000
     21 C10         0.7250    0.9360    1.5670 c1        1 VFC      0.388000
     22 O11        -0.3540    0.8010    1.1950 o         1 VFC     -0.415000
     23 N12         1.0050    0.9510    3.0000 n3        1 VFC     -0.357000
     24 C13         0.0190    0.4740    3.9310 c3        1 VFC      0.022000
     25 C22        -0.6900    1.6340    4.5180 c3        1 VFC     -0.222000
     26 C14         0.6990   -0.3000    5.0210 c2        1 VFC      0.261000
     27 O21         1.7090    0.1630    5.5660 o         1 VFC     -0.342000
     28 N15         0.1720   -1.5370    5.4430 n         1 VFC     -0.301000
     29 C17         0.5340   -2.4760    6.4060 cy        1 VFC     -0.045500
     30 C18        -0.5640   -3.3580    6.0020 cy        1 VFC     -0.073000
     31 C16        -0.9410   -2.3470    5.0610 cy        1 VFC     -0.045500
     32 C19        -0.5620   -3.3630    6.0000 c1        1 VFC     -0.132000
     33 N20        -0.2040   -4.6550    5.4890 n1        1 VFC     -0.035000
     34 H28        -0.7030   -2.9330   -6.3280 ha        1 VFC      0.153000
     35 H27        -3.3160    0.2870   -6.7860 ha        1 VFC      0.156000
     36 H26         0.6140   -1.6550   -4.7540 ha        1 VFC      0.146000
     37 H331       -2.9810    2.8830   -6.3980 ha        1 VFC      0.100667
     38 H332       -3.8560    2.4740   -5.0600 ha        1 VFC      0.100667
     39 H333       -2.8170    3.6920   -4.9900 ha        1 VFC      0.100667
     40 H6          2.2990    1.3150   -4.5200 ha        1 VFC      0.180000
     41 H7          4.8430    1.3280   -0.3600 DU        1 VFC      0.235500
     42 H8          3.6220    0.9880    1.8320 DU        1 VFC      0.235500
     43 H12         1.6880    1.2870    3.2720 hn        1 VFC      0.262000
     44 H13        -0.5490   -0.0430    3.5210 h1        1 VFC      0.131000
     45 H221       -0.3420    2.5260    4.0490 hc        1 VFC      0.094333
     46 H222       -1.6840    1.5380    4.3670 hc        1 VFC      0.094333
     47 H223       -0.5130    1.6690    5.4220 hc        1 VFC      0.094333
     48 H171        0.4240   -2.1270    7.3400 h1        1 VFC      0.121500
     49 H172        1.5360   -2.9250    6.2140 h1        1 VFC      0.121500
     50 H161       -1.8680   -1.9080    5.2910 h1        1 VFC      0.121500
     51 H162       -0.8790   -2.6350    4.1990 h1        1 VFC      0.121500
     52 H18        -1.2070   -3.5350    6.6770 hc        1 VFC      0.138000
@<TRIPOS>BOND
     1    1    2 1   
     2    2    3 1   
     3    2    6 1   
     4    3    4 1   
     5    3   34 1   
     6    4   36 1   
     7    5    7 1   
     8    6   35 1   
     9    8   10 1   
    10    9   37 1   
    11    9   38 1   
    12    9   39 1   
    13   10   11 1   
    14   12   13 1   
    15   12   14 1   
    16   13   20 1   
    17   14   40 1   
    18   15   16 1   
    19   17   18 1   
    20   18   19 1   
    21   19   20 1   
    22   21   22 1   
    23   21   23 1   
    24   23   24 1   
    25   23   43 1   
    26   24   25 1   
    27   24   26 1   
    28   24   44 1   
    29   25   45 1   
    30   25   46 1   
    31   25   47 1   
    32   26   27 1   
    33   26   28 1   
    34   28   29 1   
    35   28   31 1   
    36   29   30 1   
    37   29   48 1   
    38   29   49 1   
    39   30   31 1   
    40   30   32 1   
    41   30   52 1   
    42   31   50 1   
    43   31   51 1   
    44   32   33 1   
@<TRIPOS>SUBSTRUCTURE
     1 VFC         1 TEMP              0 ****  ****    0 ROOT
