@<TRIPOS>MOLECULE
VFC
   53    57     1     0     0
SMALL
bcc


@<TRIPOS>ATOM
      1 F32         0.2810    1.3590   -1.4600 f         1 VFC     -0.127900
      2 C29         1.5110    0.9860   -1.0370 ca        1 VFC      0.162900
      3 C28         1.9360    1.3820    0.2620 ca        1 VFC     -0.184000
      4 C26         3.1840    1.0290    0.7420 ca        1 VFC     -0.039000
      5 C24         4.0320    0.2740   -0.0700 ca        1 VFC     -0.182900
      6 C27         2.3270    0.2270   -1.8820 ca        1 VFC     -0.172000
      7 C25         3.5890   -0.1250   -1.3860 ca        1 VFC     -0.043200
      8 N30         4.6400   -0.8820   -1.9480 na        1 VFC      0.124900
      9 C33         4.6390   -1.4070   -3.2950 c3        1 VFC      0.037600
     10 N31         5.6770   -0.9660   -1.1150 nc        1 VFC     -0.475100
     11 C23         5.3690   -0.2980    0.0370 cd        1 VFC      0.237900
     12 C5          6.2800   -0.2040    1.1680 ca        1 VFC      0.360700
     13 N3          6.0180    0.6830    2.1540 nb        1 VFC     -0.607000
     14 C6          7.4480   -1.0700    1.2040 ca        1 VFC      0.330900
     15 N4          8.3500   -1.0680    2.1850 nb        1 VFC     -0.593000
     16 C2          8.0850   -0.1720    3.1830 ca        1 VFC      0.279500
     17 N7          8.8150    0.1020    4.3610 na        1 VFC     -0.212100
     18 C8          8.1700    1.0850    5.0610 cc        1 VFC      0.009900
     19 C9          6.9960    1.4960    4.3790 cd        1 VFC     -0.414000
     20 C1          6.9150    0.6980    3.1650 ca        1 VFC      0.367800
     21 C10         6.0090    2.4540    4.7500 c         1 VFC      0.625300
     22 O11         4.8320    2.5600    4.4360 o         1 VFC     -0.434100
     23 N12         6.5100    3.5830    5.6690 n4        1 VFC     -0.686800
     24 C13         5.7920    3.6250    6.9860 c3        1 VFC      0.051500
     25 C22         5.7810    5.0290    7.5760 c3        1 VFC     -0.132100
     26 C14         6.4920    2.6750    7.9920 c         1 VFC      0.658100
     27 O21         7.7150    2.4420    7.8470 o         1 VFC     -0.633100
     28 N15         5.7420    2.0830    8.9500 n         1 VFC     -0.454800
     29 C17         6.2000    1.3690   10.1510 cy        1 VFC      0.096000
     30 C18         4.7860    1.6030   10.7740 cy        1 VFC     -0.029600
     31 C16         4.4000    2.3650    9.4640 cy        1 VFC      0.096000
     32 C19         4.7810    2.4200   11.9550 c1        1 VFC      0.184700
     33 N20         4.7730    3.0740   12.9160 n1        1 VFC     -0.298800
     34 H28         1.2450    1.9770    0.8780 ha        1 VFC      0.155000
     35 H27         1.9850   -0.0730   -2.8810 ha        1 VFC      0.163000
     36 H26         3.4980    1.3410    1.7500 ha        1 VFC      0.158000
     37 H331        5.0110   -0.6220   -4.0080 h1        1 VFC      0.070033
     38 H332        5.2990   -2.3120   -3.3640 h1        1 VFC      0.070033
     39 H333        3.5850   -1.6880   -3.5600 h1        1 VFC      0.070033
     40 H6          7.6380   -1.7900    0.3830 h4        1 VFC      0.074100
     41 H7          9.6470   -0.3700    4.6310 hn        1 VFC      0.342700
     42 H8          8.5540    1.4300    6.0360 h4        1 VFC      0.214000
     43 H12         7.5180    3.4700    5.8460 hn        1 VFC      0.462800
     44 H13         4.7280    3.2850    6.7900 hx        1 VFC      0.131700
     45 H221        6.8180    5.3910    7.7870 hc        1 VFC      0.082700
     46 H222        5.2730    5.7510    6.8890 hc        1 VFC      0.082700
     47 H223        5.2130    5.0120    8.5400 hc        1 VFC      0.082700
     48 H171        6.4430    0.2980    9.9400 h1        1 VFC      0.087450
     49 H172        7.0510    1.8640   10.6780 h1        1 VFC      0.087450
     50 H161        4.1700    3.4500    9.6010 h1        1 VFC      0.087450
     51 H162        3.5990    1.8690    8.8620 h1        1 VFC      0.087450
     52 H18         4.2030    0.6620   10.9360 hc        1 VFC      0.122700
     53 H122        6.3550    4.4760    5.1880 hn        1 VFC      0.462800
@<TRIPOS>BOND
     1    1    2 1   
     2    2    3 ar  
     3    2    6 ar  
     4    3    4 ar  
     5    3   34 1   
     6    4    5 ar  
     7    4   36 1   
     8    5    7 ar  
     9    5   11 1   
    10    6    7 ar  
    11    6   35 1   
    12    7    8 1   
    13    8    9 1   
    14    8   10 1   
    15    9   37 1   
    16    9   38 1   
    17    9   39 1   
    18   10   11 2   
    19   11   12 1   
    20   12   13 ar  
    21   12   14 ar  
    22   13   20 ar  
    23   14   15 ar  
    24   14   40 1   
    25   15   16 ar  
    26   16   17 1   
    27   16   20 ar  
    28   17   18 1   
    29   17   41 1   
    30   18   19 2   
    31   18   42 1   
    32   19   20 1   
    33   19   21 1   
    34   21   22 2   
    35   21   23 1   
    36   23   24 1   
    37   23   43 1   
    38   23   53 1   
    39   24   25 1   
    40   24   26 1   
    41   24   44 1   
    42   25   45 1   
    43   25   46 1   
    44   25   47 1   
    45   26   27 2   
    46   26   28 1   
    47   28   29 1   
    48   28   31 1   
    49   29   30 1   
    50   29   48 1   
    51   29   49 1   
    52   30   31 1   
    53   30   32 1   
    54   30   52 1   
    55   31   50 1   
    56   31   51 1   
    57   32   33 3   
@<TRIPOS>SUBSTRUCTURE
     1 VFC         1 TEMP              0 ****  ****    0 ROOT
