@<TRIPOS>MOLECULE
VFC
   53    57     1     0     0
SMALL
bcc


@<TRIPOS>ATOM
      1 F32         0.1880    1.0980   -1.3770 f         1 VFC     -0.127900
      2 C29         1.4420    0.7850   -0.9780 ca        1 VFC      0.162900
      3 C28         1.8710    1.1970    0.3150 ca        1 VFC     -0.184000
      4 C26         3.1430    0.9040    0.7710 ca        1 VFC     -0.039000
      5 C24         4.0120    0.1940   -0.0590 ca        1 VFC     -0.182900
      6 C27         2.2790    0.0690   -1.8400 ca        1 VFC     -0.172000
      7 C25         3.5650   -0.2220   -1.3680 ca        1 VFC     -0.043200
      8 N30         4.6420   -0.9250   -1.9520 na        1 VFC      0.124900
      9 C33         4.6420   -1.4450   -3.3010 c3        1 VFC      0.037600
     10 N31         5.6960   -0.9610   -1.1380 nc        1 VFC     -0.475100
     11 C23         5.3770   -0.3120    0.0220 cd        1 VFC      0.237900
     12 C5          6.3030   -0.1770    1.1370 ca        1 VFC      0.360700
     13 N3          6.0160    0.6950    2.1300 nb        1 VFC     -0.607000
     14 C6          7.5110   -0.9860    1.1500 ca        1 VFC      0.330900
     15 N4          8.4300   -0.9430    2.1150 nb        1 VFC     -0.593000
     16 C2          8.1390   -0.0620    3.1200 ca        1 VFC      0.279500
     17 N7          8.8770    0.2440    4.2850 na        1 VFC     -0.212100
     18 C8          8.1980    1.1940    5.0000 cc        1 VFC      0.009900
     19 C9          6.9940    1.5490    4.3400 cd        1 VFC     -0.415000
     20 C1          6.9290    0.7500    3.1260 ca        1 VFC      0.367800
     21 C10         5.9690    2.4570    4.7310 c         1 VFC      0.625300
     22 O11         4.7830    2.5070    4.4400 o         1 VFC     -0.434100
     23 N12         6.4330    3.6080    5.6430 ny        1 VFC     -0.686800
     24 C13         5.7370    3.6140    6.9730 c3        1 VFC      0.051500
     25 C22         5.6700    5.0160    7.5660 c3        1 VFC     -0.132100
     26 C14         6.5000    2.6970    7.9640 c         1 VFC      0.658100
     27 O21         7.7290    2.5240    7.7960 o         1 VFC     -0.633100
     28 N15         5.7970    2.0690    8.9350 n         1 VFC     -0.454800
     29 C17         6.3100    1.3760   10.1250 cy        1 VFC      0.096000
     30 C18         4.8980    1.5420   10.7750 cy        1 VFC     -0.029600
     31 C16         4.4520    2.2870    9.4730 cy        1 VFC      0.096000
     32 C19         4.8770    2.3570   11.9570 c1        1 VFC      0.184700
     33 N20         4.8550    3.0090   12.9200 n1        1 VFC     -0.298800
     34 H28         1.1630    1.7560    0.9450 ha        1 VFC      0.155000
     35 H27         1.9340   -0.2440   -2.8340 ha        1 VFC      0.163000
     36 H26         3.4600    1.2280    1.7740 ha        1 VFC      0.158000
     37 H331        4.9620   -0.6410   -4.0160 h1        1 VFC      0.070033
     38 H332        5.3440   -2.3170   -3.3840 h1        1 VFC      0.070033
     39 H333        3.5990   -1.7770   -3.5480 h1        1 VFC      0.070033
     40 H6          7.7200   -1.6940    0.3240 h4        1 VFC      0.074100
     41 H7          9.7350   -0.1880    4.5390 hn        1 VFC      0.342700
     42 H8          8.5820    1.5540    5.9680 h4        1 VFC      0.214000
     43 H12         6.2260    4.4930    5.1670 hn        1 VFC      0.462800
     44 H13         4.6870    3.2250    6.7960 hx        1 VFC      0.131700
     45 H221        6.6920    5.4260    7.7600 hc        1 VFC      0.082700
     46 H222        5.1160    5.7130    6.8900 hc        1 VFC      0.082700
     47 H223        5.1220    4.9700    8.5400 hc        1 VFC      0.082700
     48 H171        6.5990    0.3180    9.9080 h1        1 VFC      0.087450
     49 H172        7.1460    1.9110   10.6380 h1        1 VFC      0.087450
     50 H161        4.1740    3.3590    9.6170 h1        1 VFC      0.087450
     51 H162        3.6650    1.7540    8.8850 h1        1 VFC      0.087450
     52 H18         4.3630    0.5750   10.9450 hc        1 VFC      0.122700
     53 H122        7.4470    3.5430    5.8020 hn        1 VFC      0.462800
@<TRIPOS>BOND
     1    1    2 1   
     2    2    3 ar  
     3    2    6 ar  
     4    3    4 ar  
     5    3   34 1   
     6    4    5 ar  
     7    4   36 1   
     8    5    7 ar  
     9    5   11 1   
    10    6    7 ar  
    11    6   35 1   
    12    7    8 1   
    13    8    9 1   
    14    8   10 1   
    15    9   37 1   
    16    9   38 1   
    17    9   39 1   
    18   10   11 2   
    19   11   12 1   
    20   12   13 ar  
    21   12   14 ar  
    22   13   20 ar  
    23   14   15 ar  
    24   14   40 1   
    25   15   16 ar  
    26   16   17 1   
    27   16   20 ar  
    28   17   18 1   
    29   17   41 1   
    30   18   19 2   
    31   18   42 1   
    32   19   20 1   
    33   19   21 1   
    34   21   22 2   
    35   21   23 1   
    36   23   24 1   
    37   23   43 1   
    38   23   53 1   
    39   24   25 1   
    40   24   26 1   
    41   24   44 1   
    42   25   45 1   
    43   25   46 1   
    44   25   47 1   
    45   26   27 2   
    46   26   28 1   
    47   28   29 1   
    48   28   31 1   
    49   29   30 1   
    50   29   48 1   
    51   29   49 1   
    52   30   31 1   
    53   30   32 1   
    54   30   52 1   
    55   31   50 1   
    56   31   51 1   
    57   32   33 3   
@<TRIPOS>SUBSTRUCTURE
     1 VFC         1 TEMP              0 ****  ****    0 ROOT
