@<TRIPOS>MOLECULE
VFV
   65    70     1     0     0
SMALL
bcc


@<TRIPOS>ATOM
      1 CAO        -0.9750    0.9630   -1.1570 ca        1 VFV     -0.076500
      2 CAK         0.3460    1.2590   -1.4670 ca        1 VFV     -0.165500
      3 CBD         1.2390    1.6130   -0.4360 ca        1 VFV      0.163900
      4 FAB         2.5250    1.9000   -0.7280 f         1 VFV     -0.118900
      5 CAJ         0.7910    1.6690    0.8980 ca        1 VFV     -0.165500
      6 CAN        -0.5360    1.3760    1.1890 ca        1 VFV     -0.076500
      7 CBG        -1.4310    1.0190    0.1690 cp        1 VFV     -0.106000
      8 CBJ        -2.8210    0.7090    0.4840 cp        1 VFV      0.062000
      9 CAV        -3.5030    1.4360    1.4660 ca        1 VFV     -0.158000
     10 CBE        -4.8410    1.1310    1.7710 ca        1 VFV      0.173900
     11 FAC        -5.4850    1.8490    2.7190 f         1 VFV     -0.121900
     12 CAR        -3.4920   -0.3280   -0.1910 ca        1 VFV     -0.131000
     13 CAS        -4.8110   -0.6320    0.1140 ca        1 VFV     -0.098000
     14 CBK        -5.5090    0.0840    1.0960 ca        1 VFV     -0.229300
     15 CBN        -6.9190   -0.2630    1.4520 c3        1 VFV      0.161800
     16 CAW        -6.9750   -1.7420    1.9500 c3        1 VFV      0.031300
     17 NBO        -8.2800   -2.2080    2.2660 na        1 VFV     -0.256900
     18 CAT        -9.1740   -2.8220    1.3650 cc        1 VFV     -0.323600
     19 CAG       -10.3680   -3.0140    2.0760 cd        1 VFV      0.348200
     20 NAX       -10.2370   -2.5200    3.3780 nd        1 VFV     -0.636000
     21 CAU        -8.9870   -2.0380    3.4750 cc        1 VFV      0.424400
     22 NBA        -7.8430   -0.0220    0.2820 n4        1 VFV     -0.679800
     23 CBC        -8.3420    1.4120    0.1890 c         1 VFV      0.575700
     24 OAA        -8.6230    1.9550    1.2480 o         1 VFV     -0.415100
     25 CBF        -8.4210    1.9730   -1.1600 ca        1 VFV     -0.202600
     26 CAM        -8.2910    3.3670   -1.2810 ca        1 VFV     -0.070500
     27 CAQ        -8.3670    3.9670   -2.5340 ca        1 VFV     -0.104000
     28 CAL        -8.6540    1.1900   -2.3020 ca        1 VFV     -0.070500
     29 CAP        -8.7360    1.7880   -3.5520 ca        1 VFV     -0.104000
     30 CBI        -8.5840    3.1830   -3.6770 ca        1 VFV     -0.027500
     31 CBM        -8.6580    3.7900   -4.9830 cc        1 VFV      0.430900
     32 OBB        -8.5820    5.1930   -5.0920 os        1 VFV     -0.379800
     33 NAZ        -8.7960    3.2600   -6.2230 nd        1 VFV     -0.288000
     34 NAY        -8.8120    4.2260   -7.1090 nd        1 VFV     -0.349000
     35 CBL        -8.6860    5.4240   -6.4730 cc        1 VFV      0.579900
     36 CBH        -8.6490    6.7830   -6.9600 ca        1 VFV     -0.173500
     37 CAI        -8.7420    7.0250   -8.3410 ca        1 VFV     -0.074500
     38 CAF        -8.7080    8.3360   -8.8120 ca        1 VFV     -0.136500
     39 CAD        -8.5830    9.4020   -7.9210 ca        1 VFV     -0.083000
     40 CAE        -8.4920    9.1610   -6.5480 ca        1 VFV     -0.136500
     41 CAH        -8.5240    7.8570   -6.0640 ca        1 VFV     -0.074500
     42 H1         -1.6710    0.6920   -1.9670 ha        1 VFV      0.141000
     43 H2          0.7040    1.2200   -2.5070 ha        1 VFV      0.164500
     44 H3          1.4960    1.9420    1.6980 ha        1 VFV      0.164500
     45 H4         -0.8790    1.4130    2.2350 ha        1 VFV      0.141000
     46 H5         -3.0040    2.2580    2.0050 ha        1 VFV      0.177000
     47 H6         -2.9570   -0.9130   -0.9570 ha        1 VFV      0.164000
     48 H7         -5.3040   -1.4630   -0.4160 ha        1 VFV      0.131000
     49 H8         -7.2860    0.4090    2.2930 hx        1 VFV      0.141700
     50 H9         -6.5150   -2.4180    1.1740 h1        1 VFV      0.100200
     51 H10        -6.3280   -1.7740    2.8760 h1        1 VFV      0.100200
     52 H11        -8.8710   -3.1540    0.3750 h4        1 VFV      0.176000
     53 H12       -11.2970   -3.4760    1.7370 h4        1 VFV      0.064100
     54 H13        -8.5360   -1.5880    4.3680 h5        1 VFV      0.079100
     55 H14        -8.6690   -0.6310    0.3660 hn        1 VFV      0.458800
     56 H15        -8.1330    3.9850   -0.3800 ha        1 VFV      0.151000
     57 H16        -8.2630    5.0610   -2.6310 ha        1 VFV      0.182000
     58 H17        -8.8130    0.1020   -2.2330 ha        1 VFV      0.151000
     59 H18        -8.9260    1.1720   -4.4480 ha        1 VFV      0.182000
     60 H19        -8.8420    6.1860   -9.0480 ha        1 VFV      0.152000
     61 H20        -8.7810    8.5280   -9.8940 ha        1 VFV      0.149500
     62 H21        -8.5580   10.4360   -8.3000 ha        1 VFV      0.149000
     63 H22        -8.3940   10.0040   -5.8470 ha        1 VFV      0.149500
     64 H23        -8.4530    7.6630   -4.9830 ha        1 VFV      0.152000
     65 HBA2       -7.3470   -0.2560   -0.5850 hn        1 VFV      0.458800
@<TRIPOS>BOND
     1    1    2 ar  
     2    1    7 ar  
     3    1   42 1   
     4    2    3 ar  
     5    2   43 1   
     6    3    4 1   
     7    3    5 ar  
     8    5    6 ar  
     9    5   44 1   
    10    6    7 ar  
    11    6   45 1   
    12    7    8 1   
    13    8    9 ar  
    14    8   12 ar  
    15    9   10 ar  
    16    9   46 1   
    17   10   11 1   
    18   10   14 ar  
    19   12   13 ar  
    20   12   47 1   
    21   13   14 ar  
    22   13   48 1   
    23   14   15 1   
    24   15   16 1   
    25   15   22 1   
    26   15   49 1   
    27   16   17 1   
    28   16   50 1   
    29   16   51 1   
    30   17   18 1   
    31   17   21 1   
    32   18   19 2   
    33   18   52 1   
    34   19   20 1   
    35   19   53 1   
    36   20   21 2   
    37   21   54 1   
    38   22   23 1   
    39   22   55 1   
    40   22   65 1   
    41   23   24 2   
    42   23   25 1   
    43   25   26 ar  
    44   25   28 ar  
    45   26   27 ar  
    46   26   56 1   
    47   27   30 ar  
    48   27   57 1   
    49   28   29 ar  
    50   28   58 1   
    51   29   30 ar  
    52   29   59 1   
    53   30   31 1   
    54   31   32 1   
    55   31   33 2   
    56   32   35 1   
    57   33   34 1   
    58   34   35 2   
    59   35   36 1   
    60   36   37 ar  
    61   36   41 ar  
    62   37   38 ar  
    63   37   60 1   
    64   38   39 ar  
    65   38   61 1   
    66   39   40 ar  
    67   39   62 1   
    68   40   41 ar  
    69   40   63 1   
    70   41   64 1   
@<TRIPOS>SUBSTRUCTURE
     1 VFV         1 TEMP              0 ****  ****    0 ROOT
