@<TRIPOS>MOLECULE
VFV
   65    70     1     0     0
SMALL
bcc


@<TRIPOS>ATOM
      1 CAO        -0.9680    0.9370   -1.1660 ca        1 VFV     -0.076500
      2 CAK         0.3540    1.2280   -1.4770 ca        1 VFV     -0.165500
      3 CBD         1.2500    1.5780   -0.4470 ca        1 VFV      0.163900
      4 FAB         2.5370    1.8590   -0.7400 f         1 VFV     -0.118900
      5 CAJ         0.8040    1.6340    0.8880 ca        1 VFV     -0.165500
      6 CAN        -0.5240    1.3460    1.1800 ca        1 VFV     -0.076500
      7 CBG        -1.4220    0.9950    0.1600 cp        1 VFV     -0.106000
      8 CBJ        -2.8130    0.6900    0.4770 cp        1 VFV      0.062000
      9 CAV        -3.4900    1.4190    1.4600 ca        1 VFV     -0.158000
     10 CBE        -4.8300    1.1190    1.7660 ca        1 VFV      0.173900
     11 FAC        -5.4690    1.8390    2.7170 f         1 VFV     -0.121900
     12 CAR        -3.4890   -0.3440   -0.1990 ca        1 VFV     -0.131000
     13 CAS        -4.8090   -0.6420    0.1080 ca        1 VFV     -0.098000
     14 CBK        -5.5030    0.0760    1.0910 ca        1 VFV     -0.229300
     15 CBN        -6.9130   -0.2660    1.4490 c3        1 VFV      0.161800
     16 CAW        -6.9760   -1.7450    1.9450 c3        1 VFV      0.031300
     17 NBO        -8.2820   -2.2060    2.2620 na        1 VFV     -0.256900
     18 CAT        -9.1790   -2.8160    1.3620 cc        1 VFV     -0.323600
     19 CAG       -10.3730   -3.0030    2.0740 cd        1 VFV      0.348200
     20 NAX       -10.2390   -2.5100    3.3760 nd        1 VFV     -0.636000
     21 CAU        -8.9870   -2.0340    3.4720 cc        1 VFV      0.424400
     22 NBA        -7.8380   -0.0190    0.2810 ny        1 VFV     -0.679800
     23 CBC        -8.3340    1.4160    0.1910 c         1 VFV      0.575700
     24 OAA        -8.6080    1.9590    1.2520 o         1 VFV     -0.415100
     25 CBF        -8.4160    1.9790   -1.1570 ca        1 VFV     -0.202600
     26 CAM        -8.2850    3.3730   -1.2760 ca        1 VFV     -0.070500
     27 CAQ        -8.3660    3.9750   -2.5290 ca        1 VFV     -0.104000
     28 CAL        -8.6560    1.1970   -2.2990 ca        1 VFV     -0.070500
     29 CAP        -8.7410    1.7980   -3.5480 ca        1 VFV     -0.104000
     30 CBI        -8.5880    3.1920   -3.6710 ca        1 VFV     -0.027500
     31 CBM        -8.6670    3.8010   -4.9770 cc        1 VFV      0.430900
     32 OBB        -8.5890    5.2050   -5.0840 os        1 VFV     -0.379800
     33 NAZ        -8.8110    3.2730   -6.2170 nd        1 VFV     -0.288000
     34 NAY        -8.8290    4.2410   -7.1020 nd        1 VFV     -0.349000
     35 CBL        -8.6990    5.4370   -6.4640 cc        1 VFV      0.579900
     36 CBH        -8.6620    6.7970   -6.9500 ca        1 VFV     -0.173500
     37 CAI        -8.7610    7.0410   -8.3290 ca        1 VFV     -0.074500
     38 CAF        -8.7280    8.3530   -8.7990 ca        1 VFV     -0.136500
     39 CAD        -8.5970    9.4180   -7.9070 ca        1 VFV     -0.083000
     40 CAE        -8.4990    9.1740   -6.5350 ca        1 VFV     -0.136500
     41 CAH        -8.5310    7.8700   -6.0530 ca        1 VFV     -0.074500
     42 H1         -1.6650    0.6710   -1.9760 ha        1 VFV      0.141000
     43 H2          0.7110    1.1890   -2.5180 ha        1 VFV      0.164500
     44 H3          1.5110    1.9030    1.6880 ha        1 VFV      0.164500
     45 H4         -0.8660    1.3830    2.2260 ha        1 VFV      0.141000
     46 H5         -2.9870    2.2380    2.0000 ha        1 VFV      0.177000
     47 H6         -2.9570   -0.9290   -0.9660 ha        1 VFV      0.164000
     48 H7         -5.3060   -1.4700   -0.4230 ha        1 VFV      0.131000
     49 H8         -7.2770    0.4070    2.2910 hx        1 VFV      0.141700
     50 H9         -6.5190   -2.4220    1.1670 h1        1 VFV      0.100200
     51 H10        -6.3270   -1.7810    2.8700 h1        1 VFV      0.100200
     52 H11        -8.8790   -3.1480    0.3710 h4        1 VFV      0.176000
     53 H12       -11.3050   -3.4610    1.7350 h4        1 VFV      0.064100
     54 H13        -8.5330   -1.5860    4.3650 h5        1 VFV      0.079100
     55 H14        -8.6660   -0.6260    0.3630 hn        1 VFV      0.459300
     56 H15        -8.1230    3.9900   -0.3750 ha        1 VFV      0.151000
     57 H16        -8.2600    5.0690   -2.6240 ha        1 VFV      0.182000
     58 H17        -8.8160    0.1110   -2.2310 ha        1 VFV      0.151000
     59 H18        -8.9360    1.1830   -4.4440 ha        1 VFV      0.182000
     60 H19        -8.8660    6.2040   -9.0380 ha        1 VFV      0.152000
     61 H20        -8.8060    8.5460   -9.8800 ha        1 VFV      0.149500
     62 H21        -8.5720   10.4520   -8.2850 ha        1 VFV      0.149000
     63 H22        -8.3970   10.0160   -5.8330 ha        1 VFV      0.149500
     64 H23        -8.4550    7.6740   -4.9720 ha        1 VFV      0.152000
     65 HBA2       -7.3430   -0.2520   -0.5880 hn        1 VFV      0.459300
@<TRIPOS>BOND
     1    1    2 ar  
     2    1    7 ar  
     3    1   42 1   
     4    2    3 ar  
     5    2   43 1   
     6    3    4 1   
     7    3    5 ar  
     8    5    6 ar  
     9    5   44 1   
    10    6    7 ar  
    11    6   45 1   
    12    7    8 1   
    13    8    9 ar  
    14    8   12 ar  
    15    9   10 ar  
    16    9   46 1   
    17   10   11 1   
    18   10   14 ar  
    19   12   13 ar  
    20   12   47 1   
    21   13   14 ar  
    22   13   48 1   
    23   14   15 1   
    24   15   16 1   
    25   15   22 1   
    26   15   49 1   
    27   16   17 1   
    28   16   50 1   
    29   16   51 1   
    30   17   18 1   
    31   17   21 1   
    32   18   19 2   
    33   18   52 1   
    34   19   20 1   
    35   19   53 1   
    36   20   21 2   
    37   21   54 1   
    38   22   23 1   
    39   22   55 1   
    40   22   65 1   
    41   23   24 2   
    42   23   25 1   
    43   25   26 ar  
    44   25   28 ar  
    45   26   27 ar  
    46   26   56 1   
    47   27   30 ar  
    48   27   57 1   
    49   28   29 ar  
    50   28   58 1   
    51   29   30 ar  
    52   29   59 1   
    53   30   31 1   
    54   31   32 1   
    55   31   33 2   
    56   32   35 1   
    57   33   34 1   
    58   34   35 2   
    59   35   36 1   
    60   36   37 ar  
    61   36   41 ar  
    62   37   38 ar  
    63   37   60 1   
    64   38   39 ar  
    65   38   61 1   
    66   39   40 ar  
    67   39   62 1   
    68   40   41 ar  
    69   40   63 1   
    70   41   64 1   
@<TRIPOS>SUBSTRUCTURE
     1 VFV         1 TEMP              0 ****  ****    0 ROOT
