@<TRIPOS>MOLECULE
VFV
   64    69     1     0     0
SMALL
bcc


@<TRIPOS>ATOM
      1 CAO        -5.5970   -3.6480   -0.6670 ca        1 VFV     -0.089000
      2 CAK        -6.4440   -4.7470   -0.7560 ca        1 VFV     -0.166500
      3 CBD        -7.7480   -4.6620   -0.2340 ca        1 VFV      0.134900
      4 FAB        -8.5800   -5.7260   -0.3190 f         1 VFV     -0.135900
      5 CAJ        -8.1890   -3.4720    0.3750 ca        1 VFV     -0.166500
      6 CAN        -7.3270   -2.3850    0.4590 ca        1 VFV     -0.089000
      7 CBG        -6.0270   -2.4590   -0.0610 cp        1 VFV     -0.065000
      8 CBJ        -5.1280   -1.3100    0.0280 cp        1 VFV      0.003000
      9 CAV        -5.0900   -0.5350    1.1910 ca        1 VFV     -0.157000
     10 CBE        -4.2220    0.5700    1.2740 ca        1 VFV      0.147900
     11 FAC        -4.2090    1.3050    2.4120 f         1 VFV     -0.130900
     12 CAR        -4.2970   -0.9720   -1.0500 ca        1 VFV     -0.135000
     13 CAS        -3.4420    0.1220   -0.9650 ca        1 VFV     -0.099000
     14 CBK        -3.3860    0.9080    0.1890 ca        1 VFV     -0.148300
     15 CBN        -2.4500    2.0910    0.2820 c3        1 VFV      0.134000
     16 CAW        -3.0440    3.2000   -0.6460 c3        1 VFV      0.030300
     17 NBO        -2.2640    4.3920   -0.7400 na        1 VFV     -0.209900
     18 CAT        -1.6900    4.9140   -1.9060 cc        1 VFV     -0.267600
     19 CAG        -1.0290    6.0930   -1.5200 cd        1 VFV      0.294200
     20 NAX        -1.1780    6.3000   -0.1490 nd        1 VFV     -0.665000
     21 CAU        -1.9190    5.2680    0.3030 cc        1 VFV      0.401400
     22 NBA        -1.0860    1.7630   -0.0400 n         1 VFV     -0.565900
     23 CBC        -0.0840    1.7380    0.9150 c         1 VFV      0.679700
     24 OAA        -0.3120    2.0270    2.1050 o         1 VFV     -0.586100
     25 CBF         1.2770    1.3380    0.4500 ca        1 VFV     -0.120600
     26 CAM         2.0340    0.4960    1.2730 ca        1 VFV     -0.098500
     27 CAQ         3.3110    0.1040    0.8820 ca        1 VFV     -0.098500
     28 CAL         1.8100    1.8060   -0.7540 ca        1 VFV     -0.098500
     29 CAP         3.0900    1.4220   -1.1480 ca        1 VFV     -0.098500
     30 CBI         3.8420    0.5620   -0.3330 ca        1 VFV     -0.112500
     31 CBM         5.1650    0.1550   -0.7520 cc        1 VFV      0.503900
     32 OBB         5.9360   -0.6360    0.1210 os        1 VFV     -0.387800
     33 NAZ         5.8760    0.3800   -1.8820 nd        1 VFV     -0.336000
     34 NAY         7.0480   -0.2140   -1.7850 nd        1 VFV     -0.346000
     35 CBL         7.1340   -0.8440   -0.5890 cc        1 VFV      0.525900
     36 CBH         8.1770   -1.6330    0.0290 ca        1 VFV     -0.143500
     37 CAI         9.3730   -1.8670   -0.6670 ca        1 VFV     -0.086000
     38 CAF        10.3790   -2.6260   -0.0710 ca        1 VFV     -0.137500
     39 CAD        10.2010   -3.1520    1.2090 ca        1 VFV     -0.103000
     40 CAE         9.0110   -2.9180    1.9000 ca        1 VFV     -0.137500
     41 CAH         7.9990   -2.1610    1.3160 ca        1 VFV     -0.086000
     42 H1         -4.5750   -3.7180   -1.0700 ha        1 VFV      0.142500
     43 H2         -6.1060   -5.6820   -1.2280 ha        1 VFV      0.153000
     44 H3         -9.2100   -3.4130    0.7790 ha        1 VFV      0.153000
     45 H4         -7.6740   -1.4530    0.9320 ha        1 VFV      0.142500
     46 H5         -5.7260   -0.7850    2.0540 ha        1 VFV      0.157000
     47 H6         -4.3280   -1.5730   -1.9720 ha        1 VFV      0.144000
     48 H7         -2.8030    0.3720   -1.8260 ha        1 VFV      0.133000
     49 H8         -2.4610    2.4830    1.3480 h1        1 VFV      0.114700
     50 H9         -3.1830    2.7790   -1.6820 h1        1 VFV      0.066700
     51 H10        -4.0590    3.4570   -0.2260 h1        1 VFV      0.066700
     52 H11        -1.8040    4.4390   -2.8770 h4        1 VFV      0.172000
     53 H12        -0.4680    6.7890   -2.1430 h4        1 VFV      0.042100
     54 H13        -2.2240    5.0980    1.3410 h5        1 VFV      0.067100
     55 H14        -0.8890    1.4560   -0.9610 hn        1 VFV      0.311500
     56 H15         1.6150    0.1580    2.2350 ha        1 VFV      0.154500
     57 H16         3.9090   -0.5590    1.5260 ha        1 VFV      0.158500
     58 H17         1.2370    2.4990   -1.3900 ha        1 VFV      0.154500
     59 H18         3.5100    1.7960   -2.0950 ha        1 VFV      0.158500
     60 H19         9.5180   -1.4520   -1.6770 ha        1 VFV      0.152500
     61 H20        11.3170   -2.8090   -0.6160 ha        1 VFV      0.140500
     62 H21        10.9980   -3.7500    1.6740 ha        1 VFV      0.138000
     63 H22         8.8710   -3.3320    2.9100 ha        1 VFV      0.140500
     64 H23         7.0590   -1.9740    1.8590 ha        1 VFV      0.152500
@<TRIPOS>BOND
     1    1    2 ar  
     2    1    7 ar  
     3    1   42 1   
     4    2    3 ar  
     5    2   43 1   
     6    3    4 1   
     7    3    5 ar  
     8    5    6 ar  
     9    5   44 1   
    10    6    7 ar  
    11    6   45 1   
    12    7    8 1   
    13    8    9 ar  
    14    8   12 ar  
    15    9   10 ar  
    16    9   46 1   
    17   10   11 1   
    18   10   14 ar  
    19   12   13 ar  
    20   12   47 1   
    21   13   14 ar  
    22   13   48 1   
    23   14   15 1   
    24   15   16 1   
    25   15   22 1   
    26   15   49 1   
    27   16   17 1   
    28   16   50 1   
    29   16   51 1   
    30   17   18 1   
    31   17   21 1   
    32   18   19 2   
    33   18   52 1   
    34   19   20 1   
    35   19   53 1   
    36   20   21 2   
    37   21   54 1   
    38   22   23 1   
    39   22   55 1   
    40   23   24 2   
    41   23   25 1   
    42   25   26 ar  
    43   25   28 ar  
    44   26   27 ar  
    45   26   56 1   
    46   27   30 ar  
    47   27   57 1   
    48   28   29 ar  
    49   28   58 1   
    50   29   30 ar  
    51   29   59 1   
    52   30   31 1   
    53   31   32 1   
    54   31   33 2   
    55   32   35 1   
    56   33   34 1   
    57   34   35 2   
    58   35   36 1   
    59   36   37 ar  
    60   36   41 ar  
    61   37   38 ar  
    62   37   60 1   
    63   38   39 ar  
    64   38   61 1   
    65   39   40 ar  
    66   39   62 1   
    67   40   41 ar  
    68   40   63 1   
    69   41   64 1   
@<TRIPOS>SUBSTRUCTURE
     1 VFV         1 TEMP              0 ****  ****    0 ROOT
