@<TRIPOS>MOLECULE
VG0
   89    91     1     0     0
SMALL
bcc


@<TRIPOS>ATOM
      1 C1          0.0910    0.9510   -1.0410 c         1 VG0      0.595700
      2 N2          1.2470    0.1460   -0.4490 n4        1 VG0     -0.687800
      3 C3          1.5160    0.4210    1.0010 c3        1 VG0      0.092500
      4 C4          2.1520    1.8180    1.2450 c3        1 VG0      0.120100
      5 C5          2.3690   -0.7040    1.6130 c3        1 VG0     -0.043100
      6 C6          1.3250    2.5410    2.3380 c3        1 VG0      0.103800
      7 O7         -0.2750    1.9020   -0.3570 o         1 VG0     -0.494100
      8 C8         -0.4330    0.4620   -2.3110 ca        1 VG0     -0.134600
      9 C9         -1.7370    0.8510   -2.6250 ca        1 VG0     -0.153000
     10 C10        -2.3370    0.4030   -3.8370 ca        1 VG0      0.151600
     11 C11        -1.5820   -0.4310   -4.6830 ca        1 VG0     -0.182000
     12 C12        -0.2530   -0.8230   -4.3630 ca        1 VG0      0.232600
     13 C13         0.3270   -0.3490   -3.1640 ca        1 VG0     -0.243000
     14 C14         1.7020   -2.0240    1.4670 ca        1 VG0     -0.171300
     15 C15         0.7230   -2.4250    2.3840 ca        1 VG0     -0.132500
     16 C16         0.1270   -3.6810    2.2670 ca        1 VG0     -0.106500
     17 C17         0.5060   -4.5430    1.2370 ca        1 VG0     -0.087000
     18 C18         1.4860   -4.1490    0.3240 ca        1 VG0     -0.106500
     19 C19         2.0830   -2.8940    0.4370 ca        1 VG0     -0.132500
     20 N20         1.9500    3.8120    2.7800 n4        1 VG0     -0.763000
     21 O21         3.4660    1.7320    1.7550 oh        1 VG0     -0.597800
     22 N38         0.3960   -1.7180   -5.1960 nh        1 VG0     -0.737600
     23 C39         1.8200   -1.9250   -5.1650 c3        1 VG0      0.195800
     24 C40         2.6790   -0.7690   -5.6530 c3        1 VG0     -0.134100
     25 N46        -3.6320    0.7940   -4.1550 n         1 VG0     -0.397000
     26 C47        -4.4110    1.6530   -3.2690 c3        1 VG0      0.082000
     27 C48        -5.7830    1.8800   -3.9360 c3        1 VG0     -0.093400
     28 C49        -5.7440    1.1120   -5.2500 c3        1 VG0     -0.152400
     29 C50        -4.3730    0.4630   -5.3220 c         1 VG0      0.715500
     30 O57        -3.9500   -0.2440   -6.2400 o         1 VG0     -0.576500
     31 C59         1.2370    4.4920    3.9570 c3        1 VG0      0.157200
     32 C61        -0.2310    4.7450    3.6090 c3        1 VG0     -0.133600
     33 C65         1.9250    5.8410    4.1970 c3        1 VG0     -0.133600
     34 C69         1.3110    3.6200    5.2210 c3        1 VG0     -0.109400
     35 C70         2.6910    3.1020    5.5660 c3        1 VG0     -0.096400
     36 C73         2.7040    2.5260    6.9690 c3        1 VG0     -0.077400
     37 C76         4.0490    1.9080    7.3230 c3        1 VG0     -0.064700
     38 C79         3.9040    1.0400    8.5570 c3        1 VG0     -0.095600
     39 C83         5.1050    2.9690    7.5540 c3        1 VG0     -0.095600
     40 H2          1.0180   -0.8610   -0.5450 hn        1 VG0      0.471300
     41 H3          0.4970    0.3940    1.5020 hx        1 VG0      0.121700
     42 H4          2.1430    2.4370    0.3010 h1        1 VG0      0.068700
     43 H5C1        2.5160   -0.4510    2.6990 hc        1 VG0      0.088700
     44 H5C2        3.3880   -0.7250    1.1400 hc        1 VG0      0.088700
     45 H6C1        1.2370    1.8690    3.2410 hx        1 VG0      0.126200
     46 H6C2        0.2990    2.7580    1.9190 hx        1 VG0      0.126200
     47 H21         4.0490    1.3870    1.0650 ho        1 VG0      0.448000
     48 H20         1.9720    4.4740    1.9980 hn        1 VG0      0.458300
     49 H9         -2.2870    1.5030   -1.9280 ha        1 VG0      0.159000
     50 H13         1.3730   -0.5970   -2.9460 ha        1 VG0      0.121000
     51 H11        -2.0260   -0.8010   -5.6280 ha        1 VG0      0.204000
     52 H38        -0.0320   -1.8570   -6.0890 hn        1 VG0      0.443800
     53 H15         0.4370   -1.7600    3.2130 ha        1 VG0      0.130000
     54 H19         2.8890   -2.6130   -0.2570 ha        1 VG0      0.130000
     55 H16        -0.6350   -3.9970    2.9980 ha        1 VG0      0.162500
     56 H17         0.0420   -5.5400    1.1520 ha        1 VG0      0.168000
     57 H18         1.8000   -4.8370   -0.4780 ha        1 VG0      0.162500
     58 H391        2.0250   -2.8280   -5.8130 h1        1 VG0      0.059700
     59 H392        2.1220   -2.1950   -4.1120 h1        1 VG0      0.059700
     60 H401        2.4360   -0.5040   -6.7110 hc        1 VG0      0.051033
     61 H402        2.5310    0.1390   -5.0210 hc        1 VG0      0.051033
     62 H403        3.7540   -1.0690   -5.6060 hc        1 VG0      0.051033
     63 H471       -4.5350    1.1550   -2.2690 h1        1 VG0      0.052200
     64 H472       -3.8770    2.6320   -3.1210 h1        1 VG0      0.052200
     65 H481       -5.9520    2.9710   -4.1100 hc        1 VG0      0.075700
     66 H482       -6.6010    1.5050   -3.2730 hc        1 VG0      0.075700
     67 H491       -5.8750    1.7840   -6.1370 hc        1 VG0      0.105700
     68 H492       -6.5280    0.3140   -5.2980 hc        1 VG0      0.105700
     69 H611       -0.6870    5.3420    4.4400 hc        1 VG0      0.080033
     70 H612       -0.3350    5.3350    2.6650 hc        1 VG0      0.080033
     71 H613       -0.8040    3.7920    3.5180 hc        1 VG0      0.080033
     72 H651        1.4430    6.3290    5.0820 hc        1 VG0      0.080033
     73 H652        3.0130    5.7220    4.4230 hc        1 VG0      0.080033
     74 H653        1.8020    6.5220    3.3200 hc        1 VG0      0.080033
     75 H691        0.9370    4.2610    6.0680 hc        1 VG0      0.083700
     76 H692        0.5960    2.7600    5.1290 hc        1 VG0      0.083700
     77 H701        3.0020    2.2990    4.8440 hc        1 VG0      0.041200
     78 H702        3.4470    3.9290    5.5020 hc        1 VG0      0.041200
     79 H731        2.4600    3.3330    7.7100 hc        1 VG0      0.054700
     80 H732        1.9040    1.7430    7.0530 hc        1 VG0      0.054700
     81 H76         4.3800    1.2540    6.4670 hc        1 VG0      0.036700
     82 H791        3.5510    1.6470    9.4250 hc        1 VG0      0.043867
     83 H792        4.8880    0.5840    8.8240 hc        1 VG0      0.043867
     84 H793        3.1710    0.2180    8.3770 hc        1 VG0      0.043867
     85 H831        5.2640    3.5790    6.6340 hc        1 VG0      0.043867
     86 H832        4.8040    3.6500    8.3860 hc        1 VG0      0.043867
     87 H833        6.0760    2.4890    7.8300 hc        1 VG0      0.043867
     88 H22         2.0880    0.3280   -1.0040 hn        1 VG0      0.471300
     89 H202        2.9210    3.6180    3.0710 hn        1 VG0      0.458300
@<TRIPOS>BOND
     1    1    2 1   
     2    1    7 2   
     3    1    8 1   
     4    2    3 1   
     5    2   40 1   
     6    2   88 1   
     7    3    4 1   
     8    3    5 1   
     9    3   41 1   
    10    4    6 1   
    11    4   21 1   
    12    4   42 1   
    13    5   14 1   
    14    5   43 1   
    15    5   44 1   
    16    6   20 1   
    17    6   45 1   
    18    6   46 1   
    19    8    9 ar  
    20    8   13 ar  
    21    9   10 ar  
    22    9   49 1   
    23   10   11 ar  
    24   10   25 1   
    25   11   12 ar  
    26   11   51 1   
    27   12   13 ar  
    28   12   22 1   
    29   13   50 1   
    30   14   15 ar  
    31   14   19 ar  
    32   15   16 ar  
    33   15   53 1   
    34   16   17 ar  
    35   16   55 1   
    36   17   18 ar  
    37   17   56 1   
    38   18   19 ar  
    39   18   57 1   
    40   19   54 1   
    41   20   31 1   
    42   20   48 1   
    43   20   89 1   
    44   21   47 1   
    45   22   23 1   
    46   22   52 1   
    47   23   24 1   
    48   23   58 1   
    49   23   59 1   
    50   24   60 1   
    51   24   61 1   
    52   24   62 1   
    53   25   26 1   
    54   25   29 1   
    55   26   27 1   
    56   26   63 1   
    57   26   64 1   
    58   27   28 1   
    59   27   65 1   
    60   27   66 1   
    61   28   29 1   
    62   28   67 1   
    63   28   68 1   
    64   29   30 2   
    65   31   32 1   
    66   31   33 1   
    67   31   34 1   
    68   32   69 1   
    69   32   70 1   
    70   32   71 1   
    71   33   72 1   
    72   33   73 1   
    73   33   74 1   
    74   34   35 1   
    75   34   75 1   
    76   34   76 1   
    77   35   36 1   
    78   35   77 1   
    79   35   78 1   
    80   36   37 1   
    81   36   79 1   
    82   36   80 1   
    83   37   38 1   
    84   37   39 1   
    85   37   81 1   
    86   38   82 1   
    87   38   83 1   
    88   38   84 1   
    89   39   85 1   
    90   39   86 1   
    91   39   87 1   
@<TRIPOS>SUBSTRUCTURE
     1 VG0         1 TEMP              0 ****  ****    0 ROOT
