@<TRIPOS>MOLECULE
VG0
   90    92     1     0     0
SMALL
bcc


@<TRIPOS>ATOM
      1 C1         -0.1640    1.3290   -1.1200 c         1 VG0      0.571700
      2 N2          0.5290    0.6050    0.0090 n4        1 VG0     -0.679800
      3 C3          0.1860    1.1240    1.3880 c3        1 VG0      0.141500
      4 C4          0.9910    2.4140    1.7200 c3        1 VG0      0.102100
      5 C5          0.4190    0.0190    2.4340 c3        1 VG0     -0.054100
      6 C6          0.8040    2.7700    3.2110 c3        1 VG0      0.070800
      7 O7         -0.5610    2.4600   -0.8700 o         1 VG0     -0.420100
      8 C8         -0.3190    0.6050   -2.3970 ca        1 VG0     -0.122600
      9 C9         -1.4690    0.9100   -3.1290 ca        1 VG0     -0.114000
     10 C10        -1.7070    0.3160   -4.4040 ca        1 VG0      0.172600
     11 C11        -0.7030   -0.5610   -4.9060 ca        1 VG0     -0.137000
     12 C12         0.4410   -0.8410   -4.1540 ca        1 VG0      0.024600
     13 C13         0.6500   -0.2810   -2.8820 ca        1 VG0     -0.162000
     14 C14        -0.1920   -1.2780    2.0410 ca        1 VG0     -0.191300
     15 C15        -1.5740   -1.4750    2.1690 ca        1 VG0     -0.130500
     16 C16        -2.1320   -2.7230    1.8960 ca        1 VG0     -0.113000
     17 C17        -1.3150   -3.7840    1.5000 ca        1 VG0     -0.082000
     18 C18         0.0620   -3.5910    1.3700 ca        1 VG0     -0.113000
     19 C19         0.6240   -2.3440    1.6380 ca        1 VG0     -0.130500
     20 N20         1.3630    4.0920    3.5790 n4        1 VG0     -0.774000
     21 O21         2.3540    2.1280    1.4580 oh        1 VG0     -0.605800
     22 N38         1.4540   -1.7250   -4.7460 n4        1 VG0     -0.646400
     23 C39         0.9910   -3.1570   -4.8460 c3        1 VG0      0.116800
     24 C40         2.0230   -4.0380   -5.5140 c3        1 VG0     -0.148100
     25 N46        -2.8500    0.5940   -5.1130 n         1 VG0     -0.382000
     26 C47        -3.8360    1.5730   -4.6520 c3        1 VG0      0.071000
     27 C48        -4.9480    1.6420   -5.7160 c3        1 VG0     -0.093400
     28 C49        -4.5690    0.6390   -6.7980 c3        1 VG0     -0.147400
     29 C50        -3.2590    0.0200   -6.3670 c         1 VG0      0.724500
     30 O57        -2.6030   -0.8460   -6.9470 o         1 VG0     -0.570500
     31 C59         1.2140    4.4490    5.0750 c3        1 VG0      0.163200
     32 C61        -0.2590    4.4210    5.4780 c3        1 VG0     -0.138600
     33 C65         1.7490    5.8750    5.2550 c3        1 VG0     -0.138600
     34 C69         2.0010    3.4600    5.9490 c3        1 VG0     -0.114400
     35 C70         3.4380    3.2340    5.5330 c3        1 VG0     -0.094400
     36 C73         4.1940    2.4960    6.6230 c3        1 VG0     -0.079400
     37 C76         5.6190    2.1590    6.2050 c3        1 VG0     -0.063700
     38 C79         6.2020    1.1380    7.1620 c3        1 VG0     -0.097100
     39 C83         6.4940    3.3940    6.1660 c3        1 VG0     -0.097100
     40 H2          1.5490    0.6850   -0.1150 hn        1 VG0      0.481800
     41 H3         -0.9130    1.3970    1.3700 hx        1 VG0      0.122700
     42 H4          0.6170    3.2520    1.0620 h1        1 VG0      0.088700
     43 H5C1       -0.0540    0.3630    3.3960 hc        1 VG0      0.095200
     44 H5C2        1.5230   -0.0980    2.6130 hc        1 VG0      0.095200
     45 H6C1        1.3310    1.9950    3.8460 hx        1 VG0      0.130700
     46 H6C2       -0.2970    2.7670    3.4570 hx        1 VG0      0.130700
     47 H21         2.8000    2.9460    1.2000 ho        1 VG0      0.445000
     48 H20         0.9010    4.8320    3.0410 hn        1 VG0      0.449800
     49 H9         -2.1940    1.6350   -2.7130 ha        1 VG0      0.185000
     50 H13         1.5610   -0.5050   -2.3080 ha        1 VG0      0.142000
     51 H11        -0.8320   -1.0150   -5.9120 ha        1 VG0      0.219000
     52 H38         2.3180   -1.6890   -4.1930 hn        1 VG0      0.464800
     53 H15        -2.2190   -0.6550    2.5190 ha        1 VG0      0.137000
     54 H19         1.7160   -2.2180    1.5900 ha        1 VG0      0.137000
     55 H16        -3.2170   -2.8800    2.0200 ha        1 VG0      0.167500
     56 H17        -1.7540   -4.7790    1.3150 ha        1 VG0      0.174000
     57 H18         0.7110   -4.4370    1.0880 ha        1 VG0      0.167500
     58 H391        0.0280   -3.1600   -5.4370 hx        1 VG0      0.111700
     59 H392        0.7750   -3.5160   -3.8000 hx        1 VG0      0.111700
     60 H401        2.2370   -3.7130   -6.5630 hc        1 VG0      0.093367
     61 H402        2.9800   -4.0750   -4.9390 hc        1 VG0      0.093367
     62 H403        1.6050   -5.0790   -5.5590 hc        1 VG0      0.093367
     63 H471       -4.2570    1.2460   -3.6620 h1        1 VG0      0.066700
     64 H472       -3.3430    2.5760   -4.5270 h1        1 VG0      0.066700
     65 H481       -5.0200    2.6780   -6.1340 hc        1 VG0      0.093200
     66 H482       -5.9380    1.3890   -5.2590 hc        1 VG0      0.093200
     67 H491       -4.4310    1.1260   -7.7990 hc        1 VG0      0.124200
     68 H492       -5.3360   -0.1720   -6.9130 hc        1 VG0      0.124200
     69 H611       -0.6690    3.3830    5.4830 hc        1 VG0      0.084700
     70 H612       -0.3400    4.8220    6.5230 hc        1 VG0      0.084700
     71 H613       -0.8840    5.0700    4.8170 hc        1 VG0      0.084700
     72 H651        1.6990    6.1320    6.3460 hc        1 VG0      0.084700
     73 H652        2.8140    5.9710    4.9340 hc        1 VG0      0.084700
     74 H653        1.1240    6.6170    4.7020 hc        1 VG0      0.084700
     75 H691        1.9840    3.8820    6.9940 hc        1 VG0      0.090200
     76 H692        1.4580    2.4790    5.9930 hc        1 VG0      0.090200
     77 H701        3.9480    4.2140    5.3350 hc        1 VG0      0.034700
     78 H702        3.4830    2.6270    4.5890 hc        1 VG0      0.034700
     79 H731        3.6470    1.5480    6.8730 hc        1 VG0      0.059700
     80 H732        4.2190    3.1230    7.5540 hc        1 VG0      0.059700
     81 H76         5.5920    1.7050    5.1750 hc        1 VG0      0.028700
     82 H791        6.2220    1.5430    8.2030 hc        1 VG0      0.046033
     83 H792        7.2480    0.8850    6.8630 hc        1 VG0      0.046033
     84 H793        5.5950    0.2010    7.1570 hc        1 VG0      0.046033
     85 H831        6.1120    4.1310    5.4190 hc        1 VG0      0.046033
     86 H832        7.5380    3.1140    5.8810 hc        1 VG0      0.046033
     87 H833        6.5270    3.8870    7.1680 hc        1 VG0      0.046033
     88 H22         0.2720   -0.3990   -0.0220 hn        1 VG0      0.481800
     89 H202        2.3690    4.1060    3.3700 hn        1 VG0      0.449800
     90 H382        1.6710   -1.3840   -5.6960 hn        1 VG0      0.464800
@<TRIPOS>BOND
     1    1    2 1   
     2    1    7 2   
     3    1    8 1   
     4    2    3 1   
     5    2   40 1   
     6    2   88 1   
     7    3    4 1   
     8    3    5 1   
     9    3   41 1   
    10    4    6 1   
    11    4   21 1   
    12    4   42 1   
    13    5   14 1   
    14    5   43 1   
    15    5   44 1   
    16    6   20 1   
    17    6   45 1   
    18    6   46 1   
    19    8    9 ar  
    20    8   13 ar  
    21    9   10 ar  
    22    9   49 1   
    23   10   11 ar  
    24   10   25 1   
    25   11   12 ar  
    26   11   51 1   
    27   12   13 ar  
    28   12   22 1   
    29   13   50 1   
    30   14   15 ar  
    31   14   19 ar  
    32   15   16 ar  
    33   15   53 1   
    34   16   17 ar  
    35   16   55 1   
    36   17   18 ar  
    37   17   56 1   
    38   18   19 ar  
    39   18   57 1   
    40   19   54 1   
    41   20   31 1   
    42   20   48 1   
    43   20   89 1   
    44   21   47 1   
    45   22   23 1   
    46   22   52 1   
    47   22   90 1   
    48   23   24 1   
    49   23   58 1   
    50   23   59 1   
    51   24   60 1   
    52   24   61 1   
    53   24   62 1   
    54   25   26 1   
    55   25   29 1   
    56   26   27 1   
    57   26   63 1   
    58   26   64 1   
    59   27   28 1   
    60   27   65 1   
    61   27   66 1   
    62   28   29 1   
    63   28   67 1   
    64   28   68 1   
    65   29   30 2   
    66   31   32 1   
    67   31   33 1   
    68   31   34 1   
    69   32   69 1   
    70   32   70 1   
    71   32   71 1   
    72   33   72 1   
    73   33   73 1   
    74   33   74 1   
    75   34   35 1   
    76   34   75 1   
    77   34   76 1   
    78   35   36 1   
    79   35   77 1   
    80   35   78 1   
    81   36   37 1   
    82   36   79 1   
    83   36   80 1   
    84   37   38 1   
    85   37   39 1   
    86   37   81 1   
    87   38   82 1   
    88   38   83 1   
    89   38   84 1   
    90   39   85 1   
    91   39   86 1   
    92   39   87 1   
@<TRIPOS>SUBSTRUCTURE
     1 VG0         1 TEMP              0 ****  ****    0 ROOT
