@<TRIPOS>MOLECULE
VG0
   89    91     1     0     0
SMALL
bcc


@<TRIPOS>ATOM
      1 C1          0.0720    0.9430   -1.0340 c         1 VG0      0.595700
      2 N2          1.2290    0.1380   -0.4420 ny        1 VG0     -0.686800
      3 C3          1.4970    0.4140    1.0080 c3        1 VG0      0.092500
      4 C4          2.1320    1.8110    1.2520 c3        1 VG0      0.120100
      5 C5          2.3530   -0.7100    1.6200 c3        1 VG0     -0.043100
      6 C6          1.3110    2.5280    2.3520 c3        1 VG0      0.103800
      7 O7         -0.2960    1.8910   -0.3480 o         1 VG0     -0.494100
      8 C8         -0.4490    0.4550   -2.3060 ca        1 VG0     -0.134600
      9 C9         -1.7520    0.8450   -2.6220 ca        1 VG0     -0.153000
     10 C10        -2.3500    0.4000   -3.8360 ca        1 VG0      0.151600
     11 C11        -1.5940   -0.4330   -4.6810 ca        1 VG0     -0.182000
     12 C12        -0.2650   -0.8260   -4.3600 ca        1 VG0      0.232600
     13 C13         0.3120   -0.3540   -3.1590 ca        1 VG0     -0.243000
     14 C14         1.6880   -2.0310    1.4740 ca        1 VG0     -0.171300
     15 C15         0.7100   -2.4350    2.3900 ca        1 VG0     -0.132500
     16 C16         0.1160   -3.6910    2.2730 ca        1 VG0     -0.106500
     17 C17         0.4970   -4.5520    1.2430 ca        1 VG0     -0.087000
     18 C18         1.4770   -4.1560    0.3300 ca        1 VG0     -0.106500
     19 C19         2.0710   -2.9010    0.4440 ca        1 VG0     -0.132500
     20 N20         1.9350    3.8000    2.7940 ny        1 VG0     -0.763000
     21 O21         3.4500    1.7280    1.7530 oh        1 VG0     -0.597800
     22 N38         0.3860   -1.7200   -5.1930 nu        1 VG0     -0.737600
     23 C39         1.8100   -1.9270   -5.1590 c3        1 VG0      0.195800
     24 C40         2.6700   -0.7700   -5.6430 c3        1 VG0     -0.134100
     25 N46        -3.6440    0.7910   -4.1560 n         1 VG0     -0.397000
     26 C47        -4.4260    1.6470   -3.2690 c3        1 VG0      0.082000
     27 C48        -5.7960    1.8750   -3.9380 c3        1 VG0     -0.093400
     28 C49        -5.7530    1.1120   -5.2550 c3        1 VG0     -0.152400
     29 C50        -4.3820    0.4630   -5.3250 c         1 VG0      0.715500
     30 O57        -3.9570   -0.2410   -6.2450 o         1 VG0     -0.576500
     31 C59         1.2300    4.4710    3.9810 c3        1 VG0      0.157200
     32 C61        -0.2430    4.7170    3.6510 c3        1 VG0     -0.133600
     33 C65         1.9130    5.8240    4.2180 c3        1 VG0     -0.133600
     34 C69         1.3250    3.5960    5.2420 c3        1 VG0     -0.109400
     35 C70         2.7120    3.0850    5.5680 c3        1 VG0     -0.096400
     36 C73         2.7450    2.5060    6.9700 c3        1 VG0     -0.077400
     37 C76         4.0990    1.8960    7.3060 c3        1 VG0     -0.064700
     38 C79         3.9740    1.0220    8.5380 c3        1 VG0     -0.095600
     39 C83         5.1490    2.9630    7.5290 c3        1 VG0     -0.095600
     40 H2          1.0000   -0.8700   -0.5380 hn        1 VG0      0.471300
     41 H3          0.4790    0.3860    1.5090 hx        1 VG0      0.121700
     42 H4          2.1150    2.4330    0.3100 h1        1 VG0      0.068700
     43 H5C1        3.3710   -0.7290    1.1480 hc        1 VG0      0.088700
     44 H5C2        2.4980   -0.4570    2.7070 hc        1 VG0      0.088700
     45 H6C1        1.2310    1.8540    3.2540 hx        1 VG0      0.125700
     46 H6C2        0.2810    2.7440    1.9420 hx        1 VG0      0.125700
     47 H21         4.0290    1.3860    1.0570 ho        1 VG0      0.447000
     48 H20         1.9450    4.4660    2.0150 hn        1 VG0      0.458300
     49 H9         -2.3030    1.4960   -1.9250 ha        1 VG0      0.159000
     50 H13         1.3580   -0.6030   -2.9380 ha        1 VG0      0.121000
     51 H11        -2.0360   -0.8010   -5.6280 ha        1 VG0      0.204000
     52 H38        -0.0410   -1.8570   -6.0870 hn        1 VG0      0.443800
     53 H15         0.4220   -1.7710    3.2200 ha        1 VG0      0.130000
     54 H19         2.8760   -2.6170   -0.2510 ha        1 VG0      0.130000
     55 H16        -0.6450   -4.0090    3.0040 ha        1 VG0      0.162500
     56 H17         0.0350   -5.5500    1.1580 ha        1 VG0      0.168000
     57 H18         1.7920   -4.8440   -0.4720 ha        1 VG0      0.162500
     58 H391        2.0160   -2.8290   -5.8080 h1        1 VG0      0.059700
     59 H392        2.1090   -2.1990   -4.1070 h1        1 VG0      0.059700
     60 H401        2.4280   -0.5030   -6.7000 hc        1 VG0      0.051033
     61 H402        3.7440   -1.0710   -5.5950 hc        1 VG0      0.051033
     62 H403        2.5210    0.1370   -5.0090 hc        1 VG0      0.051033
     63 H471       -3.8930    2.6260   -3.1170 h1        1 VG0      0.052200
     64 H472       -4.5520    1.1460   -2.2710 h1        1 VG0      0.052200
     65 H481       -6.6150    1.4980   -3.2790 hc        1 VG0      0.075700
     66 H482       -5.9650    2.9670   -4.1090 hc        1 VG0      0.075700
     67 H491       -6.5370    0.3140   -5.3070 hc        1 VG0      0.105700
     68 H492       -5.8830    1.7860   -6.1400 hc        1 VG0      0.105700
     69 H611       -0.6940    5.3080    4.4890 hc        1 VG0      0.080033
     70 H612       -0.8110    3.7600    3.5630 hc        1 VG0      0.080033
     71 H613       -0.3620    5.3090    2.7110 hc        1 VG0      0.080033
     72 H651        3.0030    5.7120    4.4320 hc        1 VG0      0.080033
     73 H652        1.7750    6.5070    3.3440 hc        1 VG0      0.080033
     74 H653        1.4370    6.3070    5.1100 hc        1 VG0      0.080033
     75 H691        0.9560    4.2310    6.0950 hc        1 VG0      0.083700
     76 H692        0.6140    2.7320    5.1550 hc        1 VG0      0.083700
     77 H701        3.0180    2.2860    4.8400 hc        1 VG0      0.041200
     78 H702        3.4620    3.9170    5.4970 hc        1 VG0      0.041200
     79 H731        1.9520    1.7170    7.0600 hc        1 VG0      0.054700
     80 H732        2.5040    3.3090    7.7150 hc        1 VG0      0.054700
     81 H76         4.4240    1.2480    6.4430 hc        1 VG0      0.036700
     82 H791        3.2440    0.1960    8.3630 hc        1 VG0      0.043867
     83 H792        4.9640    0.5730    8.7920 hc        1 VG0      0.043867
     84 H793        3.6260    1.6240    9.4120 hc        1 VG0      0.043867
     85 H831        5.2930    3.5790    6.6100 hc        1 VG0      0.043867
     86 H832        6.1270    2.4900    7.7910 hc        1 VG0      0.043867
     87 H833        4.8530    3.6390    8.3670 hc        1 VG0      0.043867
     88 H22         2.0700    0.3200   -0.9970 hn        1 VG0      0.471300
     89 H202        2.9090    3.6100    3.0740 hn        1 VG0      0.458300
@<TRIPOS>BOND
     1    1    2 1   
     2    1    7 2   
     3    1    8 1   
     4    2    3 1   
     5    2   40 1   
     6    2   88 1   
     7    3    4 1   
     8    3    5 1   
     9    3   41 1   
    10    4    6 1   
    11    4   21 1   
    12    4   42 1   
    13    5   14 1   
    14    5   43 1   
    15    5   44 1   
    16    6   20 1   
    17    6   45 1   
    18    6   46 1   
    19    8    9 ar  
    20    8   13 ar  
    21    9   10 ar  
    22    9   49 1   
    23   10   11 ar  
    24   10   25 1   
    25   11   12 ar  
    26   11   51 1   
    27   12   13 ar  
    28   12   22 1   
    29   13   50 1   
    30   14   15 ar  
    31   14   19 ar  
    32   15   16 ar  
    33   15   53 1   
    34   16   17 ar  
    35   16   55 1   
    36   17   18 ar  
    37   17   56 1   
    38   18   19 ar  
    39   18   57 1   
    40   19   54 1   
    41   20   31 1   
    42   20   48 1   
    43   20   89 1   
    44   21   47 1   
    45   22   23 1   
    46   22   52 1   
    47   23   24 1   
    48   23   58 1   
    49   23   59 1   
    50   24   60 1   
    51   24   61 1   
    52   24   62 1   
    53   25   26 1   
    54   25   29 1   
    55   26   27 1   
    56   26   63 1   
    57   26   64 1   
    58   27   28 1   
    59   27   65 1   
    60   27   66 1   
    61   28   29 1   
    62   28   67 1   
    63   28   68 1   
    64   29   30 2   
    65   31   32 1   
    66   31   33 1   
    67   31   34 1   
    68   32   69 1   
    69   32   70 1   
    70   32   71 1   
    71   33   72 1   
    72   33   73 1   
    73   33   74 1   
    74   34   35 1   
    75   34   75 1   
    76   34   76 1   
    77   35   36 1   
    78   35   77 1   
    79   35   78 1   
    80   36   37 1   
    81   36   79 1   
    82   36   80 1   
    83   37   38 1   
    84   37   39 1   
    85   37   81 1   
    86   38   82 1   
    87   38   83 1   
    88   38   84 1   
    89   39   85 1   
    90   39   86 1   
    91   39   87 1   
@<TRIPOS>SUBSTRUCTURE
     1 VG0         1 TEMP              0 ****  ****    0 ROOT
