@<TRIPOS>MOLECULE
VG0
   87    89     1     0     0
SMALL
bcc


@<TRIPOS>ATOM
      1 C1         29.8380    1.1590   34.0330 c         1 VG0      0.672700
      2 N2         28.5730    1.0410   33.4890 n         1 VG0     -0.562900
      3 C3         28.1290    1.8560   32.3840 c3        1 VG0      0.105700
      4 C4         27.2060    3.0250   32.8440 c3        1 VG0      0.131100
      5 C5         27.3640    1.0450   31.3210 c3        1 VG0     -0.055100
      6 C6         27.9350    3.9120   33.8720 c3        1 VG0      0.124800
      7 O7         30.6000    2.0920   33.7060 o         1 VG0     -0.608100
      8 C8         30.2270    0.1590   35.0750 ca        1 VG0     -0.079600
      9 C9         30.9010    0.6350   36.1970 ca        1 VG0     -0.177000
     10 C10        31.2960   -0.2660   37.2140 ca        1 VG0      0.113600
     11 C11        31.0040   -1.6350   37.0610 ca        1 VG0     -0.210000
     12 C12        30.3430   -2.1150   35.9060 ca        1 VG0      0.167600
     13 C13        29.9420   -1.1950   34.9130 ca        1 VG0     -0.192000
     14 C14        28.1660   -0.0620   30.7370 ca        1 VG0     -0.082300
     15 C15        29.3540    0.2100   30.0470 ca        1 VG0     -0.128000
     16 C16        30.0900   -0.8270   29.4780 ca        1 VG0     -0.128000
     17 C17        29.6450   -2.1450   29.5870 ca        1 VG0     -0.130000
     18 C18        28.4600   -2.4220   30.2680 ca        1 VG0     -0.128000
     19 C19        27.7240   -1.3860   30.8410 ca        1 VG0     -0.128000
     20 N20        27.2330    5.1530   34.1330 n3        1 VG0     -0.815200
     21 O21        26.9060    3.7520   31.6580 oh        1 VG0     -0.607800
     22 N38        30.1900   -3.5020   35.7460 nh        1 VG0     -0.721600
     23 C39        29.1600   -4.0240   34.8830 c3        1 VG0      0.180800
     24 C40        27.7200   -3.7700   35.3040 c3        1 VG0     -0.133100
     25 N46        31.9660    0.2170   38.3490 n         1 VG0     -0.387000
     26 C47        32.4620    1.5860   38.3940 c3        1 VG0      0.086000
     27 C48        33.2380    1.7500   39.7160 c3        1 VG0     -0.095400
     28 C49        33.1090    0.4170   40.4410 c3        1 VG0     -0.158400
     29 C50        32.3100   -0.4900   39.5110 c         1 VG0      0.707500
     30 O57        32.0100   -1.6650   39.7660 o         1 VG0     -0.614500
     31 C59        27.8260    5.9960   35.1820 c3        1 VG0      0.188200
     32 C61        27.8130    5.2840   36.5470 c3        1 VG0     -0.087100
     33 C65        26.9760    7.2720   35.3410 c3        1 VG0     -0.087100
     34 C69        29.2910    6.4130   34.9130 c3        1 VG0     -0.111400
     35 C70        29.5150    7.0560   33.5630 c3        1 VG0     -0.082400
     36 C73        30.9230    7.6060   33.4580 c3        1 VG0     -0.074400
     37 C76        31.2080    8.2110   32.0910 c3        1 VG0     -0.068700
     38 C79        32.7030    8.3570   31.8880 c3        1 VG0     -0.089600
     39 C83        30.5270    9.5530   31.9250 c3        1 VG0     -0.089600
     40 H2         28.0160    0.2560   33.7280 hn        1 VG0      0.312500
     41 H3         29.0390    2.3230   31.8960 h1        1 VG0      0.095700
     42 H4         26.2590    2.6160   33.2910 h1        1 VG0      0.040700
     43 H5C1       26.4140    0.6460   31.7660 hc        1 VG0      0.065700
     44 H5C2       27.0760    1.7640   30.5050 hc        1 VG0      0.065700
     45 H6C1       27.9970    3.3360   34.8370 h1        1 VG0      0.054200
     46 H6C2       28.9910    4.0770   33.5050 h1        1 VG0      0.054200
     47 H21        26.1160    4.2730   31.8440 ho        1 VG0      0.410000
     48 H20        27.1840    5.6930   33.2850 hn        1 VG0      0.354800
     49 H9         31.1240    1.7110   36.2560 ha        1 VG0      0.151000
     50 H13        29.4340   -1.5450   34.0030 ha        1 VG0      0.141000
     51 H11        31.3050   -2.3510   37.8460 ha        1 VG0      0.172000
     52 H38        30.2550   -3.9980   36.6140 hn        1 VG0      0.399800
     53 H15        29.7060    1.2490   29.9560 ha        1 VG0      0.133000
     54 H19        26.7860   -1.6110   31.3710 ha        1 VG0      0.133000
     55 H16        31.0250   -0.6050   28.9420 ha        1 VG0      0.131500
     56 H17        30.2270   -2.9620   29.1370 ha        1 VG0      0.132000
     57 H18        28.1030   -3.4580   30.3510 ha        1 VG0      0.131500
     58 H391       29.3200   -3.6080   33.8470 h1        1 VG0      0.056200
     59 H392       29.3290   -5.1380   34.8250 h1        1 VG0      0.056200
     60 H401       27.5100   -4.2120   36.3070 hc        1 VG0      0.041700
     61 H402       27.5080   -2.6750   35.3490 hc        1 VG0      0.041700
     62 H403       27.0320   -4.2370   34.5600 hc        1 VG0      0.041700
     63 H471       33.1270    1.7830   37.5090 h1        1 VG0      0.057700
     64 H472       31.5970    2.3040   38.3550 h1        1 VG0      0.057700
     65 H481       34.3080    1.9950   39.5080 hc        1 VG0      0.060200
     66 H482       32.8040    2.5840   40.3200 hc        1 VG0      0.060200
     67 H491       34.1040   -0.0530   40.6400 hc        1 VG0      0.084200
     68 H492       32.5630    0.5150   41.4110 hc        1 VG0      0.084200
     69 H611       28.5400    4.4380   36.5650 hc        1 VG0      0.038033
     70 H612       28.1040    6.0140   37.3400 hc        1 VG0      0.038033
     71 H613       26.7950    4.8910   36.7770 hc        1 VG0      0.038033
     72 H651       25.9470    7.0100   35.6860 hc        1 VG0      0.038033
     73 H652       27.4510    7.9380   36.1000 hc        1 VG0      0.038033
     74 H653       26.8960    7.8320   34.3790 hc        1 VG0      0.038033
     75 H691       29.5990    7.1270   35.7220 hc        1 VG0      0.047200
     76 H692       29.9490    5.5080   35.0010 hc        1 VG0      0.047200
     77 H701       29.3550    6.3020   32.7460 hc        1 VG0      0.042200
     78 H702       28.7750    7.8840   33.4040 hc        1 VG0      0.042200
     79 H731       31.0860    8.3840   34.2500 hc        1 VG0      0.040700
     80 H732       31.6540    6.7760   33.6520 hc        1 VG0      0.040700
     81 H76        30.8110    7.5100   31.3020 hc        1 VG0      0.048700
     82 H791       32.9160    8.8110   30.8900 hc        1 VG0      0.032700
     83 H792       33.1420    9.0150   32.6760 hc        1 VG0      0.032700
     84 H793       33.2030    7.3610   31.9390 hc        1 VG0      0.032700
     85 H831       30.8910   10.2760   32.6940 hc        1 VG0      0.032700
     86 H832       30.7440    9.9740   30.9140 hc        1 VG0      0.032700
     87 H833       29.4210    9.4480   32.0340 hc        1 VG0      0.032700
@<TRIPOS>BOND
     1    1    2 1   
     2    1    7 2   
     3    1    8 1   
     4    2    3 1   
     5    2   40 1   
     6    3    4 1   
     7    3    5 1   
     8    3   41 1   
     9    4    6 1   
    10    4   21 1   
    11    4   42 1   
    12    5   14 1   
    13    5   43 1   
    14    5   44 1   
    15    6   20 1   
    16    6   45 1   
    17    6   46 1   
    18    8    9 ar  
    19    8   13 ar  
    20    9   10 ar  
    21    9   49 1   
    22   10   11 ar  
    23   10   25 1   
    24   11   12 ar  
    25   11   51 1   
    26   12   13 ar  
    27   12   22 1   
    28   13   50 1   
    29   14   15 ar  
    30   14   19 ar  
    31   15   16 ar  
    32   15   53 1   
    33   16   17 ar  
    34   16   55 1   
    35   17   18 ar  
    36   17   56 1   
    37   18   19 ar  
    38   18   57 1   
    39   19   54 1   
    40   20   31 1   
    41   20   48 1   
    42   21   47 1   
    43   22   23 1   
    44   22   52 1   
    45   23   24 1   
    46   23   58 1   
    47   23   59 1   
    48   24   60 1   
    49   24   61 1   
    50   24   62 1   
    51   25   26 1   
    52   25   29 1   
    53   26   27 1   
    54   26   63 1   
    55   26   64 1   
    56   27   28 1   
    57   27   65 1   
    58   27   66 1   
    59   28   29 1   
    60   28   67 1   
    61   28   68 1   
    62   29   30 2   
    63   31   32 1   
    64   31   33 1   
    65   31   34 1   
    66   32   69 1   
    67   32   70 1   
    68   32   71 1   
    69   33   72 1   
    70   33   73 1   
    71   33   74 1   
    72   34   35 1   
    73   34   75 1   
    74   34   76 1   
    75   35   36 1   
    76   35   77 1   
    77   35   78 1   
    78   36   37 1   
    79   36   79 1   
    80   36   80 1   
    81   37   38 1   
    82   37   39 1   
    83   37   81 1   
    84   38   82 1   
    85   38   83 1   
    86   38   84 1   
    87   39   85 1   
    88   39   86 1   
    89   39   87 1   
@<TRIPOS>SUBSTRUCTURE
     1 VG0         1 TEMP              0 ****  ****    0 ROOT
