@<TRIPOS>MOLECULE
VG2
   57    59     1     0     0
SMALL
bcc


@<TRIPOS>ATOM
      1 N1          0.1000   -0.1580   -0.0070 nh        1 VG2     -0.642000
      2 C2          1.5540   -0.2000    0.0660 c3        1 VG2      0.189800
      3 C3          2.0740   -0.2740    1.5020 c3        1 VG2     -0.080900
      4 C4          1.4330   -1.4170    2.2560 c3        1 VG2     -0.081400
      5 C5         -0.0750   -1.3110    2.1880 c3        1 VG2     -0.080900
      6 C6         -0.5610   -1.2150    0.7420 c3        1 VG2      0.189800
      7 C7         -0.4490    0.1660   -1.2670 ca        1 VG2      0.188600
      8 C8         -1.4740   -0.6050   -1.8590 ca        1 VG2     -0.202000
      9 C9         -2.0510   -0.1870   -3.0570 ca        1 VG2      0.072400
     10 Cl         -3.2940   -1.1230   -3.7480 cl        1 VG2     -0.088400
     11 C11        -1.6340    0.9660   -3.7130 ca        1 VG2     -0.211000
     12 C12        -0.6010    1.7430   -3.1370 ca        1 VG2      0.084600
     13 N13        -0.2180    2.9250   -3.8060 ns        1 VG2     -0.462100
     14 C14         0.9710    3.6120   -3.6470 c         1 VG2      0.672700
     15 O15         1.8690    3.2790   -2.8540 o         1 VG2     -0.568100
     16 C16         1.1450    4.8270   -4.5110 ca        1 VG2     -0.114600
     17 C17         0.1170    5.7520   -4.6930 ca        1 VG2     -0.086500
     18 C18         0.3250    6.8990   -5.4680 ca        1 VG2     -0.074800
     19 C19        -0.7660    7.8860   -5.6320 c3        1 VG2     -0.053800
     20 C20         1.5900    7.0890   -6.0490 ca        1 VG2      0.068100
     21 O21         1.8410    8.2910   -6.7200 os        1 VG2     -0.385900
     22 C22         1.6920    8.2000   -8.1390 c3        1 VG2      0.102400
     23 C23         1.5090    9.6370   -8.6390 c3        1 VG2      0.095800
     24 N24         2.5740   10.5500   -8.1320 nz        1 VG2     -0.834600
     25 C28         2.6370    6.1670   -5.8800 ca        1 VG2     -0.074800
     26 C29         3.9670    6.3680   -6.4990 c3        1 VG2     -0.053800
     27 C30         2.3990    5.0350   -5.0940 ca        1 VG2     -0.086500
     28 C31        -0.0220    1.3470   -1.9220 ca        1 VG2     -0.184000
     29 H2C1        1.9720    0.7260   -0.4190 h1        1 VG2      0.041450
     30 H2C2        1.9480   -1.0940   -0.5020 h1        1 VG2      0.041450
     31 H6C1       -0.4070   -2.2190    0.2460 h1        1 VG2      0.041450
     32 H6C2       -1.6670   -0.9950    0.7520 h1        1 VG2      0.041450
     33 H3C1        1.8660    0.6920    2.0310 hc        1 VG2      0.052200
     34 H3C2        3.1860   -0.4110    1.4620 hc        1 VG2      0.052200
     35 H4C1        1.7630   -2.3940    1.8140 hc        1 VG2      0.045700
     36 H4C2        1.7660   -1.4020    3.3260 hc        1 VG2      0.045700
     37 H5C1       -0.5480   -2.2140    2.6530 hc        1 VG2      0.052200
     38 H5C2       -0.4160   -0.4100    2.7620 hc        1 VG2      0.052200
     39 H8         -1.8280   -1.5370   -1.3920 ha        1 VG2      0.156000
     40 H31         0.7650    1.9710   -1.4650 ha        1 VG2      0.174000
     41 H11        -2.1060    1.2590   -4.6620 ha        1 VG2      0.142000
     42 H13        -0.8230    3.2140   -4.5430 hn        1 VG2      0.319500
     43 H17        -0.8650    5.6040   -4.2130 ha        1 VG2      0.165500
     44 H30         3.2080    4.3060   -4.9140 ha        1 VG2      0.165500
     45 H191       -0.5920    8.5310   -6.5290 hc        1 VG2      0.051033
     46 H192       -0.8210    8.5460   -4.7290 hc        1 VG2      0.051033
     47 H193       -1.7530    7.3710   -5.7480 hc        1 VG2      0.051033
     48 H221        0.7810    7.6060   -8.4180 h1        1 VG2      0.086200
     49 H222        2.6090    7.7180   -8.5710 h1        1 VG2      0.086200
     50 H231        0.5190   10.0370   -8.2730 hx        1 VG2      0.118700
     51 H232        1.5270    9.6480   -9.7660 hx        1 VG2      0.118700
     52 H241        2.6020   10.4890   -7.1030 hn        1 VG2      0.467467
     53 H242        3.4890   10.2660   -8.4960 hn        1 VG2      0.467467
     54 H291        4.7760    5.9830   -5.8290 hc        1 VG2      0.051033
     55 H292        4.0260    5.8130   -7.4700 hc        1 VG2      0.051033
     56 H293        4.1580    7.4510   -6.6960 hc        1 VG2      0.051033
     57 H243        2.3810   11.5150   -8.4120 hn        1 VG2      0.467467
@<TRIPOS>BOND
     1    1    2 1   
     2    1    6 1   
     3    1    7 1   
     4    2    3 1   
     5    2   29 1   
     6    2   30 1   
     7    3    4 1   
     8    3   33 1   
     9    3   34 1   
    10    4    5 1   
    11    4   35 1   
    12    4   36 1   
    13    5    6 1   
    14    5   37 1   
    15    5   38 1   
    16    6   31 1   
    17    6   32 1   
    18    7    8 ar  
    19    7   28 ar  
    20    8    9 ar  
    21    8   39 1   
    22    9   10 1   
    23    9   11 ar  
    24   11   12 ar  
    25   11   41 1   
    26   12   13 1   
    27   12   28 ar  
    28   13   14 1   
    29   13   42 1   
    30   14   15 2   
    31   14   16 1   
    32   16   17 ar  
    33   16   27 ar  
    34   17   18 ar  
    35   17   43 1   
    36   18   19 1   
    37   18   20 ar  
    38   19   45 1   
    39   19   46 1   
    40   19   47 1   
    41   20   21 1   
    42   20   25 ar  
    43   21   22 1   
    44   22   23 1   
    45   22   48 1   
    46   22   49 1   
    47   23   24 1   
    48   23   50 1   
    49   23   51 1   
    50   24   52 1   
    51   24   53 1   
    52   24   57 1   
    53   25   26 1   
    54   25   27 ar  
    55   26   54 1   
    56   26   55 1   
    57   26   56 1   
    58   27   44 1   
    59   28   40 1   
@<TRIPOS>SUBSTRUCTURE
     1 VG2         1 TEMP              0 ****  ****    0 ROOT
