@<TRIPOS>MOLECULE
VG2
   57    59     1     0     0
SMALL
bcc


@<TRIPOS>ATOM
      1 N1          0.1050   -0.1630   -0.0120 nh        1 VG2     -0.642000
      2 C2          1.5600   -0.2110    0.0530 c3        1 VG2      0.189800
      3 C3          2.0870   -0.2890    1.4860 c3        1 VG2     -0.080900
      4 C4          1.4450   -1.4310    2.2420 c3        1 VG2     -0.081400
      5 C5         -0.0620   -1.3190    2.1820 c3        1 VG2     -0.080900
      6 C6         -0.5560   -1.2180    0.7380 c3        1 VG2      0.189800
      7 C7         -0.4490    0.1650   -1.2680 ca        1 VG2      0.188600
      8 C8         -1.4810   -0.6000   -1.8560 ca        1 VG2     -0.202000
      9 C9         -2.0630   -0.1780   -3.0500 ca        1 VG2      0.072400
     10 CL         -3.3130   -1.1080   -3.7360 cl        1 VG2     -0.088400
     11 C11        -1.6450    0.9750   -3.7070 ca        1 VG2     -0.211000
     12 C12        -0.6060    1.7460   -3.1350 ca        1 VG2      0.084600
     13 N13        -0.2220    2.9280   -3.8030 n         1 VG2     -0.462100
     14 C14         0.9710    3.6100   -3.6500 c         1 VG2      0.672700
     15 O15         1.8730    3.2710   -2.8640 o         1 VG2     -0.567100
     16 C16         1.1450    4.8270   -4.5120 ca        1 VG2     -0.114600
     17 C17         0.1200    5.7570   -4.6830 ca        1 VG2     -0.086500
     18 C18         0.3280    6.9060   -5.4560 ca        1 VG2     -0.074800
     19 C19        -0.7590    7.8980   -5.6080 c3        1 VG2     -0.053800
     20 C20         1.5900    7.0920   -6.0460 ca        1 VG2      0.068100
     21 O21         1.8420    8.2950   -6.7140 os        1 VG2     -0.385900
     22 C22         1.6810    8.2080   -8.1330 c3        1 VG2      0.102400
     23 C23         1.5020    9.6480   -8.6260 c3        1 VG2      0.095800
     24 N24         2.5750   10.5550   -8.1240 n4        1 VG2     -0.834600
     25 C28         2.6330    6.1630   -5.8870 ca        1 VG2     -0.074800
     26 C29         3.9590    6.3590   -6.5160 c3        1 VG2     -0.053800
     27 C30         2.3960    5.0300   -5.1040 ca        1 VG2     -0.086500
     28 C31        -0.0220    1.3460   -1.9240 ca        1 VG2     -0.184000
     29 H2C1        1.9470   -1.1060   -0.5190 h1        1 VG2      0.041450
     30 H2C2        1.9780    0.7140   -0.4320 h1        1 VG2      0.041450
     31 H6C1       -0.4090   -2.2220    0.2400 h1        1 VG2      0.041450
     32 H6C2       -1.6610   -0.9940    0.7550 h1        1 VG2      0.041450
     33 H3C1        1.8850    0.6770    2.0180 hc        1 VG2      0.052200
     34 H3C2        3.1970   -0.4300    1.4400 hc        1 VG2      0.052200
     35 H4C1        1.7690   -2.4090    1.7970 hc        1 VG2      0.045700
     36 H4C2        1.7840   -1.4190    3.3100 hc        1 VG2      0.045700
     37 H5C1       -0.5370   -2.2210    2.6480 hc        1 VG2      0.052200
     38 H5C2       -0.3970   -0.4180    2.7590 hc        1 VG2      0.052200
     39 H8         -1.8360   -1.5320   -1.3890 ha        1 VG2      0.156000
     40 H31         0.7700    1.9660   -1.4700 ha        1 VG2      0.174000
     41 H11        -2.1210    1.2710   -4.6520 ha        1 VG2      0.142000
     42 H13        -0.8300    3.2220   -4.5350 hn        1 VG2      0.319500
     43 H17        -0.8590    5.6120   -4.1960 ha        1 VG2      0.165500
     44 H30         3.2020    4.2960   -4.9320 ha        1 VG2      0.165500
     45 H191       -0.5890    8.5460   -6.5040 hc        1 VG2      0.051033
     46 H192       -1.7490    7.3900   -5.7190 hc        1 VG2      0.051033
     47 H193       -0.8040    8.5560   -4.7030 hc        1 VG2      0.051033
     48 H221        2.5930    7.7240   -8.5730 h1        1 VG2      0.086200
     49 H222        0.7650    7.6200   -8.4070 h1        1 VG2      0.086200
     50 H231        1.5110    9.6640   -9.7530 hx        1 VG2      0.118700
     51 H232        0.5160   10.0520   -8.2510 hx        1 VG2      0.118700
     52 H241        3.4850   10.2680   -8.4960 hn        1 VG2      0.467467
     53 H242        2.3840   11.5220   -8.3990 hn        1 VG2      0.467467
     54 H291        4.7720    5.9680   -5.8540 hc        1 VG2      0.051033
     55 H292        4.0080    5.8080   -7.4900 hc        1 VG2      0.051033
     56 H293        4.1540    7.4420   -6.7110 hc        1 VG2      0.051033
     57 H243        2.6100   10.4890   -7.0960 hn        1 VG2      0.467467
@<TRIPOS>BOND
     1    1    2 1   
     2    1    6 1   
     3    1    7 1   
     4    2    3 1   
     5    2   29 1   
     6    2   30 1   
     7    3    4 1   
     8    3   33 1   
     9    3   34 1   
    10    4    5 1   
    11    4   35 1   
    12    4   36 1   
    13    5    6 1   
    14    5   37 1   
    15    5   38 1   
    16    6   31 1   
    17    6   32 1   
    18    7    8 ar  
    19    7   28 ar  
    20    8    9 ar  
    21    8   39 1   
    22    9   10 1   
    23    9   11 ar  
    24   11   12 ar  
    25   11   41 1   
    26   12   13 1   
    27   12   28 ar  
    28   13   14 1   
    29   13   42 1   
    30   14   15 2   
    31   14   16 1   
    32   16   17 ar  
    33   16   27 ar  
    34   17   18 ar  
    35   17   43 1   
    36   18   19 1   
    37   18   20 ar  
    38   19   45 1   
    39   19   46 1   
    40   19   47 1   
    41   20   21 1   
    42   20   25 ar  
    43   21   22 1   
    44   22   23 1   
    45   22   48 1   
    46   22   49 1   
    47   23   24 1   
    48   23   50 1   
    49   23   51 1   
    50   24   52 1   
    51   24   53 1   
    52   24   57 1   
    53   25   26 1   
    54   25   27 ar  
    55   26   54 1   
    56   26   55 1   
    57   26   56 1   
    58   27   44 1   
    59   28   40 1   
@<TRIPOS>SUBSTRUCTURE
     1 VG2         1 TEMP              0 ****  ****    0 ROOT
