@<TRIPOS>MOLECULE
VG2
   56    58     1     0     0
SMALL
bcc


@<TRIPOS>ATOM
      1 N1         23.0020   13.8850   28.9140 nh        1 VG2     -0.640000
      2 C2         23.5900   14.4700   27.7160 c3        1 VG2      0.188800
      3 C3         22.5430   14.8560   26.6720 c3        1 VG2     -0.080900
      4 C4         21.4760   15.7450   27.2720 c3        1 VG2     -0.080400
      5 C5         20.8690   15.0880   28.4920 c3        1 VG2     -0.080900
      6 C6         21.9460   14.6920   29.5030 c3        1 VG2      0.188800
      7 C7         23.9140   13.2830   29.8130 ca        1 VG2      0.181600
      8 C8         23.9170   13.5850   31.1920 ca        1 VG2     -0.210000
      9 C9         24.7720   12.8920   32.0470 ca        1 VG2      0.071400
     10 CL         24.7510   13.2600   33.7120 cl        1 VG2     -0.102400
     11 C11        25.6500   11.9190   31.5850 ca        1 VG2     -0.213000
     12 C12        25.6670   11.6120   30.2020 ca        1 VG2      0.099600
     13 N13        26.5480   10.6090   29.7620 n         1 VG2     -0.471100
     14 C14        26.9670   10.3760   28.4580 c         1 VG2      0.682700
     15 O15        26.5840   11.0570   27.4890 o         1 VG2     -0.581100
     16 C16        27.9360    9.2520   28.2790 ca        1 VG2     -0.146600
     17 C17        27.7850    8.0370   28.9510 ca        1 VG2     -0.091000
     18 C18        28.6990    6.9990   28.7490 ca        1 VG2     -0.087800
     19 C19        28.5260    5.7120   29.4620 c3        1 VG2     -0.054300
     20 C20        29.7680    7.2020   27.8570 ca        1 VG2      0.110100
     21 O21        30.6340    6.1540   27.5640 os        1 VG2     -0.351900
     22 C22        31.6880    6.0040   28.5290 c3        1 VG2      0.081400
     23 C23        32.5960    4.8850   27.9990 c3        1 VG2      0.154800
     24 N24        33.2310    5.1160   26.7320 n3        1 VG2     -0.899800
     25 C28        29.9230    8.4170   27.1640 ca        1 VG2     -0.087800
     26 C29        31.0280    8.6180   26.1990 c3        1 VG2     -0.054300
     27 C30        28.9920    9.4370   27.3820 ca        1 VG2     -0.091000
     28 C31        24.7950   12.2860   29.3310 ca        1 VG2     -0.187000
     29 H2C1       24.1880   15.3920   27.9800 h1        1 VG2      0.040450
     30 H2C2       24.2960   13.7230   27.2560 h1        1 VG2      0.040450
     31 H6C1       21.4620   14.0870   30.3210 h1        1 VG2      0.040450
     32 H6C2       22.3630   15.6350   29.9650 h1        1 VG2      0.040450
     33 H3C1       23.0650   15.3890   25.8350 hc        1 VG2      0.049950
     34 H3C2       22.0700   13.9320   26.2480 hc        1 VG2      0.049950
     35 H4C1       21.9250   16.7320   27.5590 hc        1 VG2      0.041700
     36 H4C2       20.6770   15.9480   26.5130 hc        1 VG2      0.041700
     37 H5C1       20.1590   15.7900   28.9980 hc        1 VG2      0.049950
     38 H5C2       20.2910   14.1790   28.1820 hc        1 VG2      0.049950
     39 H8         23.2580   14.3610   31.6090 ha        1 VG2      0.149000
     40 H31        24.7890   12.0240   28.2590 ha        1 VG2      0.177000
     41 H11        26.3170   11.4000   32.2890 ha        1 VG2      0.143000
     42 H13        26.9870   10.0770   30.4820 hn        1 VG2      0.320500
     43 H17        26.9330    7.8720   29.6290 ha        1 VG2      0.149000
     44 H30        29.0800   10.3900   26.8350 ha        1 VG2      0.149000
     45 H191       29.0100    4.8780   28.8930 hc        1 VG2      0.051033
     46 H192       28.9980    5.7680   30.4760 hc        1 VG2      0.051033
     47 H193       27.4420    5.4730   29.5910 hc        1 VG2      0.051033
     48 H221       32.2420    6.9730   28.6310 h1        1 VG2      0.039700
     49 H222       31.2440    5.7170   29.5170 h1        1 VG2      0.039700
     50 H231       33.3970    4.7190   28.7740 h1        1 VG2      0.062700
     51 H232       31.9830    3.9430   27.9150 h1        1 VG2      0.062700
     52 H241       32.5480    5.1760   26.0010 hn        1 VG2      0.351300
     53 H242       33.7610    5.9660   26.7450 hn        1 VG2      0.351300
     54 H291       30.6480    8.4820   25.1550 hc        1 VG2      0.051033
     55 H292       31.4490    9.6490   26.2880 hc        1 VG2      0.051033
     56 H293       31.8470    7.8760   26.3710 hc        1 VG2      0.051033
@<TRIPOS>BOND
     1    1    2 1   
     2    1    6 1   
     3    1    7 1   
     4    2    3 1   
     5    2   29 1   
     6    2   30 1   
     7    3    4 1   
     8    3   33 1   
     9    3   34 1   
    10    4    5 1   
    11    4   35 1   
    12    4   36 1   
    13    5    6 1   
    14    5   37 1   
    15    5   38 1   
    16    6   31 1   
    17    6   32 1   
    18    7    8 ar  
    19    7   28 ar  
    20    8    9 ar  
    21    8   39 1   
    22    9   10 1   
    23    9   11 ar  
    24   11   12 ar  
    25   11   41 1   
    26   12   13 1   
    27   12   28 ar  
    28   13   14 1   
    29   13   42 1   
    30   14   15 2   
    31   14   16 1   
    32   16   17 ar  
    33   16   27 ar  
    34   17   18 ar  
    35   17   43 1   
    36   18   19 1   
    37   18   20 ar  
    38   19   45 1   
    39   19   46 1   
    40   19   47 1   
    41   20   21 1   
    42   20   25 ar  
    43   21   22 1   
    44   22   23 1   
    45   22   48 1   
    46   22   49 1   
    47   23   24 1   
    48   23   50 1   
    49   23   51 1   
    50   24   52 1   
    51   24   53 1   
    52   25   26 1   
    53   25   27 ar  
    54   26   54 1   
    55   26   55 1   
    56   26   56 1   
    57   27   44 1   
    58   28   40 1   
@<TRIPOS>SUBSTRUCTURE
     1 VG2         1 TEMP              0 ****  ****    0 ROOT
