@<TRIPOS>MOLECULE
VG2
   58    60     1     0     0
SMALL
bcc


@<TRIPOS>ATOM
      1 N1          0.2370   -0.1410   -0.4480 nh        1 VG2     -0.648000
      2 C2          1.5010    0.0180    0.2520 c3        1 VG2      0.202300
      3 C3          1.6100   -0.8220    1.5240 c3        1 VG2     -0.086900
      4 C4          1.2680   -2.2690    1.2520 c3        1 VG2     -0.085400
      5 C5         -0.1110   -2.3650    0.6400 c3        1 VG2     -0.086900
      6 C6         -0.2340   -1.5080   -0.6190 c3        1 VG2      0.202300
      7 C7         -0.1980    0.8310   -1.3300 ca        1 VG2      0.245600
      8 C8         -0.9660    0.4990   -2.4860 ca        1 VG2     -0.168000
      9 C9         -1.4920    1.4870   -3.3070 ca        1 VG2      0.077400
     10 CL         -2.4080    1.0510   -4.6630 cl        1 VG2     -0.031400
     11 C11        -1.2780    2.8480   -3.0520 ca        1 VG2     -0.188000
     12 C12        -0.5060    3.1790   -1.9330 ca        1 VG2      0.005600
     13 N13        -0.2870    4.6010   -1.6160 n4        1 VG2     -0.544200
     14 C14         1.0830    5.0680   -2.0730 c         1 VG2      0.571700
     15 O15         1.9920    4.8780   -1.2800 o         1 VG2     -0.397100
     16 C16         1.1700    5.6850   -3.4050 ca        1 VG2     -0.158600
     17 C17         0.2280    6.6140   -3.8610 ca        1 VG2     -0.074000
     18 C18         0.3970    7.2380   -5.1010 ca        1 VG2     -0.055800
     19 C19        -0.5870    8.2460   -5.5580 c3        1 VG2     -0.066300
     20 C20         1.5300    6.9100   -5.8720 ca        1 VG2      0.114100
     21 O21         1.7710    7.6450   -7.0330 os        1 VG2     -0.376900
     22 C22         1.3990    6.9760   -8.2460 c3        1 VG2      0.101400
     23 C23         1.2560    8.0690   -9.3080 c3        1 VG2      0.095800
     24 N24         2.4910    8.8860   -9.4750 n4        1 VG2     -0.834600
     25 C28         2.4790    5.9700   -5.4330 ca        1 VG2     -0.055800
     26 C29         3.6690    5.6200   -6.2410 c3        1 VG2     -0.066300
     27 C30         2.2900    5.3660   -4.1840 ca        1 VG2     -0.074000
     28 C31         0.0390    2.2120   -1.0810 ca        1 VG2     -0.200000
     29 H2C1        1.6510    1.0950    0.5370 h1        1 VG2      0.048450
     30 H2C2        2.3400   -0.2760   -0.4470 h1        1 VG2      0.048450
     31 H6C1       -1.3250   -1.4780   -0.9030 h1        1 VG2      0.048450
     32 H6C2        0.3430   -1.9990   -1.4560 h1        1 VG2      0.048450
     33 H3C1        0.9270   -0.4120    2.3130 hc        1 VG2      0.065700
     34 H3C2        2.6620   -0.7360    1.9020 hc        1 VG2      0.065700
     35 H4C1        2.0270   -2.7190    0.5600 hc        1 VG2      0.061700
     36 H4C2        1.2990   -2.8530    2.2100 hc        1 VG2      0.061700
     37 H5C1       -0.8800   -2.0450    1.3910 hc        1 VG2      0.065700
     38 H5C2       -0.3350   -3.4250    0.3520 hc        1 VG2      0.065700
     39 H8         -1.1470   -0.5580   -2.7500 ha        1 VG2      0.181000
     40 H31         0.6310    2.5260   -0.2060 ha        1 VG2      0.164000
     41 H11        -1.7170    3.6080   -3.7140 ha        1 VG2      0.155000
     42 H13        -0.3550    4.7140   -0.5930 hn        1 VG2      0.465800
     43 H17        -0.6400    6.9060   -3.2480 ha        1 VG2      0.162500
     44 H30         3.0380    4.6460   -3.8080 ha        1 VG2      0.162500
     45 H191       -0.5330    8.3800   -6.6670 hc        1 VG2      0.065700
     46 H192       -0.3720    9.2340   -5.0750 hc        1 VG2      0.065700
     47 H193       -1.6290    7.9420   -5.2860 hc        1 VG2      0.065700
     48 H221        2.1980    6.2300   -8.5060 h1        1 VG2      0.090200
     49 H222        0.4100    6.4550   -8.1380 h1        1 VG2      0.090200
     50 H231        0.4220    8.7720   -9.0120 hx        1 VG2      0.127700
     51 H232        1.0040    7.5880  -10.2980 hx        1 VG2      0.127700
     52 H241        2.7610    9.2860   -8.5660 hn        1 VG2      0.471467
     53 H242        2.3240    9.6460  -10.1430 hn        1 VG2      0.471467
     54 H291        3.9650    6.4710   -6.9020 hc        1 VG2      0.065700
     55 H292        4.5400    5.3700   -5.5830 hc        1 VG2      0.065700
     56 H293        3.4500    4.7270   -6.8810 hc        1 VG2      0.065700
     57 H132       -1.0200    5.1580   -2.0670 hn        1 VG2      0.465800
     58 H243        3.2640    8.3040   -9.8160 hn        1 VG2      0.471467
@<TRIPOS>BOND
     1    1    2 1   
     2    1    6 1   
     3    1    7 1   
     4    2    3 1   
     5    2   29 1   
     6    2   30 1   
     7    3    4 1   
     8    3   33 1   
     9    3   34 1   
    10    4    5 1   
    11    4   35 1   
    12    4   36 1   
    13    5    6 1   
    14    5   37 1   
    15    5   38 1   
    16    6   31 1   
    17    6   32 1   
    18    7    8 ar  
    19    7   28 ar  
    20    8    9 ar  
    21    8   39 1   
    22    9   10 1   
    23    9   11 ar  
    24   11   12 ar  
    25   11   41 1   
    26   12   13 1   
    27   12   28 ar  
    28   13   14 1   
    29   13   42 1   
    30   13   57 1   
    31   14   15 2   
    32   14   16 1   
    33   16   17 ar  
    34   16   27 ar  
    35   17   18 ar  
    36   17   43 1   
    37   18   19 1   
    38   18   20 ar  
    39   19   45 1   
    40   19   46 1   
    41   19   47 1   
    42   20   21 1   
    43   20   25 ar  
    44   21   22 1   
    45   22   23 1   
    46   22   48 1   
    47   22   49 1   
    48   23   24 1   
    49   23   50 1   
    50   23   51 1   
    51   24   52 1   
    52   24   53 1   
    53   24   58 1   
    54   25   26 1   
    55   25   27 ar  
    56   26   54 1   
    57   26   55 1   
    58   26   56 1   
    59   27   44 1   
    60   28   40 1   
@<TRIPOS>SUBSTRUCTURE
     1 VG2         1 TEMP              0 ****  ****    0 ROOT
