@<TRIPOS>MOLECULE
VG3
   85    87     1     0     0
SMALL
bcc


@<TRIPOS>ATOM
      1 C1         30.4380    0.8910   34.7030 c         1 VG3      0.670700
      2 N2         29.4550    1.3570   33.8510 n         1 VG3     -0.555900
      3 C3         29.7180    2.3530   32.8350 c3        1 VG3      0.104700
      4 C4         29.1590    3.7470   33.2480 c3        1 VG3      0.139100
      5 C5         29.1170    1.9580   31.4710 c3        1 VG3     -0.052100
      6 O6         31.5190    1.4960   34.8540 o         1 VG3     -0.598100
      7 C7         30.1240   -0.3410   35.4840 ca        1 VG3     -0.165600
      8 C8         29.5540   -1.4650   34.8770 ca        1 VG3     -0.046000
      9 C9         29.3020   -2.6070   35.6370 ca        1 VG3     -0.161000
     10 C10        29.6180   -2.6270   36.9930 ca        1 VG3     -0.003000
     11 C11        30.2010   -1.5130   37.6120 ca        1 VG3     -0.386500
     12 C12        30.4500   -0.3710   36.8430 ca        1 VG3      0.028000
     13 C13        29.5080    0.5850   31.0550 ca        1 VG3     -0.082300
     14 C14        28.6610   -0.5010   31.3060 ca        1 VG3     -0.133000
     15 C15        29.0280   -1.7870   30.9140 ca        1 VG3     -0.128000
     16 C16        30.2460   -2.0000   30.2670 ca        1 VG3     -0.130000
     17 C17        31.0940   -0.9220   30.0120 ca        1 VG3     -0.128000
     18 C18        30.7280    0.3640   30.4040 ca        1 VG3     -0.133000
     19 O19        29.0690    4.5150   32.0560 oh        1 VG3     -0.612800
     20 C20        30.3940    6.5740   35.3820 c3        1 VG3      0.105500
     21 C21        30.1210    4.4180   34.2500 c3        1 VG3      0.106800
     22 N22        29.4850    5.5250   34.9420 n3        1 VG3     -0.838200
     23 S23        30.5590   -1.5370   39.2560 sy        1 VG3      1.384300
     24 C24        31.5350    6.1340   36.2930 c3        1 VG3     -0.120100
     25 C38        30.9890    7.3200   34.1620 c         1 VG3      0.657100
     26 N39        30.0860    7.9150   33.3080 n         1 VG3     -0.557900
     27 C40        30.4730    8.4720   32.0290 c3        1 VG3      0.092700
     28 O41        32.2200    7.4100   33.9980 o         1 VG3     -0.605100
     29 C43        29.9220    9.8960   31.8340 c3        1 VG3     -0.092900
     30 C44        30.4100   10.4720   30.5220 c3        1 VG3     -0.074900
     31 C45        30.0140    9.5980   29.3500 c3        1 VG3     -0.079400
     32 C46        30.5030    8.1770   29.5390 c3        1 VG3     -0.074900
     33 C47        30.0160    7.5940   30.8480 c3        1 VG3     -0.092900
     34 C60        32.2330   -1.8570   39.1620 c3        1 VG3     -0.317600
     35 C61        32.8650   -1.9020   40.5370 c3        1 VG3     -0.057400
     36 C64        34.3510   -2.1750   40.4550 c3        1 VG3     -0.072400
     37 C67        34.9750   -2.2190   41.8340 c3        1 VG3     -0.081400
     38 C70        36.4550   -2.4900   41.7600 c3        1 VG3     -0.093100
     39 O76        29.9030   -2.6190   39.8610 o         1 VG3     -0.653300
     40 O77        30.3530   -0.2640   39.8040 o         1 VG3     -0.653300
     41 H2         28.6430    0.7990   33.7180 hn        1 VG3      0.309500
     42 H3         30.8400    2.4570   32.7170 h1        1 VG3      0.089700
     43 H4         28.1260    3.6370   33.6840 h1        1 VG3      0.043700
     44 H5C1       27.9990    2.0480   31.5180 hc        1 VG3      0.073200
     45 H5C2       29.4780    2.7090   30.7170 hc        1 VG3      0.073200
     46 H19        28.9060    5.4300   32.3190 ho        1 VG3      0.417000
     47 H211       30.5080    3.6350   34.9650 h1        1 VG3      0.067700
     48 H212       31.0090    4.8030   33.6680 h1        1 VG3      0.067700
     49 H8         29.3160   -1.4590   33.7980 ha        1 VG3      0.150000
     50 H12        30.9050    0.5220   37.3100 ha        1 VG3      0.169000
     51 H9         28.8520   -3.4930   35.1640 ha        1 VG3      0.147000
     52 H10        29.4010   -3.5260   37.5980 ha        1 VG3      0.164000
     53 H14        27.6920   -0.3360   31.8000 ha        1 VG3      0.133000
     54 H18        31.3990    1.2140   30.2020 ha        1 VG3      0.133000
     55 H15        28.3530   -2.6330   31.1080 ha        1 VG3      0.133000
     56 H16        30.5340   -3.0140   29.9550 ha        1 VG3      0.134000
     57 H17        32.0540   -1.0870   29.5010 ha        1 VG3      0.133000
     58 H20        29.7620    7.3230   35.9530 h1        1 VG3      0.070700
     59 H22        28.9590    5.1860   35.7260 hn        1 VG3      0.369800
     60 H241       32.2060    5.4120   35.7660 hc        1 VG3      0.053367
     61 H242       32.1440    7.0240   36.5800 hc        1 VG3      0.053367
     62 H243       31.1320    5.6520   37.2150 hc        1 VG3      0.053367
     63 H601       32.4380   -2.8330   38.6470 h1        1 VG3      0.114200
     64 H602       32.7670   -1.0810   38.5510 h1        1 VG3      0.114200
     65 H39        29.1180    7.7400   33.4400 hn        1 VG3      0.310500
     66 H40        31.6050    8.5280   32.0100 h1        1 VG3      0.090700
     67 H431       28.8020    9.8750   31.8440 hc        1 VG3      0.045450
     68 H432       30.2590   10.5520   32.6780 hc        1 VG3      0.045450
     69 H471       30.4180    6.5530   30.9680 hc        1 VG3      0.045450
     70 H472       28.8970    7.5240   30.8380 hc        1 VG3      0.045450
     71 H441       29.9810   11.4980   30.3870 hc        1 VG3      0.043700
     72 H442       31.5270   10.5750   30.5510 hc        1 VG3      0.043700
     73 H451       28.8980    9.5980   29.2430 hc        1 VG3      0.040200
     74 H452       30.4430   10.0200   28.4040 hc        1 VG3      0.040200
     75 H461       30.1400    7.5380   28.6920 hc        1 VG3      0.043700
     76 H462       31.6250    8.1610   29.5170 hc        1 VG3      0.043700
     77 H611       32.6940   -0.9200   41.0570 hc        1 VG3      0.060200
     78 H612       32.3700   -2.7040   41.1480 hc        1 VG3      0.060200
     79 H641       34.5260   -3.1520   39.9320 hc        1 VG3      0.042200
     80 H642       34.8480   -1.3780   39.8420 hc        1 VG3      0.042200
     81 H671       34.7960   -1.2410   42.3560 hc        1 VG3      0.042200
     82 H672       34.4750   -3.0160   42.4460 hc        1 VG3      0.042200
     83 H701       36.9740   -1.6930   41.1750 hc        1 VG3      0.033700
     84 H702       36.8950   -2.5180   42.7860 hc        1 VG3      0.033700
     85 H703       36.6520   -3.4720   41.2650 hc        1 VG3      0.033700
@<TRIPOS>BOND
     1    1    2 1   
     2    1    6 2   
     3    1    7 1   
     4    2    3 1   
     5    2   41 1   
     6    3    4 1   
     7    3    5 1   
     8    3   42 1   
     9    4   19 1   
    10    4   21 1   
    11    4   43 1   
    12    5   13 1   
    13    5   44 1   
    14    5   45 1   
    15    7    8 ar  
    16    7   12 ar  
    17    8    9 ar  
    18    8   49 1   
    19    9   10 ar  
    20    9   51 1   
    21   10   11 ar  
    22   10   52 1   
    23   11   12 ar  
    24   11   23 1   
    25   12   50 1   
    26   13   14 ar  
    27   13   18 ar  
    28   14   15 ar  
    29   14   53 1   
    30   15   16 ar  
    31   15   55 1   
    32   16   17 ar  
    33   16   56 1   
    34   17   18 ar  
    35   17   57 1   
    36   18   54 1   
    37   19   46 1   
    38   20   22 1   
    39   20   24 1   
    40   20   25 1   
    41   20   58 1   
    42   21   22 1   
    43   21   47 1   
    44   21   48 1   
    45   22   59 1   
    46   23   34 1   
    47   23   39 2   
    48   23   40 2   
    49   24   60 1   
    50   24   61 1   
    51   24   62 1   
    52   25   26 1   
    53   25   28 2   
    54   26   27 1   
    55   26   65 1   
    56   27   29 1   
    57   27   33 1   
    58   27   66 1   
    59   29   30 1   
    60   29   67 1   
    61   29   68 1   
    62   30   31 1   
    63   30   71 1   
    64   30   72 1   
    65   31   32 1   
    66   31   73 1   
    67   31   74 1   
    68   32   33 1   
    69   32   75 1   
    70   32   76 1   
    71   33   69 1   
    72   33   70 1   
    73   34   35 1   
    74   34   63 1   
    75   34   64 1   
    76   35   36 1   
    77   35   77 1   
    78   35   78 1   
    79   36   37 1   
    80   36   79 1   
    81   36   80 1   
    82   37   38 1   
    83   37   81 1   
    84   37   82 1   
    85   38   83 1   
    86   38   84 1   
    87   38   85 1   
@<TRIPOS>SUBSTRUCTURE
     1 VG3         1 TEMP              0 ****  ****    0 ROOT
