@<TRIPOS>MOLECULE
VG3
   88    90     1     0     0
SMALL
bcc


@<TRIPOS>ATOM
      1 C1          0.0650   -0.1980   -0.9980 c         1 VG3      0.606700
      2 N2          1.3060   -1.0030   -0.6330 n4        1 VG3     -0.686800
      3 C3          1.8300   -0.7470    0.7530 c3        1 VG3      0.097500
      4 C4          2.3480    0.7040    0.9540 c3        1 VG3      0.133100
      5 C5          2.9050   -1.7950    1.1070 c3        1 VG3     -0.042100
      6 O6         -0.2910    0.5970   -0.1290 o         1 VG3     -0.529100
      7 C7         -0.5090   -0.4190   -2.3080 ca        1 VG3     -0.253600
      8 C8         -0.1090   -1.4380   -3.2020 ca        1 VG3     -0.047000
      9 C9         -0.6980   -1.5240   -4.4520 ca        1 VG3     -0.131000
     10 C10        -1.6830   -0.6000   -4.8400 ca        1 VG3      0.080000
     11 C11        -2.1060    0.3980   -3.9610 ca        1 VG3     -0.326500
     12 C12        -1.5280    0.4750   -2.6950 ca        1 VG3      0.067000
     13 C13         2.3690   -3.1750    0.9720 ca        1 VG3     -0.188300
     14 C14         2.6350   -3.9180   -0.1880 ca        1 VG3     -0.134000
     15 C15         2.1910   -5.2350   -0.2920 ca        1 VG3     -0.103500
     16 C16         1.4770   -5.8190    0.7580 ca        1 VG3     -0.076000
     17 C17         1.2110   -5.0820    1.9130 ca        1 VG3     -0.103500
     18 C18         1.6570   -3.7650    2.0220 ca        1 VG3     -0.134000
     19 O19         3.6960    0.7640    1.3710 oh        1 VG3     -0.613800
     20 C20         1.4070    3.4400    3.5790 c3        1 VG3      0.065500
     21 C21         1.5530    1.3660    2.1150 c3        1 VG3      0.092800
     22 N22         2.1040    2.7170    2.4570 n4        1 VG3     -0.759000
     23 S23        -3.2480    1.6280   -4.4340 sy        1 VG3      1.371300
     24 C24        -0.1060    3.4910    3.4040 c3        1 VG3     -0.152100
     25 C38         1.7520    2.8310    4.9490 c         1 VG3      0.514100
     26 N39         1.3900    3.6150    6.1540 n4        1 VG3     -0.671800
     27 C40         2.6140    4.2500    6.8380 c3        1 VG3      0.135500
     28 O41         2.2990    1.7460    5.0980 o         1 VG3     -0.390100
     29 C43         2.2630    4.6110    8.2860 c3        1 VG3     -0.103400
     30 C44         3.5030    5.1730    8.9630 c3        1 VG3     -0.078900
     31 C45         4.0470    6.3720    8.2190 c3        1 VG3     -0.098400
     32 C46         4.3290    6.0430    6.7690 c3        1 VG3     -0.078900
     33 C47         3.0920    5.4850    6.0780 c3        1 VG3     -0.103400
     34 C60        -4.6450    0.6960   -4.5060 c3        1 VG3     -0.345600
     35 C61        -5.8170    1.5200   -5.0200 c3        1 VG3     -0.063400
     36 C64        -7.0750    0.6840   -5.1190 c3        1 VG3     -0.072400
     37 C67        -8.2360    1.5140   -5.6280 c3        1 VG3     -0.080400
     38 C70        -9.4930    0.6890   -5.7310 c3        1 VG3     -0.096100
     39 O76        -2.8450    2.0790   -5.6840 o         1 VG3     -0.629300
     40 O77        -3.2710    2.5200   -3.3540 o         1 VG3     -0.629300
     41 H2          1.0790   -2.0150   -0.6890 hn        1 VG3      0.477800
     42 H3          0.9440   -0.9170    1.4420 hx        1 VG3      0.122700
     43 H4          2.2140    1.3150    0.0130 h1        1 VG3      0.072700
     44 H5C1        3.2250   -1.5980    2.1670 hc        1 VG3      0.090200
     45 H5C2        3.8090   -1.6670    0.4530 hc        1 VG3      0.090200
     46 H19         4.2660    0.3790    0.6870 ho        1 VG3      0.469000
     47 H211        0.4720    1.4730    1.8020 hx        1 VG3      0.138700
     48 H212        1.6350    0.7190    3.0370 hx        1 VG3      0.138700
     49 H8          0.6590   -2.1790   -2.9300 ha        1 VG3      0.132000
     50 H12        -1.8630    1.2670   -1.9930 ha        1 VG3      0.191000
     51 H9         -0.3900   -2.3170   -5.1570 ha        1 VG3      0.189000
     52 H10        -2.1120   -0.6600   -5.8610 ha        1 VG3      0.193000
     53 H14         3.2470   -3.4880   -0.9950 ha        1 VG3      0.129000
     54 H18         1.4700   -3.2010    2.9480 ha        1 VG3      0.129000
     55 H15         2.4230   -5.8260   -1.1940 ha        1 VG3      0.170000
     56 H16         1.1400   -6.8670    0.6800 ha        1 VG3      0.178000
     57 H17         0.6630   -5.5480    2.7490 ha        1 VG3      0.170000
     58 H20         1.8230    4.5040    3.5550 hx        1 VG3      0.152700
     59 H22         3.1060    2.5920    2.6920 hn        1 VG3      0.485300
     60 H241       -0.3830    3.8040    2.3620 hc        1 VG3      0.107700
     61 H242       -0.5400    4.2610    4.0930 hc        1 VG3      0.107700
     62 H243       -0.5850    2.5030    3.6160 hc        1 VG3      0.107700
     63 H601       -4.9410    0.2720   -3.5090 h1        1 VG3      0.127200
     64 H602       -4.5410   -0.1960   -5.1830 h1        1 VG3      0.127200
     65 H39         0.7180    4.3570    5.9250 hn        1 VG3      0.480300
     66 H40         3.4140    3.4490    6.8350 hx        1 VG3      0.122700
     67 H431        1.4460    5.3810    8.3100 hc        1 VG3      0.063950
     68 H432        1.9170    3.7040    8.8500 hc        1 VG3      0.063950
     69 H471        3.3470    5.2210    5.0190 hc        1 VG3      0.063950
     70 H472        2.2950    6.2760    6.0680 hc        1 VG3      0.063950
     71 H441        3.2270    5.4700   10.0110 hc        1 VG3      0.083950
     72 H442        4.2890    4.3750    9.0390 hc        1 VG3      0.083950
     73 H451        3.3200    7.2250    8.2830 hc        1 VG3      0.087200
     74 H452        4.9990    6.7130    8.7120 hc        1 VG3      0.087200
     75 H461        5.1670    5.3010    6.7000 hc        1 VG3      0.083950
     76 H462        4.6520    6.9710    6.2260 hc        1 VG3      0.083950
     77 H611       -5.5650    1.9350   -6.0340 hc        1 VG3      0.069200
     78 H612       -5.9970    2.3840   -4.3250 hc        1 VG3      0.069200
     79 H641       -6.9010   -0.1810   -5.8120 hc        1 VG3      0.045700
     80 H642       -7.3280    0.2600   -4.1120 hc        1 VG3      0.045700
     81 H671       -8.4090    2.3810   -4.9360 hc        1 VG3      0.047200
     82 H672       -7.9800    1.9390   -6.6350 hc        1 VG3      0.047200
     83 H701      -10.3360    1.3190   -6.1070 hc        1 VG3      0.043700
     84 H702       -9.7790    0.2760   -4.7340 hc        1 VG3      0.043700
     85 H703       -9.3500   -0.1650   -6.4380 hc        1 VG3      0.043700
     86 H221        2.0370   -0.8130   -1.3280 hn        1 VG3      0.477800
     87 H222        2.0430    3.3180    1.6200 hn        1 VG3      0.485300
     88 H392        0.9570    2.9780    6.8470 hn        1 VG3      0.480300
@<TRIPOS>BOND
     1    1    2 1   
     2    1    6 2   
     3    1    7 1   
     4    2    3 1   
     5    2   41 1   
     6    2   86 1   
     7    3    4 1   
     8    3    5 1   
     9    3   42 1   
    10    4   19 1   
    11    4   21 1   
    12    4   43 1   
    13    5   13 1   
    14    5   44 1   
    15    5   45 1   
    16    7    8 ar  
    17    7   12 ar  
    18    8    9 ar  
    19    8   49 1   
    20    9   10 ar  
    21    9   51 1   
    22   10   11 ar  
    23   10   52 1   
    24   11   12 ar  
    25   11   23 1   
    26   12   50 1   
    27   13   14 ar  
    28   13   18 ar  
    29   14   15 ar  
    30   14   53 1   
    31   15   16 ar  
    32   15   55 1   
    33   16   17 ar  
    34   16   56 1   
    35   17   18 ar  
    36   17   57 1   
    37   18   54 1   
    38   19   46 1   
    39   20   22 1   
    40   20   24 1   
    41   20   25 1   
    42   20   58 1   
    43   21   22 1   
    44   21   47 1   
    45   21   48 1   
    46   22   59 1   
    47   22   87 1   
    48   23   34 1   
    49   23   39 2   
    50   23   40 2   
    51   24   60 1   
    52   24   61 1   
    53   24   62 1   
    54   25   26 1   
    55   25   28 2   
    56   26   27 1   
    57   26   65 1   
    58   26   88 1   
    59   27   29 1   
    60   27   33 1   
    61   27   66 1   
    62   29   30 1   
    63   29   67 1   
    64   29   68 1   
    65   30   31 1   
    66   30   71 1   
    67   30   72 1   
    68   31   32 1   
    69   31   73 1   
    70   31   74 1   
    71   32   33 1   
    72   32   75 1   
    73   32   76 1   
    74   33   69 1   
    75   33   70 1   
    76   34   35 1   
    77   34   63 1   
    78   34   64 1   
    79   35   36 1   
    80   35   77 1   
    81   35   78 1   
    82   36   37 1   
    83   36   79 1   
    84   36   80 1   
    85   37   38 1   
    86   37   81 1   
    87   37   82 1   
    88   38   83 1   
    89   38   84 1   
    90   38   85 1   
@<TRIPOS>SUBSTRUCTURE
     1 VG3         1 TEMP              0 ****  ****    0 ROOT
