@<TRIPOS>MOLECULE
VG3
   88    90     1     0     0
SMALL
bcc


@<TRIPOS>ATOM
      1 C1          0.0540   -0.2130   -0.9860 c         1 VG3      0.606700
      2 N2          1.2890   -1.0220   -0.6130 n4        1 VG3     -0.686800
      3 C3          1.8140   -0.7580    0.7720 c3        1 VG3      0.097500
      4 C4          2.3420    0.6910    0.9600 c3        1 VG3      0.133100
      5 C5          2.8810   -1.8100    1.1350 c3        1 VG3     -0.042100
      6 O6         -0.2970    0.5930   -0.1240 o         1 VG3     -0.529100
      7 C7         -0.5210   -0.4420   -2.2940 ca        1 VG3     -0.253600
      8 C8         -0.1270   -1.4710   -3.1780 ca        1 VG3     -0.047000
      9 C9         -0.7160   -1.5640   -4.4280 ca        1 VG3     -0.131000
     10 C10        -1.6950   -0.6370   -4.8250 ca        1 VG3      0.080000
     11 C11        -2.1120    0.3710   -3.9550 ca        1 VG3     -0.326500
     12 C12        -1.5340    0.4560   -2.6890 ca        1 VG3      0.067000
     13 C13         2.3360   -3.1870    1.0120 ca        1 VG3     -0.188300
     14 C14         2.5980   -3.9430   -0.1400 ca        1 VG3     -0.134000
     15 C15         2.1440   -5.2580   -0.2330 ca        1 VG3     -0.103500
     16 C16         1.4250   -5.8270    0.8210 ca        1 VG3     -0.076000
     17 C17         1.1630   -5.0780    1.9700 ca        1 VG3     -0.103500
     18 C18         1.6180   -3.7630    2.0670 ca        1 VG3     -0.134000
     19 O19         3.6910    0.7450    1.3770 oh        1 VG3     -0.613800
     20 C20         1.4210    3.4560    3.5620 c3        1 VG3      0.065500
     21 C21         1.5510    1.3690    2.1140 c3        1 VG3      0.092800
     22 N22         2.1120    2.7190    2.4450 n4        1 VG3     -0.759000
     23 S23        -3.2460    1.6040   -4.4390 sy        1 VG3      1.371300
     24 C24        -0.0930    3.5140    3.3880 c3        1 VG3     -0.152100
     25 C38         1.7640    2.8570    4.9360 c         1 VG3      0.514100
     26 N39         1.4080    3.6530    6.1350 n4        1 VG3     -0.671800
     27 C40         2.6380    4.2870    6.8110 c3        1 VG3      0.135500
     28 O41         2.3040    1.7690    5.0930 o         1 VG3     -0.390100
     29 C43         2.2910    4.6620    8.2570 c3        1 VG3     -0.103400
     30 C44         3.5360    5.2230    8.9260 c3        1 VG3     -0.078900
     31 C45         4.0850    6.4130    8.1710 c3        1 VG3     -0.098400
     32 C46         4.3610    6.0700    6.7230 c3        1 VG3     -0.078900
     33 C47         3.1200    5.5140    6.0400 c3        1 VG3     -0.103400
     34 C60        -4.6480    0.6800   -4.5050 c3        1 VG3     -0.345600
     35 C61        -5.8140    1.5050   -5.0300 c3        1 VG3     -0.063400
     36 C64        -7.0770    0.6770   -5.1230 c3        1 VG3     -0.072400
     37 C67        -8.2320    1.5080   -5.6450 c3        1 VG3     -0.080400
     38 C70        -9.4930    0.6890   -5.7420 c3        1 VG3     -0.096100
     39 O76        -2.8390    2.0420   -5.6930 o         1 VG3     -0.629300
     40 O77        -3.2640    2.5060   -3.3670 o         1 VG3     -0.629300
     41 H2          1.0560   -2.0340   -0.6590 hn        1 VG3      0.477800
     42 H3          0.9260   -0.9160    1.4610 hx        1 VG3      0.122700
     43 H4          2.2120    1.2940    0.0140 h1        1 VG3      0.072700
     44 H5C1        3.7870   -1.6940    0.4810 hc        1 VG3      0.090200
     45 H5C2        3.2030   -1.6060    2.1930 hc        1 VG3      0.090200
     46 H19         4.2580    0.3500    0.6960 ho        1 VG3      0.469000
     47 H211        0.4710    1.4800    1.8000 hx        1 VG3      0.138700
     48 H212        1.6290    0.7300    3.0420 hx        1 VG3      0.138700
     49 H8          0.6350   -2.2150   -2.9000 ha        1 VG3      0.132000
     50 H12        -1.8640    1.2570   -1.9950 ha        1 VG3      0.191000
     51 H9         -0.4130   -2.3660   -5.1250 ha        1 VG3      0.189000
     52 H10        -2.1240   -0.7050   -5.8450 ha        1 VG3      0.193000
     53 H14         3.2130   -3.5250   -0.9510 ha        1 VG3      0.129000
     54 H18         1.4340   -3.1900    2.9880 ha        1 VG3      0.129000
     55 H15         2.3730   -5.8580   -1.1300 ha        1 VG3      0.170000
     56 H16         1.0810   -6.8730    0.7530 ha        1 VG3      0.178000
     57 H17         0.6110   -5.5320    2.8090 ha        1 VG3      0.170000
     58 H20         1.8420    4.5170    3.5280 hx        1 VG3      0.152700
     59 H22         2.0530    3.3130    1.6030 hn        1 VG3      0.485300
     60 H241       -0.5770    2.5310    3.6100 hc        1 VG3      0.107700
     61 H242       -0.5210    4.2920    4.0720 hc        1 VG3      0.107700
     62 H243       -0.3690    3.8200    2.3440 hc        1 VG3      0.107700
     63 H601       -4.5490   -0.2200   -5.1710 h1        1 VG3      0.127200
     64 H602       -4.9500    0.2690   -3.5030 h1        1 VG3      0.127200
     65 H39         0.9740    3.0250    6.8350 hn        1 VG3      0.480300
     66 H40         3.4330    3.4820    6.8130 hx        1 VG3      0.122700
     67 H431        1.4790    5.4360    8.2770 hc        1 VG3      0.063950
     68 H432        1.9430    3.7610    8.8290 hc        1 VG3      0.063950
     69 H471        3.3710    5.2390    4.9820 hc        1 VG3      0.063950
     70 H472        2.3270    6.3080    6.0250 hc        1 VG3      0.063950
     71 H441        4.3180    4.4220    9.0070 hc        1 VG3      0.083950
     72 H442        3.2640    5.5300    9.9730 hc        1 VG3      0.083950
     73 H451        5.0390    6.7530    8.6590 hc        1 VG3      0.087200
     74 H452        3.3620    7.2700    8.2300 hc        1 VG3      0.087200
     75 H461        5.1960    5.3240    6.6590 hc        1 VG3      0.083950
     76 H462        4.6880    6.9930    6.1720 hc        1 VG3      0.083950
     77 H611       -5.5570    1.9070   -6.0480 hc        1 VG3      0.069200
     78 H612       -5.9900    2.3780   -4.3460 hc        1 VG3      0.069200
     79 H641       -7.3350    0.2660   -4.1120 hc        1 VG3      0.045700
     80 H642       -6.9060   -0.1980   -5.8050 hc        1 VG3      0.045700
     81 H671       -8.4010    2.3840   -4.9650 hc        1 VG3      0.047200
     82 H672       -7.9700    1.9190   -6.6560 hc        1 VG3      0.047200
     83 H701      -10.3310    1.3190   -6.1280 hc        1 VG3      0.043700
     84 H702       -9.3530   -0.1740   -6.4380 hc        1 VG3      0.043700
     85 H703       -9.7850    0.2900   -4.7410 hc        1 VG3      0.043700
     86 H221        2.0220   -0.8440   -1.3080 hn        1 VG3      0.477800
     87 H222        3.1130    2.5890    2.6800 hn        1 VG3      0.485300
     88 H392        0.7410    4.3970    5.9000 hn        1 VG3      0.480300
@<TRIPOS>BOND
     1    1    2 1   
     2    1    6 2   
     3    1    7 1   
     4    2    3 1   
     5    2   41 1   
     6    2   86 1   
     7    3    4 1   
     8    3    5 1   
     9    3   42 1   
    10    4   19 1   
    11    4   21 1   
    12    4   43 1   
    13    5   13 1   
    14    5   44 1   
    15    5   45 1   
    16    7    8 ar  
    17    7   12 ar  
    18    8    9 ar  
    19    8   49 1   
    20    9   10 ar  
    21    9   51 1   
    22   10   11 ar  
    23   10   52 1   
    24   11   12 ar  
    25   11   23 1   
    26   12   50 1   
    27   13   14 ar  
    28   13   18 ar  
    29   14   15 ar  
    30   14   53 1   
    31   15   16 ar  
    32   15   55 1   
    33   16   17 ar  
    34   16   56 1   
    35   17   18 ar  
    36   17   57 1   
    37   18   54 1   
    38   19   46 1   
    39   20   22 1   
    40   20   24 1   
    41   20   25 1   
    42   20   58 1   
    43   21   22 1   
    44   21   47 1   
    45   21   48 1   
    46   22   59 1   
    47   22   87 1   
    48   23   34 1   
    49   23   39 2   
    50   23   40 2   
    51   24   60 1   
    52   24   61 1   
    53   24   62 1   
    54   25   26 1   
    55   25   28 2   
    56   26   27 1   
    57   26   65 1   
    58   26   88 1   
    59   27   29 1   
    60   27   33 1   
    61   27   66 1   
    62   29   30 1   
    63   29   67 1   
    64   29   68 1   
    65   30   31 1   
    66   30   71 1   
    67   30   72 1   
    68   31   32 1   
    69   31   73 1   
    70   31   74 1   
    71   32   33 1   
    72   32   75 1   
    73   32   76 1   
    74   33   69 1   
    75   33   70 1   
    76   34   35 1   
    77   34   63 1   
    78   34   64 1   
    79   35   36 1   
    80   35   77 1   
    81   35   78 1   
    82   36   37 1   
    83   36   79 1   
    84   36   80 1   
    85   37   38 1   
    86   37   81 1   
    87   37   82 1   
    88   38   83 1   
    89   38   84 1   
    90   38   85 1   
@<TRIPOS>SUBSTRUCTURE
     1 VG3         1 TEMP              0 ****  ****    0 ROOT
