@<TRIPOS>MOLECULE
VG3
   85    81     1     0     0
SMALL
bcc


@<TRIPOS>ATOM
      1 C1         -3.0980   -1.0320    0.9960 c1        1 VG3      0.338000
      2 N2         -2.4130    0.1500    1.4450 n2        1 VG3     -0.358000
      3 C3         -1.8920    0.2090    2.7710 c3        1 VG3      0.031000
      4 C4         -0.9270    1.3800    2.8860 c3        1 VG3      0.012000
      5 C5         -1.1630   -1.0740    3.0820 c3        1 VG3     -0.133000
      6 O6         -3.6010   -1.7870    1.8050 o         1 VG3     -0.363000
      7 C7         -3.2830   -1.2870   -0.5110 c2        1 VG3     -0.144000
      8 C8         -4.3240   -0.6830   -1.1920 c1        1 VG3     -0.017000
      9 C9         -4.4770   -0.8930   -2.5610 c1        1 VG3     -0.105250
     10 C10        -3.5850   -1.7100   -3.2420 c1        1 VG3     -0.105250
     11 C11        -2.5420   -2.3160   -2.5610 c1        1 VG3     -0.838000
     12 C12        -2.3880   -2.1060   -1.1940 c2        1 VG3      0.005000
     13 C13        -1.6810   -1.6490    4.4090 c2        1 VG3     -0.082000
     14 C14        -0.7790   -1.9990    5.4060 c2        1 VG3     -0.130000
     15 C15        -1.2180   -2.6850    6.5270 c1        1 VG3     -0.131000
     16 C16        -2.5610   -3.0250    6.6530 c1        1 VG3     -0.105250
     17 C17        -3.4580   -2.6780    5.6620 c1        1 VG3     -0.105250
     18 C18        -3.0200   -1.9880    4.5370 c1        1 VG3     -0.121000
     19 O19        -1.6440    2.5510    3.1580 oh        1 VG3     -0.335000
     20 C20         1.6250    2.9470    0.9840 c3        1 VG3     -0.032000
     21 C21        -0.1680    1.5410    1.5820 c3        1 VG3     -0.105000
     22 N22         0.2660    2.9180    1.4400 n3        1 VG3     -0.300000
     23 S23        -1.3120   -3.2690   -3.4680 s4        1 VG3      2.065800
     24 C24         1.7190    2.2770   -0.3460 c3        1 VG3     -0.250000
     25 C38         2.0930    4.4020    0.8560 c2        1 VG3      0.308000
     26 N39         3.5160    4.7120    0.8710 n         1 VG3     -0.371000
     27 C40         3.9110    5.9100    0.6800 c3        1 VG3      0.022000
     28 O41         1.2790    5.2870    0.6620 o         1 VG3     -0.374000
     29 C43         4.4930    6.1170   -0.7840 c3        1 VG3     -0.168500
     30 C44         5.0030    7.5360   -1.0310 c3        1 VG3     -0.152500
     31 C45         5.2400    8.1880    0.1330 c3        1 VG3     -0.158000
     32 C46         5.7860    7.6340    1.2450 c3        1 VG3     -0.152500
     33 C47         5.2790    6.2240    1.4710 c3        1 VG3     -0.168500
     34 C60        -2.0810   -4.6970   -4.2480 c2        1 VG3     -0.854000
     35 C61        -1.0060   -5.7640   -4.5420 c3        1 VG3     -0.136000
     36 C64        -1.6840   -7.0550   -5.0220 c3        1 VG3     -0.151000
     37 C67        -0.6520   -8.1850   -5.0760 c3        1 VG3     -0.160000
     38 C70        -1.2640   -9.4030   -5.7740 c3        1 VG3     -0.211000
     39 O76        -0.2280   -3.6620   -2.6180 o         1 VG3     -0.542400
     40 O77        -0.6280   -2.4530   -4.4320 o         1 VG3     -0.542400
     41 H2         -2.3800    0.8860    0.9120 hn        1 VG3      0.232000
     42 H3         -2.6250    0.3290    3.4030 h1        1 VG3      0.119000
     43 H4         -0.2960    1.2100    3.6110 h1        1 VG3      0.115000
     44 H5C1       -1.3200   -1.7190    2.3650 hc        1 VG3      0.103000
     45 H5C2       -0.2070   -0.8950    3.1550 hc        1 VG3      0.103000
     46 H19        -1.5000    2.8000    4.0060 ho        1 VG3      0.211000
     47 H211        0.6100    0.9530    1.5840 h1        1 VG3      0.083500
     48 H212       -0.7540    1.3040    0.8310 h1        1 VG3      0.083500
     49 H8         -4.9540   -0.1060   -0.7120 ha        1 VG3      0.162000
     50 H12        -1.6570   -2.5320   -0.7160 ha        1 VG3      0.160000
     51 H9         -5.2110   -0.4660   -3.0410 ha        1 VG3      0.143000
     52 H10        -3.6930   -1.8570   -4.2030 ha        1 VG3      0.143000
     53 H14         0.1580   -1.7620    5.3180 ha        1 VG3      0.132000
     54 H18        -3.6540   -1.7430    3.8370 ha        1 VG3      0.149000
     55 H15        -0.5870   -2.9300    7.2240 ha        1 VG3      0.131000
     56 H16        -2.8710   -3.5120    7.4480 ha        1 VG3      0.143000
     57 H17        -4.3960   -2.9150    5.7520 ha        1 VG3      0.143000
     58 H20         2.1920    2.4790    1.6240 h1        1 VG3      0.100000
     59 H22        -0.2730    3.3490    0.8270 hn        1 VG3      0.172000
     60 H241        2.1540    2.8800   -0.9860 hc        1 VG3      0.092000
     61 H242        0.8190    2.0570   -0.6640 hc        1 VG3      0.092000
     62 H243        2.2450    1.4570   -0.2610 hc        1 VG3      0.092000
     63 H601       -2.5060   -4.4200   -5.0900 ha        1 VG3      0.151000
     64 H602       -2.7550   -5.0700   -3.6500 ha        1 VG3      0.151000
     65 H39         4.1250    4.0500    1.0260 hn        1 VG3      0.221000
     66 H40         3.2160    6.5640    0.8870 h1        1 VG3      0.131000
     67 H431        5.2270    5.4930   -0.9190 hc        1 VG3      0.083250
     68 H432        3.7920    5.9200   -1.4300 hc        1 VG3      0.083250
     69 H471        5.9630    5.5940    1.1770 hc        1 VG3      0.083250
     70 H472        5.1240    6.0970    2.4270 hc        1 VG3      0.083250
     71 H441        4.3340    8.0320   -1.5450 hc        1 VG3      0.080500
     72 H442        5.8340    7.4920   -1.5470 hc        1 VG3      0.080500
     73 H451        5.8150    8.9520   -0.0970 hc        1 VG3      0.082500
     74 H452        4.3760    8.5590    0.4140 hc        1 VG3      0.082500
     75 H461        6.7590    7.6100    1.1440 hc        1 VG3      0.080500
     76 H462        5.5590    8.1810    2.0180 hc        1 VG3      0.080500
     77 H611       -0.4970   -5.9470   -3.7270 hc        1 VG3      0.099500
     78 H612       -0.4020   -5.4350   -5.2360 hc        1 VG3      0.099500
     79 H641       -2.0600   -6.9140   -5.9150 hc        1 VG3      0.081000
     80 H642       -2.3990   -7.2970   -4.4030 hc        1 VG3      0.081000
     81 H671       -0.3870   -8.4310   -4.1640 hc        1 VG3      0.081500
     82 H672        0.1360   -7.8850   -5.5750 hc        1 VG3      0.081500
     83 H701       -1.4070   -9.1990   -6.7210 hc        1 VG3      0.073333
     84 H702       -2.1220   -9.6230   -5.3550 hc        1 VG3      0.073333
     85 H703       -0.6510  -10.1720   -5.6920 hc        1 VG3      0.073333
@<TRIPOS>BOND
     1    1    6 1   
     2    1    7 1   
     3    2    3 1   
     4    2   41 1   
     5    3    4 1   
     6    3    5 1   
     7    3   42 1   
     8    4   19 1   
     9    4   21 1   
    10    4   43 1   
    11    5   13 1   
    12    5   44 1   
    13    5   45 1   
    14    7    8 1   
    15    7   12 1   
    16    8   49 1   
    17    9   10 1   
    18    9   51 1   
    19   10   52 1   
    20   11   12 1   
    21   11   23 1   
    22   12   50 1   
    23   13   14 1   
    24   13   18 1   
    25   14   15 1   
    26   14   53 1   
    27   15   55 1   
    28   16   17 1   
    29   16   56 1   
    30   17   57 1   
    31   18   54 1   
    32   19   46 1   
    33   20   22 1   
    34   20   24 1   
    35   20   25 1   
    36   20   58 1   
    37   21   22 1   
    38   21   47 1   
    39   21   48 1   
    40   22   59 1   
    41   23   39 1   
    42   23   40 1   
    43   24   60 1   
    44   24   61 1   
    45   24   62 1   
    46   25   26 1   
    47   25   28 1   
    48   26   27 1   
    49   26   65 1   
    50   27   29 1   
    51   27   33 1   
    52   27   66 1   
    53   29   30 1   
    54   29   67 1   
    55   29   68 1   
    56   30   31 1   
    57   30   71 1   
    58   30   72 1   
    59   31   32 1   
    60   31   73 1   
    61   31   74 1   
    62   32   33 1   
    63   32   75 1   
    64   32   76 1   
    65   33   69 1   
    66   33   70 1   
    67   34   35 1   
    68   34   63 1   
    69   34   64 1   
    70   35   36 1   
    71   35   77 1   
    72   35   78 1   
    73   36   37 1   
    74   36   79 1   
    75   36   80 1   
    76   37   38 1   
    77   37   81 1   
    78   37   82 1   
    79   38   83 1   
    80   38   84 1   
    81   38   85 1   
@<TRIPOS>SUBSTRUCTURE
     1 VG3         1 TEMP              0 ****  ****    0 ROOT
