@<TRIPOS>MOLECULE
VG3
   88    90     1     0     0
SMALL
bcc


@<TRIPOS>ATOM
      1 C1          0.0590   -0.2040   -0.9930 c         1 VG3      0.606700
      2 N2          1.2890   -1.0200   -0.6190 ny        1 VG3     -0.686800
      3 C3          1.8100   -0.7640    0.7690 c3        1 VG3      0.097500
      4 C4          2.3430    0.6830    0.9650 c3        1 VG3      0.133100
      5 C5          2.8710   -1.8220    1.1320 c3        1 VG3     -0.042100
      6 O6         -0.2930    0.5990   -0.1290 o         1 VG3     -0.529100
      7 C7         -0.5120   -0.4250   -2.3040 ca        1 VG3     -0.253600
      8 C8         -0.1180   -1.4510   -3.1920 ca        1 VG3     -0.047000
      9 C9         -0.7030   -1.5370   -4.4450 ca        1 VG3     -0.131000
     10 C10        -1.6780   -0.6050   -4.8400 ca        1 VG3      0.080000
     11 C11        -2.0950    0.4000   -3.9670 ca        1 VG3     -0.326500
     12 C12        -1.5210    0.4770   -2.6990 ca        1 VG3      0.067000
     13 C13         2.3210   -3.1960    1.0000 ca        1 VG3     -0.188300
     14 C14         2.5840   -3.9480   -0.1540 ca        1 VG3     -0.134000
     15 C15         2.1260   -5.2600   -0.2540 ca        1 VG3     -0.103500
     16 C16         1.4010   -5.8310    0.7950 ca        1 VG3     -0.076000
     17 C17         1.1380   -5.0860    1.9460 ca        1 VG3     -0.103500
     18 C18         1.5970   -3.7740    2.0500 ca        1 VG3     -0.134000
     19 O19         3.6900    0.7290    1.3880 oh        1 VG3     -0.613800
     20 C20         1.4200    3.4410    3.5740 c3        1 VG3      0.065500
     21 C21         1.5490    1.3580    2.1190 c3        1 VG3      0.092800
     22 N22         2.1150    2.7040    2.4580 ny        1 VG3     -0.759000
     23 S23        -3.2240    1.6390   -4.4490 sy        1 VG3      1.371300
     24 C24        -0.0920    3.5090    3.3900 c3        1 VG3     -0.152100
     25 C38         1.7510    2.8340    4.9480 c         1 VG3      0.514100
     26 N39         1.3910    3.6270    6.1470 ny        1 VG3     -0.671800
     27 C40         2.6200    4.2500    6.8360 c3        1 VG3      0.135500
     28 O41         2.2840    1.7420    5.1040 o         1 VG3     -0.390100
     29 C43         2.2650    4.6230    8.2800 c3        1 VG3     -0.103400
     30 C44         3.5090    5.1720    8.9610 c3        1 VG3     -0.078900
     31 C45         4.0730    6.3600    8.2140 c3        1 VG3     -0.098400
     32 C46         4.3580    6.0200    6.7680 c3        1 VG3     -0.078900
     33 C47         3.1190    5.4750    6.0720 c3        1 VG3     -0.103400
     34 C60        -4.6290    0.7190   -4.5240 c3        1 VG3     -0.345600
     35 C61        -5.7910    1.5510   -5.0460 c3        1 VG3     -0.063400
     36 C64        -7.0560    0.7270   -5.1480 c3        1 VG3     -0.072400
     37 C67        -8.2080    1.5640   -5.6650 c3        1 VG3     -0.080400
     38 C70        -9.4710    0.7500   -5.7710 c3        1 VG3     -0.096100
     39 O76        -2.8120    2.0810   -5.6990 o         1 VG3     -0.629300
     40 O77        -3.2440    2.5350   -3.3730 o         1 VG3     -0.629300
     41 H2          2.0250   -0.8410   -1.3110 hn        1 VG3      0.477800
     42 H3          0.9180   -0.9210    1.4540 hx        1 VG3      0.122700
     43 H4          2.2190    1.2900    0.0210 h1        1 VG3      0.072700
     44 H5C1        3.7800   -1.7070    0.4810 hc        1 VG3      0.090200
     45 H5C2        3.1890   -1.6230    2.1920 hc        1 VG3      0.090200
     46 H19         4.2580    0.3350    0.7090 ho        1 VG3      0.469000
     47 H211        0.4720    1.4760    1.8010 hx        1 VG3      0.138700
     48 H212        1.6200    0.7150    3.0450 hx        1 VG3      0.138700
     49 H8          0.6410   -2.1980   -2.9150 ha        1 VG3      0.132000
     50 H12        -1.8520    1.2750   -2.0020 ha        1 VG3      0.191000
     51 H9         -0.3990   -2.3360   -5.1450 ha        1 VG3      0.189000
     52 H10        -2.1040   -0.6660   -5.8620 ha        1 VG3      0.193000
     53 H14         3.2040   -3.5280   -0.9610 ha        1 VG3      0.129000
     54 H18         1.4120   -3.2040    2.9730 ha        1 VG3      0.129000
     55 H15         2.3560   -5.8570   -1.1530 ha        1 VG3      0.170000
     56 H16         1.0530   -6.8760    0.7200 ha        1 VG3      0.178000
     57 H17         0.5810   -5.5430    2.7810 ha        1 VG3      0.170000
     58 H20         1.8480    4.4990    3.5470 hx        1 VG3      0.152700
     59 H22         3.1130    2.5690    2.6990 hn        1 VG3      0.485300
     60 H241       -0.3590    3.8200    2.3460 hc        1 VG3      0.107700
     61 H242       -0.5200    4.2860    4.0740 hc        1 VG3      0.107700
     62 H243       -0.5830    2.5270    3.6050 hc        1 VG3      0.107700
     63 H601       -4.5300   -0.1770   -5.1970 h1        1 VG3      0.127200
     64 H602       -4.9330    0.3020   -3.5260 h1        1 VG3      0.127200
     65 H39         0.7310    4.3770    5.9110 hn        1 VG3      0.480300
     66 H40         3.4100    3.4380    6.8420 hx        1 VG3      0.122700
     67 H431        1.9040    3.7240    8.8460 hc        1 VG3      0.063950
     68 H432        1.4590    5.4030    8.2950 hc        1 VG3      0.063950
     69 H471        2.3320    6.2760    6.0530 hc        1 VG3      0.063950
     70 H472        3.3760    5.2020    5.0160 hc        1 VG3      0.063950
     71 H441        4.2830    4.3650    9.0450 hc        1 VG3      0.083950
     72 H442        3.2300    5.4790   10.0060 hc        1 VG3      0.083950
     73 H451        3.3560    7.2230    8.2700 hc        1 VG3      0.087200
     74 H452        5.0260    6.6910    8.7110 hc        1 VG3      0.087200
     75 H461        5.1880    5.2670    6.7070 hc        1 VG3      0.083950
     76 H462        4.6970    6.9410    6.2220 hc        1 VG3      0.083950
     77 H611       -5.9670    2.4200   -4.3560 hc        1 VG3      0.069200
     78 H612       -5.5310    1.9600   -6.0610 hc        1 VG3      0.069200
     79 H641       -7.3170    0.3080   -4.1410 hc        1 VG3      0.045700
     80 H642       -6.8860   -0.1430   -5.8370 hc        1 VG3      0.045700
     81 H671       -7.9440    1.9830   -6.6730 hc        1 VG3      0.047200
     82 H672       -8.3760    2.4350   -4.9780 hc        1 VG3      0.047200
     83 H701       -9.7660    0.3430   -4.7740 hc        1 VG3      0.043700
     84 H702       -9.3320   -0.1070   -6.4740 hc        1 VG3      0.043700
     85 H703      -10.3060    1.3850   -6.1540 hc        1 VG3      0.043700
     86 H221        1.0520   -2.0300   -0.6710 hn        1 VG3      0.477800
     87 H222        2.0640    3.3020    1.6190 hn        1 VG3      0.485300
     88 H392        0.9470    2.9990    6.8410 hn        1 VG3      0.480300
@<TRIPOS>BOND
     1    1    2 1   
     2    1    6 2   
     3    1    7 1   
     4    2    3 1   
     5    2   41 1   
     6    2   86 1   
     7    3    4 1   
     8    3    5 1   
     9    3   42 1   
    10    4   19 1   
    11    4   21 1   
    12    4   43 1   
    13    5   13 1   
    14    5   44 1   
    15    5   45 1   
    16    7    8 ar  
    17    7   12 ar  
    18    8    9 ar  
    19    8   49 1   
    20    9   10 ar  
    21    9   51 1   
    22   10   11 ar  
    23   10   52 1   
    24   11   12 ar  
    25   11   23 1   
    26   12   50 1   
    27   13   14 ar  
    28   13   18 ar  
    29   14   15 ar  
    30   14   53 1   
    31   15   16 ar  
    32   15   55 1   
    33   16   17 ar  
    34   16   56 1   
    35   17   18 ar  
    36   17   57 1   
    37   18   54 1   
    38   19   46 1   
    39   20   22 1   
    40   20   24 1   
    41   20   25 1   
    42   20   58 1   
    43   21   22 1   
    44   21   47 1   
    45   21   48 1   
    46   22   59 1   
    47   22   87 1   
    48   23   34 1   
    49   23   39 2   
    50   23   40 2   
    51   24   60 1   
    52   24   61 1   
    53   24   62 1   
    54   25   26 1   
    55   25   28 2   
    56   26   27 1   
    57   26   65 1   
    58   26   88 1   
    59   27   29 1   
    60   27   33 1   
    61   27   66 1   
    62   29   30 1   
    63   29   67 1   
    64   29   68 1   
    65   30   31 1   
    66   30   71 1   
    67   30   72 1   
    68   31   32 1   
    69   31   73 1   
    70   31   74 1   
    71   32   33 1   
    72   32   75 1   
    73   32   76 1   
    74   33   69 1   
    75   33   70 1   
    76   34   35 1   
    77   34   63 1   
    78   34   64 1   
    79   35   36 1   
    80   35   77 1   
    81   35   78 1   
    82   36   37 1   
    83   36   79 1   
    84   36   80 1   
    85   37   38 1   
    86   37   81 1   
    87   37   82 1   
    88   38   83 1   
    89   38   84 1   
    90   38   85 1   
@<TRIPOS>SUBSTRUCTURE
     1 VG3         1 TEMP              0 ****  ****    0 ROOT
