@<TRIPOS>MOLECULE
VG4
   89    92     1     0     0
SMALL
bcc


@<TRIPOS>ATOM
      1 C1         -0.7550   -0.8070    0.2400 ca        1 VG4      0.134600
      2 C2          0.6630   -0.7080    0.2700 ca        1 VG4     -0.116000
      3 C3          1.3590   -0.8100    1.4830 ca        1 VG4     -0.158600
      4 C4          0.6810   -1.0290    2.6970 ca        1 VG4     -0.236000
      5 C5         -0.7110   -1.1390    2.6680 ca        1 VG4      0.190100
      6 C6         -1.4320   -1.0280    1.4580 ca        1 VG4     -0.103000
      7 C7          2.8010   -0.6940    1.4000 c         1 VG4      0.606700
      8 N8          3.5460   -0.5390    2.7260 n4        1 VG4     -0.687800
      9 O9          3.5380   -0.6970    0.4140 o         1 VG4     -0.540100
     10 C10         4.9930   -0.1640    2.5900 c3        1 VG4      0.095500
     11 C11         5.5460    0.3180    3.9460 c3        1 VG4     -0.041100
     12 C12         5.8620   -1.2990    1.9820 c3        1 VG4      0.132100
     13 O13         6.8950   -1.7350    2.8410 oh        1 VG4     -0.617800
     14 C14         4.7560    1.4640    4.4660 ca        1 VG4     -0.185300
     15 C15         6.5960   -0.7450    0.7300 c3        1 VG4      0.094800
     16 N16         7.5880   -1.7320    0.1940 n4        1 VG4     -0.760000
     17 C17         8.4180   -1.2530   -0.9690 c3        1 VG4      0.066500
     18 C18         9.5030   -0.2600   -0.5210 c         1 VG4      0.513100
     19 N19        10.5880    0.0450   -1.4850 n4        1 VG4     -0.671800
     20 O20         9.5180    0.2920    0.5720 o         1 VG4     -0.388100
     21 C21        11.9270   -0.6100   -1.0950 c3        1 VG4      0.135500
     22 C22         7.5780   -0.6310   -2.0790 c3        1 VG4     -0.150100
     23 C23        13.0760    0.1070   -1.8130 c3        1 VG4     -0.103400
     24 C24        14.3910   -0.5090   -1.3620 c3        1 VG4     -0.078900
     25 C25        14.4270   -1.9980   -1.6270 c3        1 VG4     -0.098400
     26 C26        13.2540   -2.7030   -0.9820 c3        1 VG4     -0.078900
     27 C27        11.9310   -2.0990   -1.4300 c3        1 VG4     -0.103400
     28 C56         3.7920    1.2570    5.4630 ca        1 VG4     -0.132000
     29 C57         3.0910    2.3380    5.9940 ca        1 VG4     -0.103500
     30 C58         3.3450    3.6320    5.5340 ca        1 VG4     -0.076000
     31 C59         4.3060    3.8430    4.5430 ca        1 VG4     -0.103500
     32 C60         5.0110    2.7640    4.0110 ca        1 VG4     -0.132000
     33 O66        -1.5150   -1.3130    3.7620 os        1 VG4     -0.290900
     34 C67        -0.9160   -1.6020    5.0300 c3        1 VG4      0.120400
     35 C68        -0.3980   -3.0250    5.1000 c3        1 VG4     -0.115400
     36 C71         0.1150   -3.3390    6.4810 c3        1 VG4     -0.099100
     37 N77        -1.4530   -0.7070   -0.9550 n         1 VG4     -0.329200
     38 C78        -0.9470   -0.1160   -2.1500 c2        1 VG4     -0.079400
     39 C79        -1.8640   -0.1630   -3.1520 c2        1 VG4     -0.175200
     40 C80        -3.1200   -0.8270   -2.6680 c3        1 VG4     -0.121200
     41 C81        -2.8010   -1.1600   -1.2100 c         1 VG4      0.707500
     42 O88        -3.5080   -1.7140   -0.3730 o         1 VG4     -0.544500
     43 H2          1.2310   -0.5590   -0.6630 ha        1 VG4      0.159000
     44 H6         -2.5360   -1.1280    1.5010 ha        1 VG4      0.225000
     45 H4          1.2020   -1.1360    3.6560 ha        1 VG4      0.129000
     46 H8          3.0820    0.2120    3.2750 hn        1 VG4      0.476800
     47 H10         5.0040    0.7230    1.8820 hx        1 VG4      0.119700
     48 H111        5.5450   -0.5220    4.6920 hc        1 VG4      0.087200
     49 H112        6.6170    0.6190    3.7810 hc        1 VG4      0.087200
     50 H12         5.2230   -2.1800    1.6790 h1        1 VG4      0.076700
     51 H13         6.5100   -2.0960    3.6550 ho        1 VG4      0.469000
     52 H151        5.8270   -0.5170   -0.0670 hx        1 VG4      0.136200
     53 H152        7.1610    0.1900    1.0140 hx        1 VG4      0.136200
     54 H56         3.6210    0.2480    5.8690 ha        1 VG4      0.127500
     55 H60         5.7860    2.9410    3.2520 ha        1 VG4      0.127500
     56 H16         7.0800   -2.5740   -0.1160 hn        1 VG4      0.485800
     57 H17         8.9400   -2.1860   -1.3710 hx        1 VG4      0.151700
     58 H221        7.1900    0.3770   -1.7930 hc        1 VG4      0.106700
     59 H222        6.7070   -1.2880   -2.3420 hc        1 VG4      0.106700
     60 H223        8.1960   -0.5320   -3.0090 hc        1 VG4      0.106700
     61 H19        10.7480    1.0680   -1.4940 hn        1 VG4      0.479800
     62 H21        12.0270   -0.4540    0.0220 hx        1 VG4      0.122700
     63 H231       12.9750   -0.0070   -2.9250 hc        1 VG4      0.063450
     64 H232       13.0800    1.2020   -1.5630 hc        1 VG4      0.063450
     65 H271       11.8170   -2.2550   -2.5360 hc        1 VG4      0.063450
     66 H272       11.0880   -2.6220   -0.9070 hc        1 VG4      0.063450
     67 H241       14.5510   -0.3060   -0.2700 hc        1 VG4      0.083950
     68 H242       15.2260   -0.0040   -1.9220 hc        1 VG4      0.083950
     69 H251       15.3840   -2.4230   -1.2180 hc        1 VG4      0.087200
     70 H252       14.4280   -2.1900   -2.7330 hc        1 VG4      0.087200
     71 H261       13.2640   -3.7900   -1.2640 hc        1 VG4      0.083950
     72 H262       13.3380   -2.6430    0.1360 hc        1 VG4      0.083950
     73 H57         2.3480    2.1740    6.7920 ha        1 VG4      0.168000
     74 H58         2.7980    4.4880    5.9650 ha        1 VG4      0.177000
     75 H59         4.5180    4.8660    4.1910 ha        1 VG4      0.168000
     76 H671       -1.7880   -1.4590    5.7310 h1        1 VG4      0.071700
     77 H672       -0.1200   -0.8510    5.2690 h1        1 VG4      0.071700
     78 H681        0.4140   -3.1710    4.3400 hc        1 VG4      0.052200
     79 H682       -1.2300   -3.7310    4.8320 hc        1 VG4      0.052200
     80 H711        0.9530   -2.6560    6.7620 hc        1 VG4      0.048033
     81 H712       -0.6990   -3.2250    7.2390 hc        1 VG4      0.048033
     82 H713        0.4840   -4.3930    6.5240 hc        1 VG4      0.048033
     83 H78         0.0530    0.3240   -2.1580 h4        1 VG4      0.160000
     84 H79        -1.7580    0.2200   -4.1670 ha        1 VG4      0.184000
     85 H801       -4.0080   -0.1450   -2.7170 hc        1 VG4      0.125700
     86 H802       -3.3540   -1.7670   -3.2300 hc        1 VG4      0.125700
     87 H82         3.4540   -1.4110    3.2570 hn        1 VG4      0.476800
     88 H162        8.2120   -2.0000    0.9770 hn        1 VG4      0.485800
     89 H192       10.3370   -0.2580   -2.4330 hn        1 VG4      0.479800
@<TRIPOS>BOND
     1    1    2 ar  
     2    1    6 ar  
     3    1   37 1   
     4    2    3 ar  
     5    2   43 1   
     6    3    4 ar  
     7    3    7 1   
     8    4    5 ar  
     9    4   45 1   
    10    5    6 ar  
    11    5   33 1   
    12    6   44 1   
    13    7    8 1   
    14    7    9 2   
    15    8   10 1   
    16    8   46 1   
    17    8   87 1   
    18   10   11 1   
    19   10   12 1   
    20   10   47 1   
    21   11   14 1   
    22   11   48 1   
    23   11   49 1   
    24   12   13 1   
    25   12   15 1   
    26   12   50 1   
    27   13   51 1   
    28   14   28 ar  
    29   14   32 ar  
    30   15   16 1   
    31   15   52 1   
    32   15   53 1   
    33   16   17 1   
    34   16   56 1   
    35   16   88 1   
    36   17   18 1   
    37   17   22 1   
    38   17   57 1   
    39   18   19 1   
    40   18   20 2   
    41   19   21 1   
    42   19   61 1   
    43   19   89 1   
    44   21   23 1   
    45   21   27 1   
    46   21   62 1   
    47   22   58 1   
    48   22   59 1   
    49   22   60 1   
    50   23   24 1   
    51   23   63 1   
    52   23   64 1   
    53   24   25 1   
    54   24   67 1   
    55   24   68 1   
    56   25   26 1   
    57   25   69 1   
    58   25   70 1   
    59   26   27 1   
    60   26   71 1   
    61   26   72 1   
    62   27   65 1   
    63   27   66 1   
    64   28   29 ar  
    65   28   54 1   
    66   29   30 ar  
    67   29   73 1   
    68   30   31 ar  
    69   30   74 1   
    70   31   32 ar  
    71   31   75 1   
    72   32   55 1   
    73   33   34 1   
    74   34   35 1   
    75   34   76 1   
    76   34   77 1   
    77   35   36 1   
    78   35   78 1   
    79   35   79 1   
    80   36   80 1   
    81   36   81 1   
    82   36   82 1   
    83   37   38 1   
    84   37   41 1   
    85   38   39 2   
    86   38   83 1   
    87   39   40 1   
    88   39   84 1   
    89   40   41 1   
    90   40   85 1   
    91   40   86 1   
    92   41   42 2   
@<TRIPOS>SUBSTRUCTURE
     1 VG4         1 TEMP              0 ****  ****    0 ROOT
