@<TRIPOS>MOLECULE
VG4
   89    92     1     0     0
SMALL
bcc


@<TRIPOS>ATOM
      1 C1         -0.7600   -0.8560    0.2460 ca        1 VG4      0.134600
      2 C2          0.6580   -0.7510    0.2730 ca        1 VG4     -0.116000
      3 C3          1.3530   -0.8080    1.4890 ca        1 VG4     -0.158600
      4 C4          0.6750   -0.9860    2.7100 ca        1 VG4     -0.236000
      5 C5         -0.7170   -1.1010    2.6840 ca        1 VG4      0.190100
      6 C6         -1.4370   -1.0350    1.4710 ca        1 VG4     -0.103000
      7 C7          2.7960   -0.6910    1.4030 c         1 VG4      0.606700
      8 N8          3.5400   -0.4920    2.7230 n4        1 VG4     -0.687800
      9 O9          3.5330   -0.7240    0.4170 o         1 VG4     -0.540100
     10 C10         4.9860   -0.1170    2.5750 c3        1 VG4      0.095500
     11 C11         5.5380    0.4080    3.9150 c3        1 VG4     -0.041100
     12 C12         5.8570   -1.2690    2.0030 c3        1 VG4      0.132100
     13 O13         6.8920   -1.6750    2.8750 oh        1 VG4     -0.617800
     14 C14         4.7450    1.5680    4.3990 ca        1 VG4     -0.185300
     15 C15         6.5890   -0.7520    0.7330 c3        1 VG4      0.095800
     16 N16         7.5850   -1.7530    0.2280 n4        1 VG4     -0.760000
     17 C17         8.4130   -1.3090   -0.9490 c3        1 VG4      0.066500
     18 C18         9.4960   -0.3000   -0.5320 c         1 VG4      0.513100
     19 N19        10.5800   -0.0220   -1.5060 n4        1 VG4     -0.671800
     20 O20         9.5100    0.2860    0.5430 o         1 VG4     -0.388100
     21 C21        11.9190   -0.6620   -1.0980 c3        1 VG4      0.135500
     22 C22         7.5720   -0.7240   -2.0780 c3        1 VG4     -0.150100
     23 C23        13.0670    0.0370   -1.8350 c3        1 VG4     -0.103400
     24 C24        14.3840   -0.5620   -1.3670 c3        1 VG4     -0.078900
     25 C25        14.4240   -2.0580   -1.5900 c3        1 VG4     -0.098400
     26 C26        13.2530   -2.7480   -0.9250 c3        1 VG4     -0.078900
     27 C27        11.9280   -2.1610   -1.3900 c3        1 VG4     -0.103400
     28 C56         3.7820    1.3900    5.4020 ca        1 VG4     -0.132000
     29 C57         3.0780    2.4850    5.8990 ca        1 VG4     -0.103500
     30 C58         3.3280    3.7650    5.3980 ca        1 VG4     -0.076000
     31 C59         4.2880    3.9470    4.4000 ca        1 VG4     -0.103500
     32 C60         4.9960    2.8530    3.9030 ca        1 VG4     -0.132000
     33 O66        -1.5200   -1.2390    3.7830 os        1 VG4     -0.290900
     34 C67        -0.9210   -1.4800    5.0610 c3        1 VG4      0.120400
     35 C68        -0.3990   -2.8970    5.1830 c3        1 VG4     -0.115400
     36 C71         0.1130   -3.1590    6.5750 c3        1 VG4     -0.099100
     37 N77        -1.4580   -0.8000   -0.9520 n         1 VG4     -0.329200
     38 C78        -0.9530   -0.2490   -2.1670 c2        1 VG4     -0.079400
     39 C79        -1.8690   -0.3340   -3.1670 c2        1 VG4     -0.175200
     40 C80        -3.1230   -0.9850   -2.6610 c3        1 VG4     -0.121200
     41 C81        -2.8040   -1.2650   -1.1920 c         1 VG4      0.707500
     42 O88        -3.5090   -1.7920   -0.3360 o         1 VG4     -0.544500
     43 H2          1.2260   -0.6330   -0.6650 ha        1 VG4      0.159000
     44 H6         -2.5410   -1.1370    1.5160 ha        1 VG4      0.225000
     45 H4          1.1960   -1.0580    3.6720 ha        1 VG4      0.129000
     46 H8          3.0730    0.2750    3.2470 hn        1 VG4      0.476800
     47 H10         4.9940    0.7470    1.8390 hx        1 VG4      0.119700
     48 H111        5.5390   -0.4080    4.6870 hc        1 VG4      0.087200
     49 H112        6.6080    0.7060    3.7400 hc        1 VG4      0.087200
     50 H12         5.2210   -2.1610    1.7280 h1        1 VG4      0.076700
     51 H13         6.5080   -2.0110    3.6990 ho        1 VG4      0.469000
     52 H151        7.1530    0.1920    0.9880 hx        1 VG4      0.136200
     53 H152        5.8200   -0.5520   -0.0700 hx        1 VG4      0.136200
     54 H56         3.6140    0.3940    5.8400 ha        1 VG4      0.127500
     55 H60         5.7710    3.0080    3.1380 ha        1 VG4      0.127500
     56 H16         7.0780   -2.6060   -0.0550 hn        1 VG4      0.485800
     57 H17         8.9370   -2.2520   -1.3220 hx        1 VG4      0.152700
     58 H221        7.1810    0.2920   -1.8230 hc        1 VG4      0.106700
     59 H222        8.1890   -0.6520   -3.0100 hc        1 VG4      0.106700
     60 H223        6.7020   -1.3910   -2.3200 hc        1 VG4      0.106700
     61 H19        10.3280   -0.3540   -2.4440 hn        1 VG4      0.479800
     62 H21        12.0200   -0.4750    0.0150 hx        1 VG4      0.122700
     63 H231       12.9670   -0.1080   -2.9430 hc        1 VG4      0.063700
     64 H232       13.0690    1.1380   -1.6170 hc        1 VG4      0.063700
     65 H271       11.0870   -2.6710   -0.8530 hc        1 VG4      0.063700
     66 H272       11.8150   -2.3480   -2.4920 hc        1 VG4      0.063700
     67 H241       15.2170   -0.0710   -1.9400 hc        1 VG4      0.083950
     68 H242       14.5430   -0.3290   -0.2810 hc        1 VG4      0.083950
     69 H251       15.3820   -2.4690   -1.1690 hc        1 VG4      0.087200
     70 H252       14.4250   -2.2810   -2.6900 hc        1 VG4      0.087200
     71 H261       13.3360   -2.6560    0.1900 hc        1 VG4      0.083950
     72 H262       13.2660   -3.8420   -1.1770 hc        1 VG4      0.083950
     73 H57         2.3360    2.3450    6.7030 ha        1 VG4      0.168000
     74 H58         2.7790    4.6330    5.8020 ha        1 VG4      0.177000
     75 H59         4.4970    4.9590    4.0170 ha        1 VG4      0.168000
     76 H671       -0.1290   -0.7170    5.2730 h1        1 VG4      0.071700
     77 H672       -1.7950   -1.3130    5.7560 h1        1 VG4      0.071700
     78 H681       -1.2280   -3.6150    4.9400 hc        1 VG4      0.052200
     79 H682        0.4140   -3.0680    4.4300 hc        1 VG4      0.052200
     80 H711        0.4860   -4.2090    6.6570 hc        1 VG4      0.048033
     81 H712       -0.7020   -3.0200    7.3280 hc        1 VG4      0.048033
     82 H713        0.9490   -2.4630    6.8320 hc        1 VG4      0.048033
     83 H78         0.0460    0.1930   -2.1910 h4        1 VG4      0.160000
     84 H79        -1.7640    0.0130   -4.1950 ha        1 VG4      0.184000
     85 H801       -4.0130   -0.3080   -2.7350 hc        1 VG4      0.125700
     86 H802       -3.3540   -1.9440   -3.1900 hc        1 VG4      0.125700
     87 H82         3.4500   -1.3460    3.2810 hn        1 VG4      0.476800
     88 H162        8.2090   -1.9950    1.0200 hn        1 VG4      0.485800
     89 H192       10.7370    1.0000   -1.5460 hn        1 VG4      0.479800
@<TRIPOS>BOND
     1    1    2 ar  
     2    1    6 ar  
     3    1   37 1   
     4    2    3 ar  
     5    2   43 1   
     6    3    4 ar  
     7    3    7 1   
     8    4    5 ar  
     9    4   45 1   
    10    5    6 ar  
    11    5   33 1   
    12    6   44 1   
    13    7    8 1   
    14    7    9 2   
    15    8   10 1   
    16    8   46 1   
    17    8   87 1   
    18   10   11 1   
    19   10   12 1   
    20   10   47 1   
    21   11   14 1   
    22   11   48 1   
    23   11   49 1   
    24   12   13 1   
    25   12   15 1   
    26   12   50 1   
    27   13   51 1   
    28   14   28 ar  
    29   14   32 ar  
    30   15   16 1   
    31   15   52 1   
    32   15   53 1   
    33   16   17 1   
    34   16   56 1   
    35   16   88 1   
    36   17   18 1   
    37   17   22 1   
    38   17   57 1   
    39   18   19 1   
    40   18   20 2   
    41   19   21 1   
    42   19   61 1   
    43   19   89 1   
    44   21   23 1   
    45   21   27 1   
    46   21   62 1   
    47   22   58 1   
    48   22   59 1   
    49   22   60 1   
    50   23   24 1   
    51   23   63 1   
    52   23   64 1   
    53   24   25 1   
    54   24   67 1   
    55   24   68 1   
    56   25   26 1   
    57   25   69 1   
    58   25   70 1   
    59   26   27 1   
    60   26   71 1   
    61   26   72 1   
    62   27   65 1   
    63   27   66 1   
    64   28   29 ar  
    65   28   54 1   
    66   29   30 ar  
    67   29   73 1   
    68   30   31 ar  
    69   30   74 1   
    70   31   32 ar  
    71   31   75 1   
    72   32   55 1   
    73   33   34 1   
    74   34   35 1   
    75   34   76 1   
    76   34   77 1   
    77   35   36 1   
    78   35   78 1   
    79   35   79 1   
    80   36   80 1   
    81   36   81 1   
    82   36   82 1   
    83   37   38 1   
    84   37   41 1   
    85   38   39 2   
    86   38   83 1   
    87   39   40 1   
    88   39   84 1   
    89   40   41 1   
    90   40   85 1   
    91   40   86 1   
    92   41   42 2   
@<TRIPOS>SUBSTRUCTURE
     1 VG4         1 TEMP              0 ****  ****    0 ROOT
