@<TRIPOS>MOLECULE
VG4
   86    89     1     0     0
SMALL
bcc


@<TRIPOS>ATOM
      1 C1         31.3960   -0.5140   37.3740 ca        1 VG4      0.098600
      2 C2         31.0570    0.4570   36.4010 ca        1 VG4     -0.156000
      3 C3         30.4980    0.0640   35.1880 ca        1 VG4     -0.083600
      4 C4         30.2610   -1.2830   34.9000 ca        1 VG4     -0.206000
      5 C5         30.5870   -2.2400   35.8650 ca        1 VG4      0.147100
      6 C6         31.1460   -1.8730   37.1020 ca        1 VG4     -0.162000
      7 C7         30.1770    1.1300   34.1900 c         1 VG4      0.672700
      8 N8         28.9680    1.0280   33.5320 n         1 VG4     -0.556900
      9 O9         30.9470    2.0930   33.9950 o         1 VG4     -0.610100
     10 C10        28.6070    1.8910   32.4320 c3        1 VG4      0.076700
     11 C11        27.9080    1.1240   31.2940 c3        1 VG4     -0.057100
     12 C12        27.6690    3.0570   32.8640 c3        1 VG4      0.121100
     13 O13        27.3260    3.8270   31.7280 oh        1 VG4     -0.610800
     14 C14        28.7620    0.0650   30.6960 ca        1 VG4     -0.080300
     15 C15        28.3500    3.9140   33.9480 c3        1 VG4      0.118800
     16 N16        27.6710    5.1680   34.2240 n3        1 VG4     -0.796200
     17 C17        28.5410    6.3150   34.4050 c3        1 VG4      0.116500
     18 C18        29.2260    6.8070   33.1020 c         1 VG4      0.625100
     19 N19        29.8410    8.0360   33.1440 n         1 VG4     -0.562900
     20 O20        29.1920    6.1320   32.0500 o         1 VG4     -0.641100
     21 C21        30.5510    8.6060   32.0200 c3        1 VG4      0.096700
     22 C22        29.6180    6.0980   35.4650 c3        1 VG4     -0.097100
     23 C23        32.0680    8.6950   32.2680 c3        1 VG4     -0.090900
     24 C24        32.7730    9.2300   31.0390 c3        1 VG4     -0.075400
     25 C25        32.2330   10.5860   30.6360 c3        1 VG4     -0.079400
     26 C26        30.7330   10.5360   30.4300 c3        1 VG4     -0.075400
     27 C27        30.0220   10.0060   31.6580 c3        1 VG4     -0.090900
     28 C56        28.3810   -1.2800   30.7720 ca        1 VG4     -0.129500
     29 C57        29.1690   -2.2700   30.1860 ca        1 VG4     -0.128500
     30 C58        30.3460   -1.9260   29.5220 ca        1 VG4     -0.131000
     31 C59        30.7310   -0.5880   29.4410 ca        1 VG4     -0.128500
     32 C60        29.9430    0.4040   30.0230 ca        1 VG4     -0.129500
     33 O66        30.4290   -3.6030   35.7100 os        1 VG4     -0.322900
     34 C67        29.8050   -4.0670   34.5120 c3        1 VG4      0.125400
     35 C68        28.3020   -3.8650   34.5470 c3        1 VG4     -0.116400
     36 C71        27.6730   -4.2890   33.2460 c3        1 VG4     -0.097100
     37 N77        31.9740   -0.1250   38.5920 n         1 VG4     -0.316200
     38 C78        32.6950    1.0840   38.7760 c2        1 VG4     -0.023400
     39 C79        33.1210    1.2180   40.0620 c2        1 VG4     -0.257200
     40 C80        32.6800    0.0290   40.8640 c3        1 VG4     -0.119200
     41 C81        31.9340   -0.8280   39.8300 c         1 VG4      0.699500
     42 O88        31.3960   -1.9210   40.0210 o         1 VG4     -0.586500
     43 H2         31.2310    1.5300   36.5770 ha        1 VG4      0.153000
     44 H6         31.3710   -2.6600   37.8410 ha        1 VG4      0.183000
     45 H4         29.8440   -1.5800   33.9280 ha        1 VG4      0.148000
     46 H8         28.4000    0.2300   33.6870 hn        1 VG4      0.313500
     47 H10        29.5570    2.3550   32.0230 h1        1 VG4      0.084700
     48 H111       26.9460    0.6860   31.6710 hc        1 VG4      0.069700
     49 H112       27.6390    1.8800   30.5030 hc        1 VG4      0.069700
     50 H12        26.6870    2.6520   33.2330 h1        1 VG4      0.074700
     51 H13        28.1040    4.3450   31.4710 ho        1 VG4      0.431000
     52 H151       28.3600    3.3330   34.9120 h1        1 VG4      0.061700
     53 H152       29.4240    4.0730   33.6350 h1        1 VG4      0.061700
     54 H56        27.4510   -1.5580   31.2900 ha        1 VG4      0.132500
     55 H60        30.2480    1.4590   29.9540 ha        1 VG4      0.132500
     56 H16        27.0080    5.3700   33.4930 hn        1 VG4      0.380800
     57 H17        27.8570    7.1500   34.7560 h1        1 VG4      0.071700
     58 H221       30.4230    5.4230   35.0870 hc        1 VG4      0.049367
     59 H222       30.0720    7.0770   35.7500 hc        1 VG4      0.049367
     60 H223       29.1720    5.6390   36.3810 hc        1 VG4      0.049367
     61 H19        29.8950    8.5230   34.0050 hn        1 VG4      0.306500
     62 H21        30.3810    7.9250   31.1300 h1        1 VG4      0.091700
     63 H231       32.2720    9.3670   33.1420 hc        1 VG4      0.044200
     64 H232       32.4720    7.6790   32.5160 hc        1 VG4      0.044200
     65 H271       28.9210    9.9560   31.4570 hc        1 VG4      0.044200
     66 H272       30.1820   10.7070   32.5180 hc        1 VG4      0.044200
     67 H241       33.8710    9.3100   31.2490 hc        1 VG4      0.044200
     68 H242       32.6440    8.5080   30.1900 hc        1 VG4      0.044200
     69 H251       32.4770   11.3380   31.4320 hc        1 VG4      0.040700
     70 H252       32.7310   10.9230   29.6900 hc        1 VG4      0.040700
     71 H261       30.3510   11.5630   30.1970 hc        1 VG4      0.044200
     72 H262       30.4980    9.8810   29.5500 hc        1 VG4      0.044200
     73 H57        28.8590   -3.3230   30.2460 ha        1 VG4      0.131500
     74 H58        30.9670   -2.7070   29.0600 ha        1 VG4      0.132000
     75 H59        31.6580   -0.3120   28.9170 ha        1 VG4      0.131500
     76 H671       30.2670   -3.5880   33.6110 h1        1 VG4      0.059700
     77 H672       30.0590   -5.1640   34.5190 h1        1 VG4      0.059700
     78 H681       27.8710   -4.4560   35.3970 hc        1 VG4      0.054200
     79 H682       28.0740   -2.7850   34.7520 hc        1 VG4      0.054200
     80 H711       26.5620   -4.1840   33.3030 hc        1 VG4      0.037700
     81 H712       28.0440   -3.6560   32.4010 hc        1 VG4      0.037700
     82 H713       27.9140   -5.3560   33.0190 hc        1 VG4      0.037700
     83 H78        32.8540    1.7520   37.9230 h4        1 VG4      0.177000
     84 H79        33.6970    2.0360   40.4860 ha        1 VG4      0.163000
     85 H801       33.5430   -0.5470   41.2810 hc        1 VG4      0.094700
     86 H802       31.9860    0.3060   41.6950 hc        1 VG4      0.094700
@<TRIPOS>BOND
     1    1    2 ar  
     2    1    6 ar  
     3    1   37 1   
     4    2    3 ar  
     5    2   43 1   
     6    3    4 ar  
     7    3    7 1   
     8    4    5 ar  
     9    4   45 1   
    10    5    6 ar  
    11    5   33 1   
    12    6   44 1   
    13    7    8 1   
    14    7    9 2   
    15    8   10 1   
    16    8   46 1   
    17   10   11 1   
    18   10   12 1   
    19   10   47 1   
    20   11   14 1   
    21   11   48 1   
    22   11   49 1   
    23   12   13 1   
    24   12   15 1   
    25   12   50 1   
    26   13   51 1   
    27   14   28 ar  
    28   14   32 ar  
    29   15   16 1   
    30   15   52 1   
    31   15   53 1   
    32   16   17 1   
    33   16   56 1   
    34   17   18 1   
    35   17   22 1   
    36   17   57 1   
    37   18   19 1   
    38   18   20 2   
    39   19   21 1   
    40   19   61 1   
    41   21   23 1   
    42   21   27 1   
    43   21   62 1   
    44   22   58 1   
    45   22   59 1   
    46   22   60 1   
    47   23   24 1   
    48   23   63 1   
    49   23   64 1   
    50   24   25 1   
    51   24   67 1   
    52   24   68 1   
    53   25   26 1   
    54   25   69 1   
    55   25   70 1   
    56   26   27 1   
    57   26   71 1   
    58   26   72 1   
    59   27   65 1   
    60   27   66 1   
    61   28   29 ar  
    62   28   54 1   
    63   29   30 ar  
    64   29   73 1   
    65   30   31 ar  
    66   30   74 1   
    67   31   32 ar  
    68   31   75 1   
    69   32   55 1   
    70   33   34 1   
    71   34   35 1   
    72   34   76 1   
    73   34   77 1   
    74   35   36 1   
    75   35   78 1   
    76   35   79 1   
    77   36   80 1   
    78   36   81 1   
    79   36   82 1   
    80   37   38 1   
    81   37   41 1   
    82   38   39 2   
    83   38   83 1   
    84   39   40 1   
    85   39   84 1   
    86   40   41 1   
    87   40   85 1   
    88   40   86 1   
    89   41   42 2   
@<TRIPOS>SUBSTRUCTURE
     1 VG4         1 TEMP              0 ****  ****    0 ROOT
