@<TRIPOS>MOLECULE
VG4
   89    92     1     0     0
SMALL
bcc


@<TRIPOS>ATOM
      1 C1         -0.7600   -0.8790    0.2320 ca        1 VG4      0.134600
      2 C2          0.6580   -0.7680    0.2630 ca        1 VG4     -0.116000
      3 C3          1.3490   -0.8220    1.4820 ca        1 VG4     -0.158600
      4 C4          0.6680   -1.0040    2.7010 ca        1 VG4     -0.236000
      5 C5         -0.7230   -1.1250    2.6700 ca        1 VG4      0.190100
      6 C6         -1.4390   -1.0620    1.4540 ca        1 VG4     -0.103000
      7 C7          2.7920   -0.6990    1.4010 c         1 VG4      0.606700
      8 N8          3.5310   -0.4990    2.7240 ny        1 VG4     -0.687800
      9 O9          3.5320   -0.7250    0.4170 o         1 VG4     -0.540100
     10 C10         4.9750   -0.1170    2.5810 c3        1 VG4      0.095500
     11 C11         5.5210    0.4070    3.9240 c3        1 VG4     -0.041100
     12 C12         5.8540   -1.2640    2.0090 c3        1 VG4      0.132100
     13 O13         6.8880   -1.6670    2.8830 oh        1 VG4     -0.617800
     14 C14         4.7220    1.5620    4.4090 ca        1 VG4     -0.185300
     15 C15         6.5880   -0.7400    0.7430 c3        1 VG4      0.095800
     16 N16         7.5890   -1.7350    0.2380 ny        1 VG4     -0.760000
     17 C17         8.4190   -1.2840   -0.9350 c3        1 VG4      0.066500
     18 C18         9.4970   -0.2720   -0.5120 c         1 VG4      0.513100
     19 N19        10.5820    0.0140   -1.4810 ny        1 VG4     -0.671800
     20 O20         9.5050    0.3110    0.5650 o         1 VG4     -0.388100
     21 C21        11.9240   -0.6210   -1.0710 c3        1 VG4      0.135500
     22 C22         7.5790   -0.7000   -2.0650 c3        1 VG4     -0.150100
     23 C23        13.0700    0.0860   -1.8020 c3        1 VG4     -0.103400
     24 C24        14.3880   -0.5090   -1.3320 c3        1 VG4     -0.078900
     25 C25        14.4360   -2.0030   -1.5590 c3        1 VG4     -0.098400
     26 C26        13.2660   -2.7010   -0.9010 c3        1 VG4     -0.078900
     27 C27        11.9400   -2.1180   -1.3680 c3        1 VG4     -0.103400
     28 C56         3.7560    1.3760    5.4090 ca        1 VG4     -0.132000
     29 C57         3.0460    2.4660    5.9070 ca        1 VG4     -0.103500
     30 C58         3.2920    3.7490    5.4100 ca        1 VG4     -0.076000
     31 C59         4.2530    3.9380    4.4160 ca        1 VG4     -0.103500
     32 C60         4.9680    2.8490    3.9180 ca        1 VG4     -0.132000
     33 O66        -1.5300   -1.2680    3.7660 os        1 VG4     -0.290900
     34 C67        -0.9330   -1.5060    5.0460 c3        1 VG4      0.120400
     35 C68        -0.4040   -2.9200    5.1700 c3        1 VG4     -0.115400
     36 C71         0.1040   -3.1790    6.5640 c3        1 VG4     -0.099100
     37 N77        -1.4530   -0.8250   -0.9690 n         1 VG4     -0.329200
     38 C78        -0.9470   -0.2710   -2.1810 c2        1 VG4     -0.079400
     39 C79        -1.8590   -0.3590   -3.1840 c2        1 VG4     -0.175200
     40 C80        -3.1120   -1.0160   -2.6830 c3        1 VG4     -0.121200
     41 C81        -2.7970   -1.2970   -1.2130 c         1 VG4      0.707500
     42 O88        -3.5020   -1.8270   -0.3600 o         1 VG4     -0.544500
     43 H2          1.2280   -0.6460   -0.6720 ha        1 VG4      0.159000
     44 H6         -2.5430   -1.1690    1.4960 ha        1 VG4      0.225000
     45 H4          1.1860   -1.0740    3.6650 ha        1 VG4      0.129000
     46 H8          3.4430   -1.3550    3.2800 hn        1 VG4      0.476800
     47 H10         4.9820    0.7490    1.8470 hx        1 VG4      0.119700
     48 H111        5.5240   -0.4120    4.6940 hc        1 VG4      0.087200
     49 H112        6.5900    0.7100    3.7530 hc        1 VG4      0.087200
     50 H12         5.2220   -2.1580    1.7290 h1        1 VG4      0.076700
     51 H13         6.5030   -2.0080    3.7050 ho        1 VG4      0.469000
     52 H151        7.1460    0.2060    1.0020 hx        1 VG4      0.136200
     53 H152        5.8200   -0.5410   -0.0620 hx        1 VG4      0.136200
     54 H56         3.5920    0.3780    5.8430 ha        1 VG4      0.127500
     55 H60         5.7440    3.0100    3.1550 ha        1 VG4      0.127500
     56 H16         7.0870   -2.5890   -0.0490 hn        1 VG4      0.485800
     57 H17         8.9490   -2.2240   -1.3090 hx        1 VG4      0.152700
     58 H221        8.1990   -0.6220   -2.9950 hc        1 VG4      0.106700
     59 H222        7.1830    0.3140   -1.8080 hc        1 VG4      0.106700
     60 H223        6.7130   -1.3690   -2.3120 hc        1 VG4      0.106700
     61 H19        10.3350   -0.3160   -2.4210 hn        1 VG4      0.479800
     62 H21        12.0190   -0.4370    0.0430 hx        1 VG4      0.122700
     63 H231       13.0660    1.1870   -1.5800 hc        1 VG4      0.063700
     64 H232       12.9740   -0.0560   -2.9110 hc        1 VG4      0.063700
     65 H271       11.8310   -2.3030   -2.4710 hc        1 VG4      0.063700
     66 H272       11.1000   -2.6340   -0.8350 hc        1 VG4      0.063700
     67 H241       15.2210   -0.0120   -1.9010 hc        1 VG4      0.083950
     68 H242       14.5430   -0.2780   -0.2450 hc        1 VG4      0.083950
     69 H251       15.3950   -2.4120   -1.1370 hc        1 VG4      0.087200
     70 H252       14.4420   -2.2230   -2.6600 hc        1 VG4      0.087200
     71 H261       13.3450   -2.6120    0.2150 hc        1 VG4      0.083950
     72 H262       13.2850   -3.7940   -1.1560 hc        1 VG4      0.083950
     73 H57         2.3020    2.3210    6.7080 ha        1 VG4      0.168500
     74 H58         2.7380    4.6130    5.8150 ha        1 VG4      0.177000
     75 H59         4.4590    4.9520    4.0360 ha        1 VG4      0.168500
     76 H671       -1.8100   -1.3440    5.7380 h1        1 VG4      0.071700
     77 H672       -0.1450   -0.7390    5.2610 h1        1 VG4      0.071700
     78 H681       -1.2290   -3.6430    4.9250 hc        1 VG4      0.052200
     79 H682        0.4120   -3.0880    4.4200 hc        1 VG4      0.052200
     80 H711        0.9350   -2.4800    6.8240 hc        1 VG4      0.048033
     81 H712       -0.7140   -3.0450    7.3140 hc        1 VG4      0.048033
     82 H713        0.4820   -4.2280    6.6470 hc        1 VG4      0.048033
     83 H78         0.0500    0.1760   -2.2010 h4        1 VG4      0.160000
     84 H79        -1.7520   -0.0110   -4.2120 ha        1 VG4      0.184000
     85 H801       -4.0050   -0.3440   -2.7590 hc        1 VG4      0.125700
     86 H802       -3.3370   -1.9770   -3.2130 hc        1 VG4      0.125700
     87 H82         3.0590    0.2640    3.2480 hn        1 VG4      0.476800
     88 H162        8.2120   -1.9760    1.0310 hn        1 VG4      0.485800
     89 H192       10.7350    1.0380   -1.5180 hn        1 VG4      0.479800
@<TRIPOS>BOND
     1    1    2 ar  
     2    1    6 ar  
     3    1   37 1   
     4    2    3 ar  
     5    2   43 1   
     6    3    4 ar  
     7    3    7 1   
     8    4    5 ar  
     9    4   45 1   
    10    5    6 ar  
    11    5   33 1   
    12    6   44 1   
    13    7    8 1   
    14    7    9 2   
    15    8   10 1   
    16    8   46 1   
    17    8   87 1   
    18   10   11 1   
    19   10   12 1   
    20   10   47 1   
    21   11   14 1   
    22   11   48 1   
    23   11   49 1   
    24   12   13 1   
    25   12   15 1   
    26   12   50 1   
    27   13   51 1   
    28   14   28 ar  
    29   14   32 ar  
    30   15   16 1   
    31   15   52 1   
    32   15   53 1   
    33   16   17 1   
    34   16   56 1   
    35   16   88 1   
    36   17   18 1   
    37   17   22 1   
    38   17   57 1   
    39   18   19 1   
    40   18   20 2   
    41   19   21 1   
    42   19   61 1   
    43   19   89 1   
    44   21   23 1   
    45   21   27 1   
    46   21   62 1   
    47   22   58 1   
    48   22   59 1   
    49   22   60 1   
    50   23   24 1   
    51   23   63 1   
    52   23   64 1   
    53   24   25 1   
    54   24   67 1   
    55   24   68 1   
    56   25   26 1   
    57   25   69 1   
    58   25   70 1   
    59   26   27 1   
    60   26   71 1   
    61   26   72 1   
    62   27   65 1   
    63   27   66 1   
    64   28   29 ar  
    65   28   54 1   
    66   29   30 ar  
    67   29   73 1   
    68   30   31 ar  
    69   30   74 1   
    70   31   32 ar  
    71   31   75 1   
    72   32   55 1   
    73   33   34 1   
    74   34   35 1   
    75   34   76 1   
    76   34   77 1   
    77   35   36 1   
    78   35   78 1   
    79   35   79 1   
    80   36   80 1   
    81   36   81 1   
    82   36   82 1   
    83   37   38 1   
    84   37   41 1   
    85   38   39 2   
    86   38   83 1   
    87   39   40 1   
    88   39   84 1   
    89   40   41 1   
    90   40   85 1   
    91   40   86 1   
    92   41   42 2   
@<TRIPOS>SUBSTRUCTURE
     1 VG4         1 TEMP              0 ****  ****    0 ROOT
