@<TRIPOS>MOLECULE
VG5
   89    92     1     0     0
SMALL
bcc


@<TRIPOS>ATOM
      1 C1          0.3990   -1.3290    0.3590 ca        1 VG5      0.153600
      2 C2          1.7000   -1.4000    0.9380 ca        1 VG5     -0.148000
      3 C3          2.1540   -0.3680    1.7650 ca        1 VG5     -0.131600
      4 C4          1.3590    0.7480    2.0650 ca        1 VG5     -0.270000
      5 C5          0.0620    0.8400    1.5060 ca        1 VG5      0.260600
      6 C6         -0.3950   -0.2080    0.6530 ca        1 VG5     -0.180000
      7 C7          3.4990   -0.5330    2.2900 c         1 VG5      0.595700
      8 N8          4.1260    0.7160    2.9290 ny        1 VG5     -0.688800
      9 O9          4.2360   -1.5150    2.2950 o         1 VG5     -0.510100
     10 C10         5.5910    0.6110    3.2200 c3        1 VG5      0.099500
     11 C11         6.1990    2.0010    3.4840 c3        1 VG5     -0.041100
     12 C12         5.9020   -0.3640    4.3880 c3        1 VG5      0.113100
     13 O13         5.8010    0.2520    5.6580 oh        1 VG5     -0.616800
     14 C14         5.7370    3.0290    2.5150 ca        1 VG5     -0.195300
     15 C15         7.3820   -0.8140    4.2680 c3        1 VG5      0.110800
     16 N16         7.8070   -1.6290    5.4530 ny        1 VG5     -0.769000
     17 C17         9.3030   -1.8270    5.5190 c3        1 VG5      0.069500
     18 C18         9.6280   -3.1600    6.2240 c         1 VG5      0.509100
     19 N19        11.0440   -3.4720    6.5210 ny        1 VG5     -0.668800
     20 O20         8.7700   -3.9780    6.5350 o         1 VG5     -0.387100
     21 C21        11.5780   -4.6470    5.6820 c3        1 VG5      0.135500
     22 C22         9.9930   -0.6620    6.2190 c3        1 VG5     -0.160100
     23 C23        12.8320   -5.2260    6.3470 c3        1 VG5     -0.103400
     24 C24        13.3000   -6.4260    5.5390 c3        1 VG5     -0.078900
     25 C25        13.5670   -6.0560    4.0970 c3        1 VG5     -0.098400
     26 C26        12.3550   -5.4160    3.4560 c3        1 VG5     -0.078900
     27 C27        11.8820   -4.2080    4.2520 c3        1 VG5     -0.103400
     28 C56         5.2080    4.2380    2.9820 ca        1 VG5     -0.130000
     29 C57         4.8420    5.2370    2.0800 ca        1 VG5     -0.106000
     30 C58         5.0000    5.0360    0.7080 ca        1 VG5     -0.078000
     31 C59         5.5280    3.8300    0.2370 ca        1 VG5     -0.106000
     32 C60         5.8980    2.8330    1.1350 ca        1 VG5     -0.130000
     33 N1         -0.7640    1.9070    1.7450 nu        1 VG5     -0.761600
     34 C67        -0.4320    2.9840    2.6390 c3        1 VG5      0.220800
     35 C68        -1.5470    4.0080    2.7790 c3        1 VG5     -0.118100
     36 N77        -0.0490   -2.3500   -0.4680 n         1 VG5     -0.399000
     37 C78         0.7810   -3.5100   -0.7750 c3        1 VG5      0.082000
     38 C79        -0.0310   -4.4240   -1.7140 c3        1 VG5     -0.092400
     39 C80        -1.3690   -3.7280   -1.9250 c3        1 VG5     -0.151400
     40 C81        -1.3120   -2.4430   -1.1200 c         1 VG5      0.716500
     41 O88        -2.2030   -1.5960   -1.0290 o         1 VG5     -0.571500
     42 H2          2.3590   -2.2600    0.7390 ha        1 VG5      0.159000
     43 H6         -1.4120   -0.1220    0.2190 ha        1 VG5      0.208000
     44 H4          1.7000    1.5450    2.7370 ha        1 VG5      0.117000
     45 H1         -1.6760    1.9000    1.3420 hn        1 VG5      0.465800
     46 H8          3.6100    0.9450    3.7830 hn        1 VG5      0.474800
     47 H10         6.0550    0.1780    2.2790 hx        1 VG5      0.121700
     48 H111        5.9650    2.3200    4.5370 hc        1 VG5      0.078700
     49 H112        7.3150    1.8980    3.4020 hc        1 VG5      0.078700
     50 H12         5.2290   -1.2700    4.3340 h1        1 VG5      0.100700
     51 H13         4.8680    0.4140    5.8580 ho        1 VG5      0.460000
     52 H151        8.0460    0.0970    4.2180 hx        1 VG5      0.129200
     53 H152        7.5040   -1.4350    3.3350 hx        1 VG5      0.129200
     54 H56         5.1010    4.4180    4.0630 ha        1 VG5      0.132000
     55 H60         6.3490    1.9030    0.7570 ha        1 VG5      0.132000
     56 H16         7.4920   -1.1350    6.3090 hn        1 VG5      0.485800
     57 H17         9.6800   -1.9160    4.4480 hx        1 VG5      0.153700
     58 H221        9.5880    0.3250    5.8690 hc        1 VG5      0.108700
     59 H222       11.0850   -0.6560    5.9670 hc        1 VG5      0.108700
     60 H223        9.8680   -0.7090    7.3300 hc        1 VG5      0.108700
     61 H19        11.1180   -3.7570    7.5150 hn        1 VG5      0.480800
     62 H21        10.7560   -5.4260    5.6900 hx        1 VG5      0.125700
     63 H231       13.6490   -4.4580    6.3780 hc        1 VG5      0.063950
     64 H232       12.6100   -5.5560    7.3970 hc        1 VG5      0.063950
     65 H271       10.9660   -3.7780    3.7700 hc        1 VG5      0.063950
     66 H272       12.6900   -3.4280    4.2420 hc        1 VG5      0.063950
     67 H241       12.5320   -7.2430    5.5930 hc        1 VG5      0.083450
     68 H242       14.2420   -6.8210    6.0100 hc        1 VG5      0.083450
     69 H251       14.4440   -5.3590    4.0370 hc        1 VG5      0.086200
     70 H252       13.8420   -6.9830    3.5220 hc        1 VG5      0.086200
     71 H261       12.6100   -5.0800    2.4150 hc        1 VG5      0.083450
     72 H262       11.5230   -6.1640    3.3750 hc        1 VG5      0.083450
     73 H57         4.4400    6.1940    2.4540 ha        1 VG5      0.169500
     74 H58         4.7210    5.8310   -0.0040 ha        1 VG5      0.176000
     75 H59         5.6650    3.6760   -0.8460 ha        1 VG5      0.169500
     76 H671        0.4970    3.5000    2.2570 h1        1 VG5      0.029200
     77 H672       -0.1920    2.5600    3.6590 h1        1 VG5      0.029200
     78 H681       -1.2080    4.8080    3.4820 hc        1 VG5      0.065033
     79 H682       -1.7900    4.4810    1.7960 hc        1 VG5      0.065033
     80 H683       -2.4760    3.5450    3.1920 hc        1 VG5      0.065033
     81 H78         1.0440   -4.0520    0.1750 h1        1 VG5      0.050700
     82 H79         0.5090   -4.5620   -2.6820 hc        1 VG5      0.077200
     83 H801       -1.5500   -3.4760   -3.0020 hc        1 VG5      0.109700
     84 H802       -2.2300   -4.3460   -1.5630 hc        1 VG5      0.109700
     85 H7A         1.7320   -3.1760   -1.2740 h1        1 VG5      0.050700
     86 H7B        -0.1690   -5.4310   -1.2490 hc        1 VG5      0.077200
     87 H82         3.9960    1.5040    2.2640 hn        1 VG5      0.474800
     88 H162        7.3320   -2.5460    5.4250 hn        1 VG5      0.485800
     89 H192       11.6460   -2.6550    6.3680 hn        1 VG5      0.480800
@<TRIPOS>BOND
     1    1    2 ar  
     2    1    6 ar  
     3    1   36 1   
     4    2    3 ar  
     5    2   42 1   
     6    3    4 ar  
     7    3    7 1   
     8    4    5 ar  
     9    4   44 1   
    10    5    6 ar  
    11    5   33 1   
    12    6   43 1   
    13    7    8 1   
    14    7    9 2   
    15    8   10 1   
    16    8   46 1   
    17    8   87 1   
    18   10   11 1   
    19   10   12 1   
    20   10   47 1   
    21   11   14 1   
    22   11   48 1   
    23   11   49 1   
    24   12   13 1   
    25   12   15 1   
    26   12   50 1   
    27   13   51 1   
    28   14   28 ar  
    29   14   32 ar  
    30   15   16 1   
    31   15   52 1   
    32   15   53 1   
    33   16   17 1   
    34   16   56 1   
    35   16   88 1   
    36   17   18 1   
    37   17   22 1   
    38   17   57 1   
    39   18   19 1   
    40   18   20 2   
    41   19   21 1   
    42   19   61 1   
    43   19   89 1   
    44   21   23 1   
    45   21   27 1   
    46   21   62 1   
    47   22   58 1   
    48   22   59 1   
    49   22   60 1   
    50   23   24 1   
    51   23   63 1   
    52   23   64 1   
    53   24   25 1   
    54   24   67 1   
    55   24   68 1   
    56   25   26 1   
    57   25   69 1   
    58   25   70 1   
    59   26   27 1   
    60   26   71 1   
    61   26   72 1   
    62   27   65 1   
    63   27   66 1   
    64   28   29 ar  
    65   28   54 1   
    66   29   30 ar  
    67   29   73 1   
    68   30   31 ar  
    69   30   74 1   
    70   31   32 ar  
    71   31   75 1   
    72   32   55 1   
    73   33   34 1   
    74   33   45 1   
    75   34   35 1   
    76   34   76 1   
    77   34   77 1   
    78   35   78 1   
    79   35   79 1   
    80   35   80 1   
    81   36   37 1   
    82   36   40 1   
    83   37   38 1   
    84   37   81 1   
    85   37   85 1   
    86   38   39 1   
    87   38   82 1   
    88   38   86 1   
    89   39   40 1   
    90   39   83 1   
    91   39   84 1   
    92   40   41 2   
@<TRIPOS>SUBSTRUCTURE
     1 VG5         1 TEMP              0 ****  ****    0 ROOT
