@<TRIPOS>MOLECULE
VG5
   90    93     1     0     0
SMALL
bcc


@<TRIPOS>ATOM
      1 C1          0.2810   -0.0250    0.7830 ca        1 VG5      0.174600
      2 C2          1.5710   -0.1110    1.3830 ca        1 VG5     -0.167000
      3 C3          1.7080   -0.1810    2.7720 ca        1 VG5     -0.129600
      4 C4          0.5930   -0.1780    3.6230 ca        1 VG5     -0.108000
      5 C5         -0.6840   -0.0930    3.0420 ca        1 VG5      0.018600
      6 C6         -0.8500   -0.0200    1.6580 ca        1 VG5     -0.109000
      7 C7          3.0160   -0.3200    3.4310 c         1 VG5      0.593700
      8 N8          4.1950    0.4280    2.8450 n4        1 VG5     -0.680800
      9 O9          3.2650   -0.9330    4.4650 o         1 VG5     -0.468100
     10 C10         5.4750   -0.3640    2.7190 c3        1 VG5      0.115500
     11 C11         6.5200    0.4830    1.9660 c3        1 VG5     -0.049100
     12 C12         6.0060   -0.8720    4.0950 c3        1 VG5      0.115100
     13 O13         5.8350    0.1080    5.1010 oh        1 VG5     -0.615800
     14 C14         5.9770    1.1390    0.7480 ca        1 VG5     -0.204300
     15 C15         7.5300   -1.1630    4.0390 c3        1 VG5      0.102800
     16 N16         8.0580   -1.6080    5.3690 n4        1 VG5     -0.772000
     17 C17         9.5720   -1.6670    5.4130 c3        1 VG5      0.069500
     18 C18        10.0270   -2.7490    6.4190 c         1 VG5      0.510100
     19 N19        11.4630   -2.8530    6.7500 n4        1 VG5     -0.668800
     20 O20         9.2410   -3.5340    6.9380 o         1 VG5     -0.392100
     21 C21        12.1010   -4.1600    6.2300 c3        1 VG5      0.138500
     22 C22        10.1750   -0.3120    5.7620 c3        1 VG5     -0.163100
     23 C23        13.3950   -4.4380    7.0040 c3        1 VG5     -0.104400
     24 C24        13.9700   -5.7620    6.5230 c3        1 VG5     -0.078900
     25 C25        14.2140   -5.7540    5.0310 c3        1 VG5     -0.099400
     26 C26        12.9570   -5.4040    4.2650 c3        1 VG5     -0.078900
     27 C27        12.3770   -4.0760    4.7320 c3        1 VG5     -0.104400
     28 C56         5.4990    2.4570    0.8180 ca        1 VG5     -0.133500
     29 C57         5.1110    3.1240   -0.3410 ca        1 VG5     -0.106500
     30 C58         5.1980    2.4820   -1.5810 ca        1 VG5     -0.077000
     31 C59         5.6630    1.1690   -1.6540 ca        1 VG5     -0.106500
     32 C60         6.0530    0.4970   -0.4950 ca        1 VG5     -0.133500
     33 N1         -1.8810   -0.1100    3.8930 n4        1 VG5     -0.649400
     34 C67        -2.5950    1.2210    3.9250 c3        1 VG5      0.118800
     35 C68        -3.8530    1.1610    4.7610 c3        1 VG5     -0.149100
     36 N77         0.1270    0.0440   -0.5800 n         1 VG5     -0.388000
     37 C78         1.2520   -0.1060   -1.5020 c3        1 VG5      0.074000
     38 C79         0.6880   -0.0390   -2.9360 c3        1 VG5     -0.092400
     39 C80        -0.8090    0.1990   -2.7960 c3        1 VG5     -0.147400
     40 C81        -1.1000    0.2410   -1.3130 c         1 VG5      0.726500
     41 O88        -2.1820    0.4180   -0.7570 o         1 VG5     -0.557500
     42 H2          2.4560   -0.1610    0.7290 ha        1 VG5      0.152000
     43 H6         -1.8730    0.0320    1.2260 ha        1 VG5      0.225000
     44 H4          0.7310   -0.2560    4.7150 ha        1 VG5      0.176000
     45 H1         -2.5350   -0.8230    3.5310 hn        1 VG5      0.468800
     46 H8          3.9630    0.7940    1.9030 hn        1 VG5      0.486300
     47 H10         5.2240   -1.2760    2.0960 hx        1 VG5      0.121700
     48 H111        7.3540   -0.2090    1.6650 hc        1 VG5      0.083200
     49 H112        6.9340    1.2640    2.6610 hc        1 VG5      0.083200
     50 H12         5.4490   -1.8200    4.3540 h1        1 VG5      0.099700
     51 H13         5.0320   -0.1020    5.6070 ho        1 VG5      0.465000
     52 H151        7.7300   -1.9690    3.2770 hx        1 VG5      0.131700
     53 H152        8.0890   -0.2200    3.7620 hx        1 VG5      0.131700
     54 H56         5.4900    2.9940    1.7790 ha        1 VG5      0.135000
     55 H60         6.4530   -0.5260   -0.5700 ha        1 VG5      0.135000
     56 H16         7.7290   -0.9350    6.0840 hn        1 VG5      0.481800
     57 H17         9.9280   -2.0000    4.3850 hx        1 VG5      0.154700
     58 H221       11.2580   -0.2890    5.4700 hc        1 VG5      0.110700
     59 H222       10.0830   -0.0810    6.8530 hc        1 VG5      0.110700
     60 H223        9.6840    0.5190    5.1900 hc        1 VG5      0.110700
     61 H19        11.9930   -2.0570    6.3770 hn        1 VG5      0.483300
     62 H21        11.3480   -4.9750    6.4530 hx        1 VG5      0.125700
     63 H231       14.1440   -3.6220    6.8240 hc        1 VG5      0.064450
     64 H232       13.1950   -4.5050    8.1070 hc        1 VG5      0.064450
     65 H271       13.1170   -3.2610    4.5110 hc        1 VG5      0.064450
     66 H272       11.4300   -3.8620    4.1700 hc        1 VG5      0.064450
     67 H241       14.9390   -5.9400    7.0660 hc        1 VG5      0.085200
     68 H242       13.2760   -6.6000    6.7980 hc        1 VG5      0.085200
     69 H251       14.5720   -6.7710    4.7100 hc        1 VG5      0.089200
     70 H252       15.0300   -5.0250    4.7800 hc        1 VG5      0.089200
     71 H261       12.1920   -6.2160    4.3910 hc        1 VG5      0.085200
     72 H262       13.1910   -5.3260    3.1700 hc        1 VG5      0.085200
     73 H57         4.7650    4.1710   -0.2870 ha        1 VG5      0.176500
     74 H58         4.9230    3.0260   -2.5030 ha        1 VG5      0.183000
     75 H59         5.7530    0.6690   -2.6340 ha        1 VG5      0.176500
     76 H671       -2.8420    1.4970    2.8590 hx        1 VG5      0.111700
     77 H672       -1.8750    1.9800    4.3430 hx        1 VG5      0.111700
     78 H681       -4.5950    0.4290    4.3550 hc        1 VG5      0.097367
     79 H682       -4.3300    2.1780    4.7330 hc        1 VG5      0.097367
     80 H683       -3.6390    0.9120    5.8300 hc        1 VG5      0.097367
     81 H78         1.9910    0.7240   -1.3320 h1        1 VG5      0.054700
     82 H79         0.8940   -0.9960   -3.4780 hc        1 VG5      0.092200
     83 H801       -1.4170   -0.6210   -3.2640 hc        1 VG5      0.129700
     84 H802       -1.1320    1.1700   -3.2590 hc        1 VG5      0.129700
     85 H7A         1.7600   -1.0930   -1.3220 h1        1 VG5      0.054700
     86 H7B         1.1760    0.7900   -3.5060 hc        1 VG5      0.092200
     87 H82         4.3910    1.2390    3.4540 hn        1 VG5      0.486300
     88 H162        7.6710   -2.5370    5.6040 hn        1 VG5      0.481800
     89 H192       11.5640   -2.8650    7.7820 hn        1 VG5      0.483300
     90 H121       -1.6240   -0.3750    4.8530 hn        1 VG5      0.468800
@<TRIPOS>BOND
     1    1    2 ar  
     2    1    6 ar  
     3    1   36 1   
     4    2    3 ar  
     5    2   42 1   
     6    3    4 ar  
     7    3    7 1   
     8    4    5 ar  
     9    4   44 1   
    10    5    6 ar  
    11    5   33 1   
    12    6   43 1   
    13    7    8 1   
    14    7    9 2   
    15    8   10 1   
    16    8   46 1   
    17    8   87 1   
    18   10   11 1   
    19   10   12 1   
    20   10   47 1   
    21   11   14 1   
    22   11   48 1   
    23   11   49 1   
    24   12   13 1   
    25   12   15 1   
    26   12   50 1   
    27   13   51 1   
    28   14   28 ar  
    29   14   32 ar  
    30   15   16 1   
    31   15   52 1   
    32   15   53 1   
    33   16   17 1   
    34   16   56 1   
    35   16   88 1   
    36   17   18 1   
    37   17   22 1   
    38   17   57 1   
    39   18   19 1   
    40   18   20 2   
    41   19   21 1   
    42   19   61 1   
    43   19   89 1   
    44   21   23 1   
    45   21   27 1   
    46   21   62 1   
    47   22   58 1   
    48   22   59 1   
    49   22   60 1   
    50   23   24 1   
    51   23   63 1   
    52   23   64 1   
    53   24   25 1   
    54   24   67 1   
    55   24   68 1   
    56   25   26 1   
    57   25   69 1   
    58   25   70 1   
    59   26   27 1   
    60   26   71 1   
    61   26   72 1   
    62   27   65 1   
    63   27   66 1   
    64   28   29 ar  
    65   28   54 1   
    66   29   30 ar  
    67   29   73 1   
    68   30   31 ar  
    69   30   74 1   
    70   31   32 ar  
    71   31   75 1   
    72   32   55 1   
    73   33   34 1   
    74   33   45 1   
    75   33   90 1   
    76   34   35 1   
    77   34   76 1   
    78   34   77 1   
    79   35   78 1   
    80   35   79 1   
    81   35   80 1   
    82   36   37 1   
    83   36   40 1   
    84   37   38 1   
    85   37   81 1   
    86   37   85 1   
    87   38   39 1   
    88   38   82 1   
    89   38   86 1   
    90   39   40 1   
    91   39   83 1   
    92   39   84 1   
    93   40   41 2   
@<TRIPOS>SUBSTRUCTURE
     1 VG5         1 TEMP              0 ****  ****    0 ROOT
