@<TRIPOS>MOLECULE
VG5
   89    92     1     0     0
SMALL
bcc


@<TRIPOS>ATOM
      1 C1          0.3920   -1.3320    0.3730 ca        1 VG5      0.153600
      2 C2          1.6960   -1.4020    0.9480 ca        1 VG5     -0.148000
      3 C3          2.1480   -0.3720    1.7790 ca        1 VG5     -0.131600
      4 C4          1.3500    0.7390    2.0880 ca        1 VG5     -0.270000
      5 C5          0.0510    0.8290    1.5340 ca        1 VG5      0.260600
      6 C6         -0.4050   -0.2160    0.6760 ca        1 VG5     -0.180000
      7 C7          3.4950   -0.5350    2.2990 c         1 VG5      0.595700
      8 N8          4.1200    0.7120    2.9430 n4        1 VG5     -0.688800
      9 O9          4.2360   -1.5150    2.2960 o         1 VG5     -0.510100
     10 C10         5.5860    0.6110    3.2290 c3        1 VG5      0.099500
     11 C11         6.1890    2.0020    3.4990 c3        1 VG5     -0.041100
     12 C12         5.9040   -0.3700    4.3910 c3        1 VG5      0.113100
     13 O13         5.8060    0.2390    5.6640 oh        1 VG5     -0.616800
     14 C14         5.7210    3.0330    2.5370 ca        1 VG5     -0.195300
     15 C15         7.3850   -0.8150    4.2630 c3        1 VG5      0.110800
     16 N16         7.8170   -1.6350    5.4420 n4        1 VG5     -0.769000
     17 C17         9.3140   -1.8270    5.5010 c3        1 VG5      0.069500
     18 C18         9.6460   -3.1630    6.1990 c         1 VG5      0.509100
     19 N19        11.0640   -3.4710    6.4890 n4        1 VG5     -0.668800
     20 O20         8.7920   -3.9850    6.5090 o         1 VG5     -0.387100
     21 C21        11.5990   -4.6410    5.6420 c3        1 VG5      0.135500
     22 C22        10.0030   -0.6630    6.2050 c3        1 VG5     -0.160100
     23 C23        12.8580   -5.2180    6.2990 c3        1 VG5     -0.103400
     24 C24        13.3260   -6.4130    5.4840 c3        1 VG5     -0.078900
     25 C25        13.5860   -6.0360    4.0430 c3        1 VG5     -0.098400
     26 C26        12.3680   -5.3970    3.4090 c3        1 VG5     -0.078900
     27 C27        11.8950   -4.1940    4.2130 c3        1 VG5     -0.103400
     28 C56         5.1890    4.2380    3.0130 ca        1 VG5     -0.130000
     29 C57         4.8170    5.2410    2.1170 ca        1 VG5     -0.106000
     30 C58         4.9720    5.0480    0.7440 ca        1 VG5     -0.078000
     31 C59         5.5030    3.8470    0.2650 ca        1 VG5     -0.106000
     32 C60         5.8790    2.8450    1.1560 ca        1 VG5     -0.130000
     33 N1         -0.7780    1.8910    1.7810 nh        1 VG5     -0.761600
     34 C67        -0.4480    2.9650    2.6800 c3        1 VG5      0.220800
     35 C68        -1.5660    3.9850    2.8280 c3        1 VG5     -0.118100
     36 N77        -0.0540   -2.3510   -0.4580 n         1 VG5     -0.399000
     37 C78         0.7790   -3.5050   -0.7750 c3        1 VG5      0.082000
     38 C79        -0.0330   -4.4170   -1.7160 c3        1 VG5     -0.092400
     39 C80        -1.3740   -3.7250   -1.9190 c3        1 VG5     -0.151400
     40 C81        -1.3190   -2.4450   -1.1060 c         1 VG5      0.716500
     41 O88        -2.2140   -1.6030   -1.0060 o         1 VG5     -0.571500
     42 H2          2.3570   -2.2590    0.7420 ha        1 VG5      0.159000
     43 H6         -1.4240   -0.1310    0.2450 ha        1 VG5      0.208000
     44 H4          1.6900    1.5340    2.7630 ha        1 VG5      0.117000
     45 H1         -1.6910    1.8840    1.3800 hn        1 VG5      0.465800
     46 H8          3.9850    1.5030    2.2830 hn        1 VG5      0.474800
     47 H10         6.0480    0.1850    2.2840 hx        1 VG5      0.121700
     48 H111        7.3060    1.9030    3.4140 hc        1 VG5      0.078700
     49 H112        5.9580    2.3140    4.5540 hc        1 VG5      0.078700
     50 H12         5.2340   -1.2780    4.3330 h1        1 VG5      0.100700
     51 H13         4.8730    0.3970    5.8680 ho        1 VG5      0.460000
     52 H151        8.0460    0.0990    4.2140 hx        1 VG5      0.129200
     53 H152        7.5060   -1.4300    3.3260 hx        1 VG5      0.129200
     54 H56         5.0840    4.4120    4.0950 ha        1 VG5      0.132000
     55 H60         6.3320    1.9200    0.7710 ha        1 VG5      0.132000
     56 H16         7.3450   -2.5530    5.4110 hn        1 VG5      0.485800
     57 H17         9.6870   -1.9100    4.4290 hx        1 VG5      0.153700
     58 H221       11.0940   -0.6530    5.9490 hc        1 VG5      0.108700
     59 H222        9.8810   -0.7170    7.3160 hc        1 VG5      0.108700
     60 H223        9.5930    0.3240    5.8610 hc        1 VG5      0.108700
     61 H19        11.6630   -2.6520    6.3370 hn        1 VG5      0.480800
     62 H21        10.7800   -5.4230    5.6510 hx        1 VG5      0.125700
     63 H231       13.6720   -4.4470    6.3300 hc        1 VG5      0.063950
     64 H232       12.6420   -5.5530    7.3490 hc        1 VG5      0.063950
     65 H271       12.7000   -3.4120    4.2030 hc        1 VG5      0.063950
     66 H272       10.9750   -3.7660    3.7360 hc        1 VG5      0.063950
     67 H241       14.2720   -6.8070    5.9490 hc        1 VG5      0.083450
     68 H242       12.5620   -7.2330    5.5380 hc        1 VG5      0.083450
     69 H251       13.8620   -6.9590    3.4630 hc        1 VG5      0.086200
     70 H252       14.4600   -5.3350    3.9810 hc        1 VG5      0.086200
     71 H261       11.5390   -6.1480    3.3290 hc        1 VG5      0.083450
     72 H262       12.6180   -5.0560    2.3690 hc        1 VG5      0.083450
     73 H57         4.4120    6.1940    2.4980 ha        1 VG5      0.169500
     74 H58         4.6870    5.8460    0.0370 ha        1 VG5      0.176000
     75 H59         5.6380    3.7000   -0.8200 ha        1 VG5      0.169500
     76 H671        0.4790    3.4860    2.2980 h1        1 VG5      0.029200
     77 H672       -0.2030    2.5360    3.6970 h1        1 VG5      0.029200
     78 H681       -2.4920    3.5160    3.2410 hc        1 VG5      0.065033
     79 H682       -1.8130    4.4620    1.8490 hc        1 VG5      0.065033
     80 H683       -1.2280    4.7810    3.5350 hc        1 VG5      0.065033
     81 H78         1.7270   -3.1640   -1.2760 h1        1 VG5      0.050700
     82 H79         0.5050   -4.5460   -2.6880 hc        1 VG5      0.077200
     83 H801       -2.2310   -4.3490   -1.5570 hc        1 VG5      0.109700
     84 H802       -1.5610   -3.4670   -2.9930 hc        1 VG5      0.109700
     85 H7A         1.0480   -4.0520    0.1700 h1        1 VG5      0.050700
     86 H7B        -0.1640   -5.4270   -1.2570 hc        1 VG5      0.077200
     87 H82         3.6050    0.9350    3.7990 hn        1 VG5      0.474800
     88 H162        7.5030   -1.1460    6.3020 hn        1 VG5      0.485800
     89 H192       11.1430   -3.7610    7.4810 hn        1 VG5      0.480800
@<TRIPOS>BOND
     1    1    2 ar  
     2    1    6 ar  
     3    1   36 1   
     4    2    3 ar  
     5    2   42 1   
     6    3    4 ar  
     7    3    7 1   
     8    4    5 ar  
     9    4   44 1   
    10    5    6 ar  
    11    5   33 1   
    12    6   43 1   
    13    7    8 1   
    14    7    9 2   
    15    8   10 1   
    16    8   46 1   
    17    8   87 1   
    18   10   11 1   
    19   10   12 1   
    20   10   47 1   
    21   11   14 1   
    22   11   48 1   
    23   11   49 1   
    24   12   13 1   
    25   12   15 1   
    26   12   50 1   
    27   13   51 1   
    28   14   28 ar  
    29   14   32 ar  
    30   15   16 1   
    31   15   52 1   
    32   15   53 1   
    33   16   17 1   
    34   16   56 1   
    35   16   88 1   
    36   17   18 1   
    37   17   22 1   
    38   17   57 1   
    39   18   19 1   
    40   18   20 2   
    41   19   21 1   
    42   19   61 1   
    43   19   89 1   
    44   21   23 1   
    45   21   27 1   
    46   21   62 1   
    47   22   58 1   
    48   22   59 1   
    49   22   60 1   
    50   23   24 1   
    51   23   63 1   
    52   23   64 1   
    53   24   25 1   
    54   24   67 1   
    55   24   68 1   
    56   25   26 1   
    57   25   69 1   
    58   25   70 1   
    59   26   27 1   
    60   26   71 1   
    61   26   72 1   
    62   27   65 1   
    63   27   66 1   
    64   28   29 ar  
    65   28   54 1   
    66   29   30 ar  
    67   29   73 1   
    68   30   31 ar  
    69   30   74 1   
    70   31   32 ar  
    71   31   75 1   
    72   32   55 1   
    73   33   34 1   
    74   33   45 1   
    75   34   35 1   
    76   34   76 1   
    77   34   77 1   
    78   35   78 1   
    79   35   79 1   
    80   35   80 1   
    81   36   37 1   
    82   36   40 1   
    83   37   38 1   
    84   37   81 1   
    85   37   85 1   
    86   38   39 1   
    87   38   82 1   
    88   38   86 1   
    89   39   40 1   
    90   39   83 1   
    91   39   84 1   
    92   40   41 2   
@<TRIPOS>SUBSTRUCTURE
     1 VG5         1 TEMP              0 ****  ****    0 ROOT
