@<TRIPOS>MOLECULE
VG5
   86    89     1     0     0
SMALL
bcc


@<TRIPOS>ATOM
      1 C1          4.7690    0.9650   -1.2840 ca        1 VG5      0.116600
      2 C2          3.6490    0.1090   -1.1420 ca        1 VG5     -0.177000
      3 C3          2.5670    0.5100   -0.3650 ca        1 VG5     -0.077600
      4 C4          2.5430    1.7460    0.2760 ca        1 VG5     -0.197000
      5 C5          3.6510    2.6130    0.1520 ca        1 VG5      0.171600
      6 C6          4.7570    2.2130   -0.6330 ca        1 VG5     -0.214000
      7 C7          1.4110   -0.4320   -0.2580 c         1 VG5      0.677700
      8 N8          0.8520   -0.5930    0.9950 n         1 VG5     -0.562900
      9 O9          0.9830   -1.0640   -1.2460 o         1 VG5     -0.610100
     10 C10        -0.2740   -1.4590    1.2430 c3        1 VG5      0.081700
     11 C11        -0.0170   -2.4140    2.4250 c3        1 VG5     -0.054100
     12 C12        -1.5710   -0.6360    1.4860 c3        1 VG5      0.107100
     13 O13        -1.5760   -0.0080    2.7530 oh        1 VG5     -0.596800
     14 C14         1.0630   -3.3960    2.1420 ca        1 VG5     -0.079300
     15 C15        -2.8150   -1.5230    1.2920 c3        1 VG5      0.134800
     16 N16        -4.0410   -0.7520    1.3060 n3        1 VG5     -0.828200
     17 C17        -5.2450   -1.5600    1.4340 c3        1 VG5      0.103500
     18 C18        -6.4870   -0.7600    0.9620 c         1 VG5      0.659100
     19 N19        -6.4270   -0.1910   -0.2890 n         1 VG5     -0.549900
     20 O20        -7.5140   -0.7140    1.6670 o         1 VG5     -0.616100
     21 C21        -7.4900    0.6400   -0.8130 c3        1 VG5      0.094700
     22 C22        -5.5320   -2.1020    2.8330 c3        1 VG5     -0.119100
     23 C23        -7.8590    0.2440   -2.2550 c3        1 VG5     -0.090900
     24 C24        -9.0270    1.0730   -2.7450 c3        1 VG5     -0.075900
     25 C25        -8.7220    2.5550   -2.6790 c3        1 VG5     -0.079400
     26 C26        -8.3110    2.9640   -1.2800 c3        1 VG5     -0.075900
     27 C27        -7.1430    2.1400   -0.7820 c3        1 VG5     -0.090900
     28 C56         2.2730   -3.3410    2.8430 ca        1 VG5     -0.121500
     29 C57         3.2740   -4.2780    2.5910 ca        1 VG5     -0.126500
     30 C58         3.0760   -5.2760    1.6380 ca        1 VG5     -0.129000
     31 C59         1.8720   -5.3360    0.9360 ca        1 VG5     -0.126500
     32 C60         0.8700   -4.4020    1.1860 ca        1 VG5     -0.121500
     33 N1          3.7140    3.8240    0.8560 nh        1 VG5     -0.732600
     34 C67         2.4750    4.4830    1.2060 c3        1 VG5      0.185800
     35 C68         2.6470    5.9570    1.5360 c3        1 VG5     -0.108100
     36 N77         5.8590    0.5580   -2.0680 n         1 VG5     -0.386000
     37 C78         5.8620   -0.7470   -2.7190 c3        1 VG5      0.085000
     38 C79         7.1890   -0.8730   -3.4930 c3        1 VG5     -0.095400
     39 C80         7.9300    0.4370   -3.2610 c3        1 VG5     -0.158400
     40 C81         7.0280    1.2770   -2.3620 c         1 VG5      0.708500
     41 O88         7.3040    2.4160   -1.9650 o         1 VG5     -0.614500
     42 H2          3.5980   -0.8690   -1.6440 ha        1 VG5      0.153000
     43 H6          5.6220    2.8930   -0.7280 ha        1 VG5      0.173000
     44 H4          1.6650    2.0490    0.8660 ha        1 VG5      0.140000
     45 H1          4.4200    4.4460    0.5180 hn        1 VG5      0.403800
     46 H8          1.1880   -0.0540    1.7570 hn        1 VG5      0.320500
     47 H10        -0.4400   -2.0830    0.3110 h1        1 VG5      0.098700
     48 H111        0.2350   -1.8210    3.3450 hc        1 VG5      0.052200
     49 H112       -0.9690   -2.9720    2.6330 hc        1 VG5      0.052200
     50 H12        -1.6090    0.2300    0.7590 h1        1 VG5      0.101700
     51 H13        -1.6290   -0.7000    3.4250 ho        1 VG5      0.398000
     52 H151       -2.7420   -2.0280    0.2870 h1        1 VG5      0.040200
     53 H152       -2.8120   -2.3300    2.0820 h1        1 VG5      0.040200
     54 H56         2.4370   -2.5550    3.5950 ha        1 VG5      0.130500
     55 H60        -0.0770   -4.4490    0.6270 ha        1 VG5      0.130500
     56 H16        -4.0070   -0.0490    2.0240 hn        1 VG5      0.378800
     57 H17        -5.1460   -2.4410    0.7300 h1        1 VG5      0.072700
     58 H221       -5.6720   -1.2660    3.5600 hc        1 VG5      0.049700
     59 H222       -6.4750   -2.7000    2.8120 hc        1 VG5      0.049700
     60 H223       -4.6950   -2.7540    3.1800 hc        1 VG5      0.049700
     61 H19        -5.5510   -0.1360   -0.7530 hn        1 VG5      0.318500
     62 H21        -8.4020    0.4800   -0.1600 h1        1 VG5      0.088700
     63 H231       -6.9760    0.3990   -2.9290 hc        1 VG5      0.044700
     64 H232       -8.1310   -0.8420   -2.2930 hc        1 VG5      0.044700
     65 H271       -6.8890    2.4490    0.2650 hc        1 VG5      0.044700
     66 H272       -6.2440    2.3350   -1.4230 hc        1 VG5      0.044700
     67 H241       -9.2650    0.7860   -3.8030 hc        1 VG5      0.042450
     68 H242       -9.9330    0.8490   -2.1230 hc        1 VG5      0.042450
     69 H251       -7.8980    2.8010   -3.3980 hc        1 VG5      0.040200
     70 H252       -9.6270    3.1390   -2.9910 hc        1 VG5      0.040200
     71 H261       -8.0290    4.0490   -1.2730 hc        1 VG5      0.042450
     72 H262       -9.1810    2.8380   -0.5820 hc        1 VG5      0.042450
     73 H57         4.2230   -4.2260    3.1460 ha        1 VG5      0.132500
     74 H58         3.8670   -6.0140    1.4410 ha        1 VG5      0.131000
     75 H59         1.7140   -6.1200    0.1810 ha        1 VG5      0.132500
     76 H671        1.7110    4.3850    0.3790 h1        1 VG5      0.040200
     77 H672        2.0580    3.9520    2.1110 h1        1 VG5      0.040200
     78 H681        3.0180    6.5290    0.6520 hc        1 VG5      0.044367
     79 H682        1.6550    6.3740    1.8360 hc        1 VG5      0.044367
     80 H683        3.3630    6.1020    2.3800 hc        1 VG5      0.044367
     81 H78         5.7730   -1.5570   -1.9440 h1        1 VG5      0.058700
     82 H79         7.7770   -1.7430   -3.1120 hc        1 VG5      0.060200
     83 H801        8.9110    0.2820   -2.7480 hc        1 VG5      0.084700
     84 H802        8.1120    0.9930   -4.2130 hc        1 VG5      0.084700
     85 H7A         4.9860   -0.8260   -3.4190 h1        1 VG5      0.058700
     86 H7B         6.9890   -1.0390   -4.5790 hc        1 VG5      0.060200
@<TRIPOS>BOND
     1    1    2 ar  
     2    1    6 ar  
     3    1   36 1   
     4    2    3 ar  
     5    2   42 1   
     6    3    4 ar  
     7    3    7 1   
     8    4    5 ar  
     9    4   44 1   
    10    5    6 ar  
    11    5   33 1   
    12    6   43 1   
    13    7    8 1   
    14    7    9 2   
    15    8   10 1   
    16    8   46 1   
    17   10   11 1   
    18   10   12 1   
    19   10   47 1   
    20   11   14 1   
    21   11   48 1   
    22   11   49 1   
    23   12   13 1   
    24   12   15 1   
    25   12   50 1   
    26   13   51 1   
    27   14   28 ar  
    28   14   32 ar  
    29   15   16 1   
    30   15   52 1   
    31   15   53 1   
    32   16   17 1   
    33   16   56 1   
    34   17   18 1   
    35   17   22 1   
    36   17   57 1   
    37   18   19 1   
    38   18   20 2   
    39   19   21 1   
    40   19   61 1   
    41   21   23 1   
    42   21   27 1   
    43   21   62 1   
    44   22   58 1   
    45   22   59 1   
    46   22   60 1   
    47   23   24 1   
    48   23   63 1   
    49   23   64 1   
    50   24   25 1   
    51   24   67 1   
    52   24   68 1   
    53   25   26 1   
    54   25   69 1   
    55   25   70 1   
    56   26   27 1   
    57   26   71 1   
    58   26   72 1   
    59   27   65 1   
    60   27   66 1   
    61   28   29 ar  
    62   28   54 1   
    63   29   30 ar  
    64   29   73 1   
    65   30   31 ar  
    66   30   74 1   
    67   31   32 ar  
    68   31   75 1   
    69   32   55 1   
    70   33   34 1   
    71   33   45 1   
    72   34   35 1   
    73   34   76 1   
    74   34   77 1   
    75   35   78 1   
    76   35   79 1   
    77   35   80 1   
    78   36   37 1   
    79   36   40 1   
    80   37   38 1   
    81   37   81 1   
    82   37   85 1   
    83   38   39 1   
    84   38   82 1   
    85   38   86 1   
    86   39   40 1   
    87   39   83 1   
    88   39   84 1   
    89   40   41 2   
@<TRIPOS>SUBSTRUCTURE
     1 VG5         1 TEMP              0 ****  ****    0 ROOT
