@<TRIPOS>MOLECULE
VG6
   79    82     1     0     0
SMALL
bcc


@<TRIPOS>ATOM
      1 C1         -0.0850    1.0720   -0.6500 ca        1 VG6      0.025600
      2 C2          1.2270    1.1420   -0.1490 ca        1 VG6     -0.162000
      3 C3          1.4040    0.9680    1.2290 ca        1 VG6     -0.123600
      4 C4          0.3290    0.7080    2.0820 ca        1 VG6     -0.115000
      5 C5         -1.0010    0.5970    1.5770 ca        1 VG6      0.172600
      6 C6         -1.1790    0.8050    0.1780 ca        1 VG6     -0.137000
      7 C7          2.7180    1.1170    1.8840 c         1 VG6      0.572700
      8 N8          3.9340    0.6570    1.1160 n4        1 VG6     -0.680800
      9 O9          2.9280    1.5610    3.0050 o         1 VG6     -0.421100
     10 C10         5.1320    0.3280    1.9790 c3        1 VG6      0.139500
     11 C11         6.0610   -0.6450    1.2330 c3        1 VG6     -0.053100
     12 C12         5.8790    1.6210    2.4220 c3        1 VG6      0.102100
     13 O13         6.1000    2.4000    1.2590 oh        1 VG6     -0.603800
     14 C14         5.3270   -1.7960    0.6430 ca        1 VG6     -0.193300
     15 C15         7.2350    1.2480    3.0580 c3        1 VG6      0.071800
     16 N16         7.9550    2.4140    3.6360 n4        1 VG6     -0.769000
     17 C17         5.1500   -1.8790   -0.7450 ca        1 VG6     -0.131000
     18 C18         4.5550   -3.0060   -1.3080 ca        1 VG6     -0.112500
     19 C19         4.1320   -4.0580   -0.4920 ca        1 VG6     -0.082000
     20 C20         4.3010   -3.9770    0.8920 ca        1 VG6     -0.112500
     21 C21         4.8990   -2.8530    1.4580 ca        1 VG6     -0.131000
     22 N38        -0.3450    1.3150   -2.0750 n4        1 VG6     -0.647400
     23 C39        -0.7850    0.0710   -2.8070 c3        1 VG6      0.116800
     24 C41        -1.1050    0.3550   -4.2570 c3        1 VG6     -0.148100
     25 N47        -2.0540    0.3130    2.4090 n         1 VG6     -0.382000
     26 C48        -3.4270    0.1000    2.0360 c         1 VG6      0.724500
     27 C49        -4.2510   -0.1510    3.2800 c3        1 VG6     -0.147400
     28 C50        -3.2870   -0.0800    4.4570 c3        1 VG6     -0.093400
     29 C51        -1.8940    0.2020    3.8610 c3        1 VG6      0.071000
     30 O58        -3.8080    0.1230    0.8660 o         1 VG6     -0.569500
     31 C59         9.3370    2.0540    4.1390 c3        1 VG6      0.183100
     32 C61        10.3050    1.8430    3.0300 ca        1 VG6     -0.206300
     33 C64        10.9870    0.6240    2.9130 ca        1 VG6     -0.069000
     34 C65        11.9600    0.4620    1.9280 ca        1 VG6     -0.112000
     35 C66        12.2470    1.5030    1.0400 ca        1 VG6     -0.021000
     36 C67        11.5570    2.7120    1.1540 ca        1 VG6     -0.155300
     37 C68        10.6070    2.8970    2.1580 ca        1 VG6     -0.079000
     38 C73        11.8390    3.8680    0.1890 c3        1 VG6      0.690200
     39 F74        12.6550    4.8370    0.7080 f         1 VG6     -0.216967
     40 F75        10.6940    4.5370   -0.1820 f         1 VG6     -0.216967
     41 F76        12.4200    3.4870   -0.9900 f         1 VG6     -0.216967
     42 H2          2.0740    1.3620   -0.8130 ha        1 VG6      0.142000
     43 H6         -2.2030    0.7660   -0.2500 ha        1 VG6      0.219000
     44 H38         0.4970    1.6910   -2.5270 hn        1 VG6      0.464800
     45 H4          0.5180    0.6010    3.1670 ha        1 VG6      0.185000
     46 H8          4.2140    1.3950    0.4530 hn        1 VG6      0.481800
     47 H10         4.7340   -0.1770    2.9110 hx        1 VG6      0.124700
     48 H111        6.6280   -0.0860    0.4390 hc        1 VG6      0.094200
     49 H112        6.8050   -1.0380    1.9810 hc        1 VG6      0.094200
     50 H12         5.2320    2.1700    3.1680 h1        1 VG6      0.091700
     51 H13         6.0090    3.3360    1.4880 ho        1 VG6      0.445000
     52 H151        7.9150    0.8070    2.2660 hx        1 VG6      0.131700
     53 H152        7.0710    0.4870    3.8740 hx        1 VG6      0.131700
     54 H17         5.5330   -1.0810   -1.4010 ha        1 VG6      0.137500
     55 H21         5.0650   -2.8140    2.5460 ha        1 VG6      0.137500
     56 H16         8.0570    3.1340    2.9080 hn        1 VG6      0.455300
     57 H591        9.2430    1.1330    4.7840 hx        1 VG6      0.123200
     58 H592        9.6710    2.9230    4.7840 hx        1 VG6      0.123200
     59 H18         4.4490   -3.0840   -2.4030 ha        1 VG6      0.168000
     60 H19         3.6860   -4.9620   -0.9410 ha        1 VG6      0.175000
     61 H20         3.9860   -4.8160    1.5360 ha        1 VG6      0.168000
     62 H391        0.0480   -0.6830   -2.7220 hx        1 VG6      0.111700
     63 H392       -1.6950   -0.3310   -2.2730 hx        1 VG6      0.111700
     64 H411       -1.4310   -0.6100   -4.7310 hc        1 VG6      0.093700
     65 H412       -1.9450    1.0860   -4.3670 hc        1 VG6      0.093700
     66 H413       -0.2160    0.7320   -4.8200 hc        1 VG6      0.093700
     67 H511       -1.1860   -0.6390    4.0980 h1        1 VG6      0.066700
     68 H512       -1.4740    1.1620    4.2700 h1        1 VG6      0.066700
     69 H491       -4.7450   -1.1550    3.1940 hc        1 VG6      0.124200
     70 H492       -5.0590    0.6250    3.3450 hc        1 VG6      0.124200
     71 H501       -3.2760   -1.0420    5.0280 hc        1 VG6      0.093200
     72 H502       -3.5760    0.7360    5.1660 hc        1 VG6      0.093200
     73 H64        10.7810   -0.2010    3.6150 ha        1 VG6      0.153000
     74 H68        10.1270    3.8830    2.2620 ha        1 VG6      0.143000
     75 H65        12.5180   -0.4880    1.8550 ha        1 VG6      0.183000
     76 H66        13.0180    1.3760    0.2570 ha        1 VG6      0.194000
     77 H82         3.6930   -0.1950    0.5760 hn        1 VG6      0.481800
     78 H162        7.4150    2.8060    4.4170 hn        1 VG6      0.455300
     79 H382       -1.0910    2.0230   -2.1560 hn        1 VG6      0.464800
@<TRIPOS>BOND
     1    1    2 ar  
     2    1    6 ar  
     3    1   22 1   
     4    2    3 ar  
     5    2   42 1   
     6    3    4 ar  
     7    3    7 1   
     8    4    5 ar  
     9    4   45 1   
    10    5    6 ar  
    11    5   25 1   
    12    6   43 1   
    13    7    8 1   
    14    7    9 2   
    15    8   10 1   
    16    8   46 1   
    17    8   77 1   
    18   10   11 1   
    19   10   12 1   
    20   10   47 1   
    21   11   14 1   
    22   11   48 1   
    23   11   49 1   
    24   12   13 1   
    25   12   15 1   
    26   12   50 1   
    27   13   51 1   
    28   14   17 ar  
    29   14   21 ar  
    30   15   16 1   
    31   15   52 1   
    32   15   53 1   
    33   16   31 1   
    34   16   56 1   
    35   16   78 1   
    36   17   18 ar  
    37   17   54 1   
    38   18   19 ar  
    39   18   59 1   
    40   19   20 ar  
    41   19   60 1   
    42   20   21 ar  
    43   20   61 1   
    44   21   55 1   
    45   22   23 1   
    46   22   44 1   
    47   22   79 1   
    48   23   24 1   
    49   23   62 1   
    50   23   63 1   
    51   24   64 1   
    52   24   65 1   
    53   24   66 1   
    54   25   26 1   
    55   25   29 1   
    56   26   27 1   
    57   26   30 2   
    58   27   28 1   
    59   27   69 1   
    60   27   70 1   
    61   28   29 1   
    62   28   71 1   
    63   28   72 1   
    64   29   67 1   
    65   29   68 1   
    66   31   32 1   
    67   31   57 1   
    68   31   58 1   
    69   32   33 ar  
    70   32   37 ar  
    71   33   34 ar  
    72   33   73 1   
    73   34   35 ar  
    74   34   75 1   
    75   35   36 ar  
    76   35   76 1   
    77   36   37 ar  
    78   36   38 1   
    79   37   74 1   
    80   38   39 1   
    81   38   40 1   
    82   38   41 1   
@<TRIPOS>SUBSTRUCTURE
     1 VG6         1 TEMP              0 ****  ****    0 ROOT
