@<TRIPOS>MOLECULE
VG6
   78    81     1     0     0
SMALL
bcc


@<TRIPOS>ATOM
      1 C1         -0.5520    0.7360   -0.3200 ca        1 VG6      0.233600
      2 C2          0.8310    0.9710   -0.1450 ca        1 VG6     -0.243000
      3 C3          1.3970    0.8090    1.1260 ca        1 VG6     -0.134600
      4 C4          0.6300    0.4590    2.2400 ca        1 VG6     -0.152000
      5 C5         -0.7700    0.2360    2.0940 ca        1 VG6      0.151600
      6 C6         -1.3340    0.3750    0.8130 ca        1 VG6     -0.181000
      7 C7          2.8220    0.9970    1.3680 c         1 VG6      0.596700
      8 N8          3.7230    0.8860    0.1400 ny        1 VG6     -0.687800
      9 O9          3.4180    1.2080    2.4210 o         1 VG6     -0.499100
     10 C10         5.1820    0.7180    0.4520 c3        1 VG6      0.093500
     11 C11         5.9400    0.2060   -0.7870 c3        1 VG6     -0.043100
     12 C12         5.8300    2.0070    1.0280 c3        1 VG6      0.123100
     13 O13         6.8340    2.5340    0.1860 oh        1 VG6     -0.599800
     14 C14         5.3760   -1.0830   -1.2660 ca        1 VG6     -0.172300
     15 C15         6.5460    1.6410    2.3510 c3        1 VG6      0.100800
     16 N16         7.3670    2.7600    2.8880 ny        1 VG6     -0.762000
     17 C17         4.4860   -1.1010   -2.3490 ca        1 VG6     -0.132500
     18 C18         3.9890   -2.3120   -2.8260 ca        1 VG6     -0.106500
     19 C19         4.3770   -3.5130   -2.2270 ca        1 VG6     -0.086000
     20 C20         5.2660   -3.4990   -1.1510 ca        1 VG6     -0.106500
     21 C21         5.7660   -2.2880   -0.6720 ca        1 VG6     -0.132500
     22 N38        -1.1570    0.7650   -1.5640 nu        1 VG6     -0.737600
     23 C39        -0.5700    1.4180   -2.7050 c3        1 VG6      0.195800
     24 C41        -0.4990    2.9360   -2.6490 c3        1 VG6     -0.134100
     25 N47        -1.5360   -0.1060    3.2020 n         1 VG6     -0.397000
     26 C48        -2.9380   -0.3420    3.2430 c         1 VG6      0.715500
     27 C49        -3.3490   -0.6830    4.6650 c3        1 VG6     -0.152400
     28 C50        -2.0780   -0.6310    5.5000 c3        1 VG6     -0.093400
     29 C51        -0.9430   -0.2550    4.5260 c3        1 VG6      0.082000
     30 O58        -3.6860   -0.2750    2.2650 o         1 VG6     -0.576500
     31 C59         8.1810    2.3600    4.0910 c3        1 VG6      0.178100
     32 C61         9.3480    1.5090    3.7300 ca        1 VG6     -0.196300
     33 C64         9.4560    0.2090    4.2430 ca        1 VG6     -0.074000
     34 C65        10.5890   -0.5550    3.9710 ca        1 VG6     -0.117000
     35 C66        11.6130   -0.0390    3.1730 ca        1 VG6     -0.028000
     36 C67        11.4960    1.2540    2.6550 ca        1 VG6     -0.155300
     37 C68        10.3780    2.0370    2.9430 ca        1 VG6     -0.072000
     38 C73        12.5920    1.8290    1.7540 c3        1 VG6      0.689200
     39 F74        12.8080    3.1720    1.9370 f         1 VG6     -0.217967
     40 F75        12.3010    1.7070    0.4160 f         1 VG6     -0.217967
     41 F76        13.8180    1.2410    1.9070 f         1 VG6     -0.217967
     42 H2          1.4240    1.3110   -1.0030 ha        1 VG6      0.121000
     43 H6         -2.4190    0.2000    0.6680 ha        1 VG6      0.204000
     44 H38        -2.1570    0.7470   -1.5540 hn        1 VG6      0.444800
     45 H4          1.1200    0.3580    3.2210 ha        1 VG6      0.159000
     46 H8          3.4190    0.0590   -0.4080 hn        1 VG6      0.471800
     47 H10         5.2240   -0.0950    1.2430 hx        1 VG6      0.120700
     48 H111        5.9150    0.9730   -1.6070 hc        1 VG6      0.089700
     49 H112        7.0160    0.0800   -0.4850 hc        1 VG6      0.089700
     50 H12         5.0480    2.7950    1.2340 h1        1 VG6      0.069700
     51 H13         6.4250    2.8670   -0.6250 ho        1 VG6      0.451000
     52 H151        5.7640    1.3570    3.1140 hx        1 VG6      0.128200
     53 H152        7.2420    0.7690    2.1750 hx        1 VG6      0.128200
     54 H17         4.2140   -0.1650   -2.8590 ha        1 VG6      0.129500
     55 H21         6.4870   -2.2870    0.1590 ha        1 VG6      0.129500
     56 H16         6.7530    3.5420    3.1440 hn        1 VG6      0.463300
     57 H591        7.4960    1.8300    4.8130 hx        1 VG6      0.117700
     58 H592        8.5400    3.3220    4.5670 hx        1 VG6      0.117700
     59 H18         3.3030   -2.3250   -3.6880 ha        1 VG6      0.162500
     60 H19         3.9910   -4.4710   -2.6120 ha        1 VG6      0.168000
     61 H20         5.5850   -4.4470   -0.6880 ha        1 VG6      0.162500
     62 H391       -1.1920    1.1160   -3.6000 h1        1 VG6      0.059700
     63 H392        0.4660    1.0020   -2.8650 h1        1 VG6      0.059700
     64 H411       -1.5160    3.3830   -2.5350 hc        1 VG6      0.051367
     65 H412       -0.0550    3.3140   -3.6020 hc        1 VG6      0.051367
     66 H413        0.1340    3.2800   -1.7960 hc        1 VG6      0.051367
     67 H511       -0.4590    0.7110    4.8380 h1        1 VG6      0.052200
     68 H512       -0.1590   -1.0610    4.5030 h1        1 VG6      0.052200
     69 H491       -3.8210   -1.6980    4.6730 hc        1 VG6      0.106700
     70 H492       -4.1130    0.0600    5.0100 hc        1 VG6      0.106700
     71 H501       -2.1580    0.1320    6.3130 hc        1 VG6      0.075700
     72 H502       -1.8670   -1.6210    5.9760 hc        1 VG6      0.075700
     73 H64         8.6620   -0.2050    4.8850 ha        1 VG6      0.149000
     74 H68        10.3370    3.0720    2.5670 ha        1 VG6      0.150000
     75 H65        10.6850   -1.5690    4.3940 ha        1 VG6      0.176000
     76 H66        12.5160   -0.6400    2.9600 ha        1 VG6      0.188000
     77 H82         3.5810    1.7140   -0.4450 hn        1 VG6      0.471800
     78 H162        8.0050    3.0790    2.1410 hn        1 VG6      0.463300
@<TRIPOS>BOND
     1    1    2 ar  
     2    1    6 ar  
     3    1   22 1   
     4    2    3 ar  
     5    2   42 1   
     6    3    4 ar  
     7    3    7 1   
     8    4    5 ar  
     9    4   45 1   
    10    5    6 ar  
    11    5   25 1   
    12    6   43 1   
    13    7    8 1   
    14    7    9 2   
    15    8   10 1   
    16    8   46 1   
    17    8   77 1   
    18   10   11 1   
    19   10   12 1   
    20   10   47 1   
    21   11   14 1   
    22   11   48 1   
    23   11   49 1   
    24   12   13 1   
    25   12   15 1   
    26   12   50 1   
    27   13   51 1   
    28   14   17 ar  
    29   14   21 ar  
    30   15   16 1   
    31   15   52 1   
    32   15   53 1   
    33   16   31 1   
    34   16   56 1   
    35   16   78 1   
    36   17   18 ar  
    37   17   54 1   
    38   18   19 ar  
    39   18   59 1   
    40   19   20 ar  
    41   19   60 1   
    42   20   21 ar  
    43   20   61 1   
    44   21   55 1   
    45   22   23 1   
    46   22   44 1   
    47   23   24 1   
    48   23   62 1   
    49   23   63 1   
    50   24   64 1   
    51   24   65 1   
    52   24   66 1   
    53   25   26 1   
    54   25   29 1   
    55   26   27 1   
    56   26   30 2   
    57   27   28 1   
    58   27   69 1   
    59   27   70 1   
    60   28   29 1   
    61   28   71 1   
    62   28   72 1   
    63   29   67 1   
    64   29   68 1   
    65   31   32 1   
    66   31   57 1   
    67   31   58 1   
    68   32   33 ar  
    69   32   37 ar  
    70   33   34 ar  
    71   33   73 1   
    72   34   35 ar  
    73   34   75 1   
    74   35   36 ar  
    75   35   76 1   
    76   36   37 ar  
    77   36   38 1   
    78   37   74 1   
    79   38   39 1   
    80   38   40 1   
    81   38   41 1   
@<TRIPOS>SUBSTRUCTURE
     1 VG6         1 TEMP              0 ****  ****    0 ROOT
