@<TRIPOS>MOLECULE
VG6
   78    81     1     0     0
SMALL
bcc


@<TRIPOS>ATOM
      1 C1         -0.5460    0.8100   -0.3240 ca        1 VG6      0.233600
      2 C2          0.8400    1.0260   -0.1460 ca        1 VG6     -0.243000
      3 C3          1.4030    0.8480    1.1240 ca        1 VG6     -0.134600
      4 C4          0.6300    0.5020    2.2350 ca        1 VG6     -0.152000
      5 C5         -0.7720    0.2980    2.0870 ca        1 VG6      0.151600
      6 C6         -1.3330    0.4530    0.8070 ca        1 VG6     -0.181000
      7 C7          2.8310    1.0160    1.3680 c         1 VG6      0.596700
      8 N8          3.7310    0.8970    0.1390 n4        1 VG6     -0.687800
      9 O9          3.4280    1.2140    2.4220 o         1 VG6     -0.499100
     10 C10         5.1860    0.7070    0.4510 c3        1 VG6      0.093500
     11 C11         5.9380    0.1910   -0.7900 c3        1 VG6     -0.043100
     12 C12         5.8530    1.9840    1.0330 c3        1 VG6      0.123100
     13 O13         6.8670    2.4990    0.1960 oh        1 VG6     -0.599800
     14 C14         5.3550   -1.0880   -1.2750 ca        1 VG6     -0.172300
     15 C15         6.5610    1.6020    2.3560 c3        1 VG6      0.100800
     16 N16         7.3970    2.7070    2.9000 n4        1 VG6     -0.762000
     17 C17         4.4650   -1.0880   -2.3580 ca        1 VG6     -0.132500
     18 C18         3.9500   -2.2890   -2.8420 ca        1 VG6     -0.106500
     19 C19         4.3200   -3.4980   -2.2480 ca        1 VG6     -0.086000
     20 C20         5.2100   -3.5030   -1.1730 ca        1 VG6     -0.106500
     21 C21         5.7270   -2.3020   -0.6880 ca        1 VG6     -0.132500
     22 N38        -1.1490    0.8550   -1.5680 nh        1 VG6     -0.737600
     23 C39        -0.5530    1.5070   -2.7040 c3        1 VG6      0.195800
     24 C41        -0.4630    3.0230   -2.6380 c3        1 VG6     -0.134100
     25 N47        -1.5430   -0.0400    3.1930 n         1 VG6     -0.397000
     26 C48        -2.9480   -0.2580    3.2320 c         1 VG6      0.715500
     27 C49        -3.3650   -0.6010    4.6510 c3        1 VG6     -0.152400
     28 C50        -2.0930   -0.5710    5.4880 c3        1 VG6     -0.093400
     29 C51        -0.9530   -0.2050    4.5170 c3        1 VG6      0.082000
     30 O58        -3.6940   -0.1750    2.2540 o         1 VG6     -0.576500
     31 C59         8.2020    2.2900    4.1020 c3        1 VG6      0.178100
     32 C61         9.3560    1.4200    3.7420 ca        1 VG6     -0.196300
     33 C64         9.4410    0.1170    4.2520 ca        1 VG6     -0.074000
     34 C65        10.5610   -0.6650    3.9800 ca        1 VG6     -0.117000
     35 C66        11.5950   -0.1640    3.1860 ca        1 VG6     -0.028000
     36 C67        11.5020    1.1320    2.6720 ca        1 VG6     -0.155300
     37 C68        10.3970    1.9330    2.9590 ca        1 VG6     -0.072000
     38 C73        12.6100    1.6910    1.7740 c3        1 VG6      0.689200
     39 F74        12.8460    3.0300    1.9600 f         1 VG6     -0.217967
     40 F75        12.3200    1.5760    0.4360 f         1 VG6     -0.217967
     41 F76        13.8250    1.0830    1.9300 f         1 VG6     -0.217967
     42 H2          1.4380    1.3620   -1.0020 ha        1 VG6      0.121000
     43 H6         -2.4200    0.2930    0.6600 ha        1 VG6      0.204000
     44 H38        -2.1500    0.8500   -1.5580 hn        1 VG6      0.444800
     45 H4          1.1190    0.3890    3.2160 ha        1 VG6      0.159000
     46 H8          3.6010    1.7310   -0.4410 hn        1 VG6      0.471800
     47 H10         5.2170   -0.1100    1.2380 hx        1 VG6      0.120700
     48 H111        5.9250    0.9610   -1.6060 hc        1 VG6      0.089700
     49 H112        7.0120    0.0470   -0.4880 hc        1 VG6      0.089700
     50 H12         5.0830    2.7830    1.2400 h1        1 VG6      0.069700
     51 H13         6.4640    2.8410   -0.6150 ho        1 VG6      0.451000
     52 H151        5.7720    1.3280    3.1170 hx        1 VG6      0.128200
     53 H152        7.2440    0.7210    2.1790 hx        1 VG6      0.128200
     54 H17         4.2070   -0.1450   -2.8640 ha        1 VG6      0.129500
     55 H21         6.4480   -2.3150    0.1440 ha        1 VG6      0.129500
     56 H16         8.0430    3.0180    2.1550 hn        1 VG6      0.463300
     57 H591        8.5760    3.2450    4.5820 hx        1 VG6      0.117700
     58 H592        7.5070    1.7700    4.8220 hx        1 VG6      0.117700
     59 H18         3.2640   -2.2870   -3.7040 ha        1 VG6      0.162500
     60 H19         3.9200   -4.4490   -2.6390 ha        1 VG6      0.168000
     61 H20         5.5150   -4.4580   -0.7150 ha        1 VG6      0.162500
     62 H391        0.4770    1.0790   -2.8660 h1        1 VG6      0.059700
     63 H392       -1.1790    1.2190   -3.6010 h1        1 VG6      0.059700
     64 H411       -0.0140    3.4020   -3.5880 hc        1 VG6      0.051367
     65 H412       -1.4740    3.4830   -2.5220 hc        1 VG6      0.051367
     66 H413        0.1740    3.3540   -1.7830 hc        1 VG6      0.051367
     67 H511       -0.4560    0.7530    4.8340 h1        1 VG6      0.052200
     68 H512       -0.1790   -1.0200    4.4890 h1        1 VG6      0.052200
     69 H491       -3.8500   -1.6100    4.6540 hc        1 VG6      0.106700
     70 H492       -4.1190    0.1500    5.0000 hc        1 VG6      0.106700
     71 H501       -1.8950   -1.5650    5.9580 hc        1 VG6      0.075700
     72 H502       -2.1640    0.1890    6.3040 hc        1 VG6      0.075700
     73 H64         8.6380   -0.2840    4.8910 ha        1 VG6      0.149000
     74 H68        10.3740    2.9700    2.5850 ha        1 VG6      0.150000
     75 H65        10.6390   -1.6820    4.4010 ha        1 VG6      0.176000
     76 H66        12.4890   -0.7800    2.9730 ha        1 VG6      0.188000
     77 H82         3.4140    0.0780   -0.4130 hn        1 VG6      0.471800
     78 H162        6.7960    3.4970    3.1560 hn        1 VG6      0.463300
@<TRIPOS>BOND
     1    1    2 ar  
     2    1    6 ar  
     3    1   22 1   
     4    2    3 ar  
     5    2   42 1   
     6    3    4 ar  
     7    3    7 1   
     8    4    5 ar  
     9    4   45 1   
    10    5    6 ar  
    11    5   25 1   
    12    6   43 1   
    13    7    8 1   
    14    7    9 2   
    15    8   10 1   
    16    8   46 1   
    17    8   77 1   
    18   10   11 1   
    19   10   12 1   
    20   10   47 1   
    21   11   14 1   
    22   11   48 1   
    23   11   49 1   
    24   12   13 1   
    25   12   15 1   
    26   12   50 1   
    27   13   51 1   
    28   14   17 ar  
    29   14   21 ar  
    30   15   16 1   
    31   15   52 1   
    32   15   53 1   
    33   16   31 1   
    34   16   56 1   
    35   16   78 1   
    36   17   18 ar  
    37   17   54 1   
    38   18   19 ar  
    39   18   59 1   
    40   19   20 ar  
    41   19   60 1   
    42   20   21 ar  
    43   20   61 1   
    44   21   55 1   
    45   22   23 1   
    46   22   44 1   
    47   23   24 1   
    48   23   62 1   
    49   23   63 1   
    50   24   64 1   
    51   24   65 1   
    52   24   66 1   
    53   25   26 1   
    54   25   29 1   
    55   26   27 1   
    56   26   30 2   
    57   27   28 1   
    58   27   69 1   
    59   27   70 1   
    60   28   29 1   
    61   28   71 1   
    62   28   72 1   
    63   29   67 1   
    64   29   68 1   
    65   31   32 1   
    66   31   57 1   
    67   31   58 1   
    68   32   33 ar  
    69   32   37 ar  
    70   33   34 ar  
    71   33   73 1   
    72   34   35 ar  
    73   34   75 1   
    74   35   36 ar  
    75   35   76 1   
    76   36   37 ar  
    77   36   38 1   
    78   37   74 1   
    79   38   39 1   
    80   38   40 1   
    81   38   41 1   
@<TRIPOS>SUBSTRUCTURE
     1 VG6         1 TEMP              0 ****  ****    0 ROOT
