@<TRIPOS>MOLECULE
VG6
   76    79     1     0     0
SMALL
bcc


@<TRIPOS>ATOM
      1 C1         30.0520   -2.2120   35.5720 ca        1 VG6      0.166600
      2 C2         29.8640   -1.1420   34.6700 ca        1 VG6     -0.191000
      3 C3         30.2200    0.1490   35.0520 ca        1 VG6     -0.081600
      4 C4         30.7600    0.4190   36.3070 ca        1 VG6     -0.175000
      5 C5         30.9430   -0.6350   37.2340 ca        1 VG6      0.115600
      6 C6         30.5780   -1.9420   36.8570 ca        1 VG6     -0.210000
      7 C7         30.0550    1.2960   34.1070 c         1 VG6      0.673700
      8 N8         28.8740    1.3530   33.3890 n         1 VG6     -0.553900
      9 O9         30.9160    2.1960   34.0060 o         1 VG6     -0.615100
     10 C10        28.7030    2.2470   32.2690 c3        1 VG6      0.075700
     11 C11        27.9740    1.5720   31.0900 c3        1 VG6     -0.057100
     12 C12        27.9170    3.5400   32.6320 c3        1 VG6      0.122100
     13 O13        27.8610    4.3830   31.4930 oh        1 VG6     -0.597800
     14 C14        28.7120    0.3870   30.5780 ca        1 VG6     -0.082300
     15 C15        28.5730    4.2590   33.8220 c3        1 VG6      0.120800
     16 N16        27.9800    5.5490   34.1170 n3        1 VG6     -0.813200
     17 C17        28.4140   -0.8950   31.0540 ca        1 VG6     -0.129000
     18 C18        29.1080   -2.0040   30.5730 ca        1 VG6     -0.125500
     19 C19        30.1050   -1.8430   29.6110 ca        1 VG6     -0.125000
     20 C20        30.4050   -0.5680   29.1300 ca        1 VG6     -0.125500
     21 C21        29.7130    0.5420   29.6110 ca        1 VG6     -0.129000
     22 N38        29.8210   -3.5490   35.2020 nh        1 VG6     -0.719600
     23 C39        28.8140   -3.8610   34.2180 c3        1 VG6      0.178800
     24 C41        27.3700   -3.5770   34.6040 c3        1 VG6     -0.134100
     25 N47        31.4780   -0.3610   38.5020 n         1 VG6     -0.387000
     26 C48        31.6170   -1.2410   39.5860 c         1 VG6      0.708500
     27 C49        32.3160   -0.5240   40.7370 c3        1 VG6     -0.158400
     28 C50        32.6060    0.8850   40.2380 c3        1 VG6     -0.095400
     29 C51        32.0250    0.9540   38.8120 c3        1 VG6      0.086000
     30 O58        31.2310   -2.4170   39.6250 o         1 VG6     -0.613500
     31 C59        28.8420    6.4420   34.8560 c3        1 VG6      0.205100
     32 C61        30.0080    7.0300   34.1080 ca        1 VG6     -0.134300
     33 C64        31.2570    6.3990   34.1260 ca        1 VG6     -0.090000
     34 C65        32.3360    6.9540   33.4380 ca        1 VG6     -0.135000
     35 C66        32.1790    8.1430   32.7270 ca        1 VG6     -0.082000
     36 C67        30.9310    8.7710   32.7090 ca        1 VG6     -0.171300
     37 C68        29.8470    8.2210   33.3940 ca        1 VG6     -0.076000
     38 C73        30.7490   10.0600   31.9190 c3        1 VG6      0.687200
     39 F74        29.7900   10.9080   32.4190 f         1 VG6     -0.237967
     40 F75        30.3730    9.8700   30.6100 f         1 VG6     -0.237967
     41 F76        31.8750   10.8420   31.8310 f         1 VG6     -0.237967
     42 H2         29.4700   -1.3290   33.6590 ha        1 VG6      0.141000
     43 H6         30.7140   -2.7750   37.5680 ha        1 VG6      0.173000
     44 H38        29.7850   -4.1620   35.9930 hn        1 VG6      0.398800
     45 H4         31.0460    1.4550   36.5420 ha        1 VG6      0.150000
     46 H8         28.2480    0.5830   33.4430 hn        1 VG6      0.312500
     47 H10        29.7320    2.5700   31.9160 h1        1 VG6      0.076700
     48 H111       26.9390    1.2760   31.4060 hc        1 VG6      0.068700
     49 H112       27.8670    2.3440   30.2790 hc        1 VG6      0.068700
     50 H12        26.8400    3.3020   32.8510 h1        1 VG6      0.088700
     51 H13        28.7650    4.6520   31.2860 ho        1 VG6      0.401000
     52 H151       28.4450    3.6230   34.7430 h1        1 VG6      0.053700
     53 H152       29.6840    4.3300   33.6170 h1        1 VG6      0.053700
     54 H17        27.6220   -1.0300   31.8060 ha        1 VG6      0.129000
     55 H21        29.9520    1.5460   29.2300 ha        1 VG6      0.129000
     56 H16        27.6490    5.9860   33.2740 hn        1 VG6      0.370800
     57 H591       28.1900    7.2860   35.2270 h1        1 VG6      0.061700
     58 H592       29.2330    5.8880   35.7580 h1        1 VG6      0.061700
     59 H18        28.8680   -3.0080   30.9520 ha        1 VG6      0.132500
     60 H19        30.6530   -2.7180   29.2330 ha        1 VG6      0.134000
     61 H20        31.1900   -0.4370   28.3710 ha        1 VG6      0.132500
     62 H391       29.0560   -3.3050   33.2670 h1        1 VG6      0.055200
     63 H392       28.9210   -4.9630   33.9970 h1        1 VG6      0.055200
     64 H411       27.0780   -4.1480   35.5170 hc        1 VG6      0.042367
     65 H412       27.2200   -2.4890   34.8050 hc        1 VG6      0.042367
     66 H413       26.6990   -3.8820   33.7660 hc        1 VG6      0.042367
     67 H511       32.8220    1.2220   38.0650 h1        1 VG6      0.057200
     68 H512       31.2090    1.7260   38.7560 h1        1 VG6      0.057200
     69 H491       31.6420   -0.5250   41.6290 hc        1 VG6      0.085200
     70 H492       33.2500   -1.0800   40.9980 hc        1 VG6      0.085200
     71 H501       32.1240    1.6530   40.8900 hc        1 VG6      0.060700
     72 H502       33.7040    1.0890   40.2180 hc        1 VG6      0.060700
     73 H64        31.3890    5.4570   34.6830 ha        1 VG6      0.151000
     74 H68        28.8700    8.7300   33.3760 ha        1 VG6      0.152000
     75 H65        33.3150    6.4520   33.4560 ha        1 VG6      0.145000
     76 H66        33.0280    8.5900   32.1880 ha        1 VG6      0.151000
@<TRIPOS>BOND
     1    1    2 ar  
     2    1    6 ar  
     3    1   22 1   
     4    2    3 ar  
     5    2   42 1   
     6    3    4 ar  
     7    3    7 1   
     8    4    5 ar  
     9    4   45 1   
    10    5    6 ar  
    11    5   25 1   
    12    6   43 1   
    13    7    8 1   
    14    7    9 2   
    15    8   10 1   
    16    8   46 1   
    17   10   11 1   
    18   10   12 1   
    19   10   47 1   
    20   11   14 1   
    21   11   48 1   
    22   11   49 1   
    23   12   13 1   
    24   12   15 1   
    25   12   50 1   
    26   13   51 1   
    27   14   17 ar  
    28   14   21 ar  
    29   15   16 1   
    30   15   52 1   
    31   15   53 1   
    32   16   31 1   
    33   16   56 1   
    34   17   18 ar  
    35   17   54 1   
    36   18   19 ar  
    37   18   59 1   
    38   19   20 ar  
    39   19   60 1   
    40   20   21 ar  
    41   20   61 1   
    42   21   55 1   
    43   22   23 1   
    44   22   44 1   
    45   23   24 1   
    46   23   62 1   
    47   23   63 1   
    48   24   64 1   
    49   24   65 1   
    50   24   66 1   
    51   25   26 1   
    52   25   29 1   
    53   26   27 1   
    54   26   30 2   
    55   27   28 1   
    56   27   69 1   
    57   27   70 1   
    58   28   29 1   
    59   28   71 1   
    60   28   72 1   
    61   29   67 1   
    62   29   68 1   
    63   31   32 1   
    64   31   57 1   
    65   31   58 1   
    66   32   33 ar  
    67   32   37 ar  
    68   33   34 ar  
    69   33   73 1   
    70   34   35 ar  
    71   34   75 1   
    72   35   36 ar  
    73   35   76 1   
    74   36   37 ar  
    75   36   38 1   
    76   37   74 1   
    77   38   39 1   
    78   38   40 1   
    79   38   41 1   
@<TRIPOS>SUBSTRUCTURE
     1 VG6         1 TEMP              0 ****  ****    0 ROOT
