@<TRIPOS>MOLECULE
VG7
   76    79     1     0     0
SMALL
bcc


@<TRIPOS>ATOM
      1 C1         30.5400   -2.0860   35.7960 ca        1 VG7      0.167600
      2 C2         30.3950   -1.0460   34.8530 ca        1 VG7     -0.192000
      3 C3         30.9560    0.2020   35.1130 ca        1 VG7     -0.079600
      4 C4         31.6610    0.4550   36.2870 ca        1 VG7     -0.177000
      5 C5         31.8030   -0.5660   37.2560 ca        1 VG7      0.113600
      6 C6         31.2320   -1.8270   37.0030 ca        1 VG7     -0.210000
      7 C7         30.8430    1.3200   34.1260 c         1 VG7      0.672700
      8 N8         29.6090    1.5130   33.5330 n         1 VG7     -0.562900
      9 O9         31.8030    2.0810   33.8870 o         1 VG7     -0.608100
     10 C10        29.4060    2.4660   32.4690 c3        1 VG7      0.105700
     11 C11        28.5370    1.9050   31.3280 c3        1 VG7     -0.055100
     12 C12        28.7340    3.7800   32.9730 c3        1 VG7      0.132100
     13 O13        28.6800    4.6300   31.8330 oh        1 VG7     -0.607800
     14 C14        29.1130    0.6890   30.6960 ca        1 VG7     -0.082300
     15 C15        29.5680    4.4130   34.1020 c3        1 VG7      0.125800
     16 C17        28.3960   -0.5130   30.6950 ca        1 VG7     -0.128000
     17 C18        28.9230   -1.6470   30.0770 ca        1 VG7     -0.128000
     18 C19        30.1700   -1.5900   29.4560 ca        1 VG7     -0.130000
     19 C20        30.8880   -0.3940   29.4510 ca        1 VG7     -0.128000
     20 C21        30.3620    0.7410   30.0650 ca        1 VG7     -0.128000
     21 N38        30.1000   -3.3960   35.5400 nh        1 VG7     -0.721600
     22 C39        29.0260   -3.6310   34.6080 c3        1 VG7      0.180800
     23 C41        27.6550   -3.0940   34.9940 c3        1 VG7     -0.133100
     24 N47        32.5040   -0.3050   38.4440 n         1 VG7     -0.387000
     25 C48        32.6320   -1.1350   39.5680 c         1 VG7      0.707500
     26 C49        33.5610   -0.4770   40.5830 c3        1 VG7     -0.158400
     27 C50        34.0080    0.8360   39.9530 c3        1 VG7     -0.095400
     28 C51        33.2800    0.9190   38.5960 c3        1 VG7      0.086000
     29 O58        32.0750   -2.2280   39.7340 o         1 VG7     -0.614500
     30 N16        29.1620    5.7710   34.4100 n3        1 VG7     -0.826200
     31 C59        29.8570    6.3260   35.5720 c3        1 VG7      0.179500
     32 C61        29.2720    5.7840   36.8900 c3        1 VG7     -0.075900
     33 C62        29.5320    6.7190   38.0540 c3        1 VG7     -0.075400
     34 C63        30.8090    7.5110   37.8770 c3        1 VG7     -0.077400
     35 C64        30.7390    8.4100   36.6580 c3        1 VG7     -0.075400
     36 C65        29.8130    7.8610   35.5890 c3        1 VG7     -0.075900
     37 H2         29.8680   -1.2250   33.9040 ha        1 VG7      0.141000
     38 H6         31.3320   -2.6350   37.7490 ha        1 VG7      0.172000
     39 H38        30.0140   -3.9410   36.3760 hn        1 VG7      0.399800
     40 H4         32.1080    1.4520   36.4250 ha        1 VG7      0.152000
     41 H8         28.8860    0.8550   33.6990 hn        1 VG7      0.312500
     42 H10        30.4180    2.7520   32.0470 h1        1 VG7      0.096700
     43 H111       27.5040    1.6930   31.7120 hc        1 VG7      0.065700
     44 H112       28.4470    2.7180   30.5550 hc        1 VG7      0.065700
     45 H12        27.6920    3.5660   33.3390 h1        1 VG7      0.040700
     46 H13        28.0240    5.3100   32.0230 ho        1 VG7      0.410000
     47 H151       29.4230    3.7930   35.0310 h1        1 VG7      0.052700
     48 H152       30.6600    4.3420   33.8170 h1        1 VG7      0.052700
     49 H17        27.4090   -0.5640   31.1770 ha        1 VG7      0.133000
     50 H21        30.9300    1.6840   30.0580 ha        1 VG7      0.133000
     51 H16        29.3190    6.3600   33.6120 hn        1 VG7      0.355800
     52 H18        28.3510   -2.5860   30.0770 ha        1 VG7      0.131500
     53 H19        30.5850   -2.4840   28.9700 ha        1 VG7      0.132000
     54 H20        31.8720   -0.3450   28.9630 ha        1 VG7      0.131500
     55 H391       29.3210   -3.2020   33.6090 h1        1 VG7      0.056200
     56 H392       28.9540   -4.7500   34.4840 h1        1 VG7      0.056200
     57 H411       27.3060   -3.5350   35.9580 hc        1 VG7      0.041700
     58 H412       27.6810   -1.9830   35.1030 hc        1 VG7      0.041700
     59 H413       26.9200   -3.3570   34.1970 hc        1 VG7      0.041700
     60 H511       34.0140    1.0160   37.7510 h1        1 VG7      0.057700
     61 H512       32.5920    1.8090   38.5740 h1        1 VG7      0.057700
     62 H491       33.0020   -0.3180   41.5380 hc        1 VG7      0.084200
     63 H492       34.4200   -1.1620   40.7860 hc        1 VG7      0.084200
     64 H501       33.7330    1.7080   40.5940 hc        1 VG7      0.060200
     65 H502       35.1140    0.8540   39.8000 hc        1 VG7      0.060200
     66 H59        30.9540    6.0290   35.5490 h1        1 VG7      0.025700
     67 H611       28.1670    5.6240   36.7920 hc        1 VG7      0.044700
     68 H612       29.7350    4.7830   37.0970 hc        1 VG7      0.044700
     69 H651       30.1180    8.2750   34.5930 hc        1 VG7      0.044700
     70 H652       28.7620    8.1960   35.7850 hc        1 VG7      0.044700
     71 H621       28.6720    7.4320   38.1610 hc        1 VG7      0.039200
     72 H622       29.5880    6.1230   39.0030 hc        1 VG7      0.039200
     73 H631       30.9990    8.1310   38.7920 hc        1 VG7      0.038700
     74 H632       31.6720    6.8010   37.7730 hc        1 VG7      0.038700
     75 H641       30.3780    9.4290   36.9570 hc        1 VG7      0.039200
     76 H642       31.7700    8.5370   36.2360 hc        1 VG7      0.039200
@<TRIPOS>BOND
     1    1    2 ar  
     2    1    6 ar  
     3    1   21 1   
     4    2    3 ar  
     5    2   37 1   
     6    3    4 ar  
     7    3    7 1   
     8    4    5 ar  
     9    4   40 1   
    10    5    6 ar  
    11    5   24 1   
    12    6   38 1   
    13    7    8 1   
    14    7    9 2   
    15    8   10 1   
    16    8   41 1   
    17   10   11 1   
    18   10   12 1   
    19   10   42 1   
    20   11   14 1   
    21   11   43 1   
    22   11   44 1   
    23   12   13 1   
    24   12   15 1   
    25   12   45 1   
    26   13   46 1   
    27   14   16 ar  
    28   14   20 ar  
    29   15   30 1   
    30   15   47 1   
    31   15   48 1   
    32   16   17 ar  
    33   16   49 1   
    34   17   18 ar  
    35   17   52 1   
    36   18   19 ar  
    37   18   53 1   
    38   19   20 ar  
    39   19   54 1   
    40   20   50 1   
    41   21   22 1   
    42   21   39 1   
    43   22   23 1   
    44   22   55 1   
    45   22   56 1   
    46   23   57 1   
    47   23   58 1   
    48   23   59 1   
    49   24   25 1   
    50   24   28 1   
    51   25   26 1   
    52   25   29 2   
    53   26   27 1   
    54   26   62 1   
    55   26   63 1   
    56   27   28 1   
    57   27   64 1   
    58   27   65 1   
    59   28   60 1   
    60   28   61 1   
    61   30   31 1   
    62   30   51 1   
    63   31   32 1   
    64   31   36 1   
    65   31   66 1   
    66   32   33 1   
    67   32   67 1   
    68   32   68 1   
    69   33   34 1   
    70   33   71 1   
    71   33   72 1   
    72   34   35 1   
    73   34   73 1   
    74   34   74 1   
    75   35   36 1   
    76   35   75 1   
    77   35   76 1   
    78   36   69 1   
    79   36   70 1   
@<TRIPOS>SUBSTRUCTURE
     1 VG7         1 TEMP              0 ****  ****    0 ROOT
