@<TRIPOS>MOLECULE
VG7
   79    82     1     0     0
SMALL
bcc


@<TRIPOS>ATOM
      1 C1         -0.6990    1.0190   -0.6450 ca        1 VG7      0.025600
      2 C2          0.6020    1.3200   -0.2080 ca        1 VG7     -0.162000
      3 C3          0.9250    1.0200    1.1210 ca        1 VG7     -0.123600
      4 C4          0.0060    0.4200    1.9840 ca        1 VG7     -0.114000
      5 C5         -1.3050    0.0750    1.5380 ca        1 VG7      0.172600
      6 C6         -1.6380    0.4100    0.1930 ca        1 VG7     -0.137000
      7 C7          2.2250    1.3770    1.7220 c         1 VG7      0.572700
      8 N8          3.4430    1.3170    0.8310 n4        1 VG7     -0.680800
      9 O9          2.4270    1.7030    2.8850 o         1 VG7     -0.422100
     10 C10         4.7490    1.1260    1.5700 c3        1 VG7      0.138500
     11 C11         5.7920    0.4940    0.6310 c3        1 VG7     -0.054100
     12 C12         5.2520    2.4670    2.1820 c3        1 VG7      0.101100
     13 O13         5.2110    3.4430    1.1560 oh        1 VG7     -0.606800
     14 C14         5.2600   -0.6860   -0.1030 ca        1 VG7     -0.193300
     15 C15         6.7050    2.3020    2.6750 c3        1 VG7      0.074800
     16 C17         4.9950   -0.5960   -1.4760 ca        1 VG7     -0.130500
     17 C18         4.5990   -1.7280   -2.1870 ca        1 VG7     -0.113000
     18 C19         4.4640   -2.9550   -1.5340 ca        1 VG7     -0.082000
     19 C20         4.7210   -3.0470   -0.1640 ca        1 VG7     -0.113000
     20 C21         5.1210   -1.9180    0.5490 ca        1 VG7     -0.130500
     21 N38        -1.1200    1.3700   -2.0080 n4        1 VG7     -0.647400
     22 C39        -1.3360    0.1600   -2.8820 c3        1 VG7      0.116800
     23 C41        -1.8270    0.5410   -4.2600 c3        1 VG7     -0.148100
     24 N47        -2.2000   -0.5400    2.3770 n         1 VG7     -0.382000
     25 C48        -3.5210   -1.0090    2.0490 c         1 VG7      0.724500
     26 C49        -4.1660   -1.5930    3.2860 c3        1 VG7     -0.147400
     27 C50        -3.1470   -1.4540    4.4100 c3        1 VG7     -0.093400
     28 C51        -1.9020   -0.7930    3.7880 c3        1 VG7      0.071000
     29 O58        -3.9930   -0.9260    0.9150 o         1 VG7     -0.569500
     30 N16         7.2260    3.4920    3.3940 n4        1 VG7     -0.771000
     31 C59         8.6600    3.2940    3.8760 c3        1 VG7      0.131500
     32 C61         8.7310    2.2830    5.0250 c3        1 VG7     -0.099400
     33 C62         9.9870    2.5020    5.8560 c3        1 VG7     -0.080900
     34 C63        11.1170    3.0890    5.0420 c3        1 VG7     -0.095400
     35 C64        10.7660    4.4580    4.4960 c3        1 VG7     -0.080900
     36 C65         9.2700    4.6360    4.2910 c3        1 VG7     -0.099400
     37 H2          1.3250    1.8070   -0.8780 ha        1 VG7      0.142000
     38 H6         -2.6610    0.1940   -0.1830 ha        1 VG7      0.219000
     39 H38        -2.0080    1.8950   -1.9510 hn        1 VG7      0.464800
     40 H4          0.3010    0.2250    3.0320 ha        1 VG7      0.185000
     41 H8          3.5100    2.1910    0.2900 hn        1 VG7      0.481300
     42 H10         4.5390    0.4150    2.4250 hx        1 VG7      0.123700
     43 H111        6.6570    0.1590    1.2680 hc        1 VG7      0.094200
     44 H112        6.1680    1.2720   -0.0880 hc        1 VG7      0.094200
     45 H12         4.5730    2.7440    3.0410 h1        1 VG7      0.092700
     46 H13         4.9460    4.2910    1.5420 ho        1 VG7      0.445000
     47 H151        6.7700    1.4150    3.3690 hx        1 VG7      0.129700
     48 H152        7.3820    2.1290    1.7840 hx        1 VG7      0.129700
     49 H17         5.1560    0.3530   -2.0110 ha        1 VG7      0.137500
     50 H21         5.3610   -2.0080    1.6200 ha        1 VG7      0.137500
     51 H16         6.6380    3.7000    4.2090 hn        1 VG7      0.451300
     52 H18         4.4270   -1.6620   -3.2740 ha        1 VG7      0.168000
     53 H19         4.1780   -3.8560   -2.1030 ha        1 VG7      0.174000
     54 H20         4.6360   -4.0200    0.3490 ha        1 VG7      0.168000
     55 H391       -0.3540   -0.3900   -2.9450 hx        1 VG7      0.111700
     56 H392       -2.0900   -0.5010   -2.3630 hx        1 VG7      0.111700
     57 H411       -2.8120    1.0700   -4.2240 hc        1 VG7      0.093700
     58 H412       -1.0900    1.1760   -4.8090 hc        1 VG7      0.093700
     59 H413       -1.9710   -0.4070   -4.8450 hc        1 VG7      0.093700
     60 H511       -1.6670    0.1780    4.3050 h1        1 VG7      0.066700
     61 H512       -1.0110   -1.4760    3.8670 h1        1 VG7      0.066700
     62 H491       -4.4360   -2.6630    3.0870 hc        1 VG7      0.124200
     63 H492       -5.1140   -1.0330    3.5020 hc        1 VG7      0.124200
     64 H501       -3.5470   -0.8200    5.2410 hc        1 VG7      0.093200
     65 H502       -2.8810   -2.4530    4.8390 hc        1 VG7      0.093200
     66 H59         9.2340    2.8940    2.9860 hx        1 VG7      0.112700
     67 H611        7.8390    2.3670    5.7020 hc        1 VG7      0.063200
     68 H612        8.7390    1.2460    4.5960 hc        1 VG7      0.063200
     69 H651        8.7970    4.9870    5.2470 hc        1 VG7      0.063200
     70 H652        9.0990    5.4220    3.5090 hc        1 VG7      0.063200
     71 H621        9.7520    3.1860    6.7150 hc        1 VG7      0.080950
     72 H622       10.3050    1.5170    6.2930 hc        1 VG7      0.080950
     73 H631       12.0340    3.1700    5.6880 hc        1 VG7      0.074200
     74 H632       11.3760    2.3940    4.2000 hc        1 VG7      0.074200
     75 H641       11.1160    5.2570    5.2050 hc        1 VG7      0.080950
     76 H642       11.3060    4.6230    3.5260 hc        1 VG7      0.080950
     77 H82         3.3400    0.5270    0.1670 hn        1 VG7      0.481300
     78 H382       -0.4200    1.9810   -2.4450 hn        1 VG7      0.464800
     79 H162        7.2100    4.3050    2.7650 hn        1 VG7      0.451300
@<TRIPOS>BOND
     1    1    2 ar  
     2    1    6 ar  
     3    1   21 1   
     4    2    3 ar  
     5    2   37 1   
     6    3    4 ar  
     7    3    7 1   
     8    4    5 ar  
     9    4   40 1   
    10    5    6 ar  
    11    5   24 1   
    12    6   38 1   
    13    7    8 1   
    14    7    9 2   
    15    8   10 1   
    16    8   41 1   
    17    8   77 1   
    18   10   11 1   
    19   10   12 1   
    20   10   42 1   
    21   11   14 1   
    22   11   43 1   
    23   11   44 1   
    24   12   13 1   
    25   12   15 1   
    26   12   45 1   
    27   13   46 1   
    28   14   16 ar  
    29   14   20 ar  
    30   15   30 1   
    31   15   47 1   
    32   15   48 1   
    33   16   17 ar  
    34   16   49 1   
    35   17   18 ar  
    36   17   52 1   
    37   18   19 ar  
    38   18   53 1   
    39   19   20 ar  
    40   19   54 1   
    41   20   50 1   
    42   21   22 1   
    43   21   39 1   
    44   21   78 1   
    45   22   23 1   
    46   22   55 1   
    47   22   56 1   
    48   23   57 1   
    49   23   58 1   
    50   23   59 1   
    51   24   25 1   
    52   24   28 1   
    53   25   26 1   
    54   25   29 2   
    55   26   27 1   
    56   26   62 1   
    57   26   63 1   
    58   27   28 1   
    59   27   64 1   
    60   27   65 1   
    61   28   60 1   
    62   28   61 1   
    63   30   31 1   
    64   30   51 1   
    65   30   79 1   
    66   31   32 1   
    67   31   36 1   
    68   31   66 1   
    69   32   33 1   
    70   32   67 1   
    71   32   68 1   
    72   33   34 1   
    73   33   71 1   
    74   33   72 1   
    75   34   35 1   
    76   34   73 1   
    77   34   74 1   
    78   35   36 1   
    79   35   75 1   
    80   35   76 1   
    81   36   69 1   
    82   36   70 1   
@<TRIPOS>SUBSTRUCTURE
     1 VG7         1 TEMP              0 ****  ****    0 ROOT
