@<TRIPOS>MOLECULE
VG7
   78    81     1     0     0
SMALL
bcc


@<TRIPOS>ATOM
      1 C1         -0.6780    0.5080   -0.3790 ca        1 VG7      0.232600
      2 C2          0.6740    0.8860   -0.2160 ca        1 VG7     -0.243000
      3 C3          1.2730    0.7590    1.0440 ca        1 VG7     -0.134600
      4 C4          0.5650    0.3060    2.1590 ca        1 VG7     -0.153000
      5 C5         -0.8050   -0.0620    2.0260 ca        1 VG7      0.151600
      6 C6         -1.4000    0.0420    0.7550 ca        1 VG7     -0.182000
      7 C7          2.6740    1.0940    1.2700 c         1 VG7      0.596700
      8 N8          3.5660    1.0770    0.0300 n4        1 VG7     -0.687800
      9 O9          3.2570    1.3630    2.3160 o         1 VG7     -0.496100
     10 C10         5.0370    1.0460    0.3240 c3        1 VG7      0.092500
     11 C11         5.8250    0.6070   -0.9240 c3        1 VG7     -0.043100
     12 C12         5.5710    2.3900    0.8930 c3        1 VG7      0.121100
     13 O13         6.4980    3.0150    0.0300 oh        1 VG7     -0.599800
     14 C14         5.3810   -0.7310   -1.3950 ca        1 VG7     -0.172300
     15 C15         6.3530    2.0880    2.1940 c3        1 VG7      0.103800
     16 C17         4.4790   -0.8360   -2.4630 ca        1 VG7     -0.132500
     17 C18         4.0930   -2.0900   -2.9330 ca        1 VG7     -0.106000
     18 C19         4.6050   -3.2470   -2.3420 ca        1 VG7     -0.086000
     19 C20         5.5070   -3.1470   -1.2820 ca        1 VG7     -0.106000
     20 C21         5.8960   -1.8930   -0.8100 ca        1 VG7     -0.132500
     21 N38        -1.3010    0.4980   -1.6150 nh        1 VG7     -0.737600
     22 C39        -0.8050    1.2350   -2.7480 c3        1 VG7      0.195800
     23 C41        -0.8960    2.7500   -2.6570 c3        1 VG7     -0.134100
     24 N47        -1.5140   -0.5080    3.1350 n         1 VG7     -0.397000
     25 C48        -2.8810   -0.8920    3.1900 c         1 VG7      0.715500
     26 C49        -3.2320   -1.3070    4.6080 c3        1 VG7     -0.152400
     27 C50        -1.9600   -1.1400    5.4270 c3        1 VG7     -0.093400
     28 C51        -0.8870   -0.6230    4.4480 c3        1 VG7      0.082000
     29 O58        -3.6480   -0.8820    2.2240 o         1 VG7     -0.576500
     30 N16         7.0710    3.2770    2.7240 n4        1 VG7     -0.762000
     31 C59         7.8980    2.9550    3.9530 c3        1 VG7      0.128500
     32 C61         7.0130    2.6140    5.1570 c3        1 VG7     -0.098400
     33 C62         7.7600    2.8470    6.4600 c3        1 VG7     -0.080400
     34 C63         9.2530    2.6650    6.3050 c3        1 VG7     -0.093400
     35 C64         9.8440    3.6650    5.3310 c3        1 VG7     -0.080400
     36 C65         8.8400    4.1180    4.2830 c3        1 VG7     -0.098400
     37 H2          1.2160    1.3060   -1.0730 ha        1 VG7      0.121000
     38 H6         -2.4620   -0.2450    0.6200 ha        1 VG7      0.204000
     39 H38        -2.2930    0.3740   -1.5920 hn        1 VG7      0.444800
     40 H4          1.0770    0.2400    3.1320 ha        1 VG7      0.158000
     41 H8          3.3340    0.2290   -0.5210 hn        1 VG7      0.471300
     42 H10         5.1650    0.2410    1.1140 hx        1 VG7      0.121700
     43 H111        6.9120    0.5840   -0.6360 hc        1 VG7      0.088700
     44 H112        5.7180    1.3670   -1.7440 hc        1 VG7      0.088700
     45 H12         4.7220    3.0970    1.1240 h1        1 VG7      0.069700
     46 H13         6.0360    3.3160   -0.7640 ho        1 VG7      0.450000
     47 H151        7.1200    1.2860    1.9880 hx        1 VG7      0.125200
     48 H152        5.6240    1.7230    2.9770 hx        1 VG7      0.125200
     49 H17         4.1090    0.0700   -2.9680 ha        1 VG7      0.129500
     50 H21         6.6270   -1.8210    0.0100 ha        1 VG7      0.129500
     51 H16         6.3950    4.0110    2.9600 hn        1 VG7      0.458800
     52 H18         3.3960   -2.1680   -3.7830 ha        1 VG7      0.163000
     53 H19         4.3070   -4.2380   -2.7220 ha        1 VG7      0.168000
     54 H20         5.9240   -4.0590   -0.8260 ha        1 VG7      0.163000
     55 H391        0.2670    0.9360   -2.9290 h1        1 VG7      0.059700
     56 H392       -1.4040    0.8870   -3.6410 h1        1 VG7      0.059700
     57 H411       -1.9540    3.0820   -2.5200 hc        1 VG7      0.051033
     58 H412       -0.2920    3.1410   -1.8040 hc        1 VG7      0.051033
     59 H413       -0.5100    3.1950   -3.6060 hc        1 VG7      0.051033
     60 H511       -0.0220   -1.3390    4.3950 h1        1 VG7      0.052200
     61 H512       -0.5040    0.3820    4.7770 h1        1 VG7      0.052200
     62 H491       -3.5940   -2.3670    4.5980 hc        1 VG7      0.106200
     63 H492       -4.0650   -0.6580    4.9810 hc        1 VG7      0.106200
     64 H501       -2.1080   -0.4090    6.2590 hc        1 VG7      0.075700
     65 H502       -1.6380   -2.1120    5.8750 hc        1 VG7      0.075700
     66 H59         8.5240    2.0510    3.6820 hx        1 VG7      0.108700
     67 H611        6.0780    3.2360    5.1660 hc        1 VG7      0.063700
     68 H612        6.7040    1.5380    5.0850 hc        1 VG7      0.063700
     69 H651        8.2450    4.9840    4.6780 hc        1 VG7      0.063700
     70 H652        9.3930    4.4640    3.3710 hc        1 VG7      0.063700
     71 H621        7.3690    2.1330    7.2330 hc        1 VG7      0.075700
     72 H622        7.5510    3.8860    6.8310 hc        1 VG7      0.075700
     73 H631        9.7470    2.7850    7.3070 hc        1 VG7      0.069200
     74 H632        9.4700    1.6200    5.9590 hc        1 VG7      0.069200
     75 H641       10.7390    3.2120    4.8290 hc        1 VG7      0.075700
     76 H642       10.2040    4.5740    5.8830 hc        1 VG7      0.075700
     77 H82         3.3390    1.8930   -0.5460 hn        1 VG7      0.471300
     78 H162        7.6940    3.6420    1.9880 hn        1 VG7      0.458800
@<TRIPOS>BOND
     1    1    2 ar  
     2    1    6 ar  
     3    1   21 1   
     4    2    3 ar  
     5    2   37 1   
     6    3    4 ar  
     7    3    7 1   
     8    4    5 ar  
     9    4   40 1   
    10    5    6 ar  
    11    5   24 1   
    12    6   38 1   
    13    7    8 1   
    14    7    9 2   
    15    8   10 1   
    16    8   41 1   
    17    8   77 1   
    18   10   11 1   
    19   10   12 1   
    20   10   42 1   
    21   11   14 1   
    22   11   43 1   
    23   11   44 1   
    24   12   13 1   
    25   12   15 1   
    26   12   45 1   
    27   13   46 1   
    28   14   16 ar  
    29   14   20 ar  
    30   15   30 1   
    31   15   47 1   
    32   15   48 1   
    33   16   17 ar  
    34   16   49 1   
    35   17   18 ar  
    36   17   52 1   
    37   18   19 ar  
    38   18   53 1   
    39   19   20 ar  
    40   19   54 1   
    41   20   50 1   
    42   21   22 1   
    43   21   39 1   
    44   22   23 1   
    45   22   55 1   
    46   22   56 1   
    47   23   57 1   
    48   23   58 1   
    49   23   59 1   
    50   24   25 1   
    51   24   28 1   
    52   25   26 1   
    53   25   29 2   
    54   26   27 1   
    55   26   62 1   
    56   26   63 1   
    57   27   28 1   
    58   27   64 1   
    59   27   65 1   
    60   28   60 1   
    61   28   61 1   
    62   30   31 1   
    63   30   51 1   
    64   30   78 1   
    65   31   32 1   
    66   31   36 1   
    67   31   66 1   
    68   32   33 1   
    69   32   67 1   
    70   32   68 1   
    71   33   34 1   
    72   33   71 1   
    73   33   72 1   
    74   34   35 1   
    75   34   73 1   
    76   34   74 1   
    77   35   36 1   
    78   35   75 1   
    79   35   76 1   
    80   36   69 1   
    81   36   70 1   
@<TRIPOS>SUBSTRUCTURE
     1 VG7         1 TEMP              0 ****  ****    0 ROOT
