@<TRIPOS>MOLECULE
VG7
   78    81     1     0     0
SMALL
bcc


@<TRIPOS>ATOM
      1 C1         -0.6800    0.4840   -0.3630 ca        1 VG7      0.232600
      2 C2          0.6720    0.8670   -0.2070 ca        1 VG7     -0.243000
      3 C3          1.2760    0.7470    1.0510 ca        1 VG7     -0.134600
      4 C4          0.5740    0.2980    2.1710 ca        1 VG7     -0.153000
      5 C5         -0.7950   -0.0760    2.0450 ca        1 VG7      0.152600
      6 C6         -1.3950    0.0210    0.7760 ca        1 VG7     -0.182000
      7 C7          2.6780    1.0870    1.2700 c         1 VG7      0.596700
      8 N8          3.5640    1.0660    0.0260 ny        1 VG7     -0.687800
      9 O9          3.2640    1.3650    2.3120 o         1 VG7     -0.496100
     10 C10         5.0370    1.0410    0.3140 c3        1 VG7      0.092500
     11 C11         5.8210    0.5960   -0.9340 c3        1 VG7     -0.043100
     12 C12         5.5680    2.3900    0.8720 c3        1 VG7      0.121100
     13 O13         6.4960    3.0100    0.0050 oh        1 VG7     -0.599800
     14 C14         5.3790   -0.7460   -1.3950 ca        1 VG7     -0.172300
     15 C15         6.3510    2.1000    2.1760 c3        1 VG7      0.103800
     16 C17         4.4720   -0.8600   -2.4580 ca        1 VG7     -0.132500
     17 C18         4.0890   -2.1180   -2.9180 ca        1 VG7     -0.106000
     18 C19         4.6070   -3.2700   -2.3220 ca        1 VG7     -0.086000
     19 C20         5.5140   -3.1600   -1.2670 ca        1 VG7     -0.106000
     20 C21         5.9010   -1.9030   -0.8050 ca        1 VG7     -0.132500
     21 N38        -1.3080    0.4670   -1.5960 nu        1 VG7     -0.737600
     22 C39        -0.8190    1.2010   -2.7340 c3        1 VG7      0.195800
     23 C41        -0.9150    2.7160   -2.6490 c3        1 VG7     -0.134100
     24 N47        -1.4980   -0.5180    3.1590 n         1 VG7     -0.397000
     25 C48        -2.8640   -0.9050    3.2210 c         1 VG7      0.715500
     26 C49        -3.2080   -1.3160    4.6420 c3        1 VG7     -0.152400
     27 C50        -1.9320   -1.1440    5.4550 c3        1 VG7     -0.093400
     28 C51        -0.8650   -0.6270    4.4700 c3        1 VG7      0.082000
     29 O58        -3.6350   -0.9000    2.2590 o         1 VG7     -0.576500
     30 N16         7.0660    3.2950    2.6960 ny        1 VG7     -0.762000
     31 C59         7.8920    2.9860    3.9300 c3        1 VG7      0.128500
     32 C61         7.0050    2.6550    5.1360 c3        1 VG7     -0.098400
     33 C62         7.7500    2.9010    6.4380 c3        1 VG7     -0.080400
     34 C63         9.2440    2.7200    6.2870 c3        1 VG7     -0.093400
     35 C64         9.8350    3.7110    5.3040 c3        1 VG7     -0.080400
     36 C65         8.8320    4.1530    4.2510 c3        1 VG7     -0.098400
     37 H2          1.2090    1.2840   -1.0690 ha        1 VG7      0.121000
     38 H6         -2.4570   -0.2700    0.6470 ha        1 VG7      0.204000
     39 H38        -2.2990    0.3400   -1.5690 hn        1 VG7      0.444800
     40 H4          1.0910    0.2370    3.1420 ha        1 VG7      0.158000
     41 H8          3.3330    0.2130   -0.5180 hn        1 VG7      0.471300
     42 H10         5.1700    0.2410    1.1090 hx        1 VG7      0.121700
     43 H111        5.7080    1.3500   -1.7580 hc        1 VG7      0.088700
     44 H112        6.9100    0.5790   -0.6500 hc        1 VG7      0.088700
     45 H12         4.7180    3.0980    1.0970 h1        1 VG7      0.069700
     46 H13         6.0340    3.3030   -0.7930 ho        1 VG7      0.450000
     47 H151        5.6220    1.7410    2.9620 hx        1 VG7      0.125200
     48 H152        7.1200    1.2990    1.9770 hx        1 VG7      0.125200
     49 H17         4.0970    0.0410   -2.9660 ha        1 VG7      0.129500
     50 H21         6.6350   -1.8230    0.0110 ha        1 VG7      0.129500
     51 H16         7.6900    3.6550    1.9590 hn        1 VG7      0.458800
     52 H18         3.3880   -2.2050   -3.7650 ha        1 VG7      0.163000
     53 H19         4.3110   -4.2650   -2.6950 ha        1 VG7      0.168000
     54 H20         5.9360   -4.0680   -0.8070 ha        1 VG7      0.163000
     55 H391       -1.4210    0.8470   -3.6230 h1        1 VG7      0.059700
     56 H392        0.2540    0.9050   -2.9190 h1        1 VG7      0.059700
     57 H411       -0.3080    3.1130   -1.8000 hc        1 VG7      0.051367
     58 H412       -1.9730    3.0450   -2.5090 hc        1 VG7      0.051367
     59 H413       -0.5340    3.1580   -3.6020 hc        1 VG7      0.051367
     60 H511       -0.4830    0.3790    4.7930 h1        1 VG7      0.052200
     61 H512        0.0020   -1.3420    4.4150 h1        1 VG7      0.052200
     62 H491       -3.5670   -2.3760    4.6380 hc        1 VG7      0.106700
     63 H492       -4.0400   -0.6670    5.0180 hc        1 VG7      0.106700
     64 H501       -2.0780   -0.4100    6.2860 hc        1 VG7      0.075700
     65 H502       -1.6060   -2.1140    5.9050 hc        1 VG7      0.075700
     66 H59         8.5190    2.0800    3.6670 hx        1 VG7      0.108700
     67 H611        6.6980    1.5770    5.0730 hc        1 VG7      0.063700
     68 H612        6.0690    3.2750    5.1370 hc        1 VG7      0.063700
     69 H651        8.2350    5.0210    4.6370 hc        1 VG7      0.063700
     70 H652        9.3860    4.4920    3.3360 hc        1 VG7      0.063700
     71 H621        7.3590    2.1940    7.2170 hc        1 VG7      0.075700
     72 H622        7.5380    3.9430    6.7980 hc        1 VG7      0.075700
     73 H631        9.4630    1.6710    5.9510 hc        1 VG7      0.069200
     74 H632        9.7360    2.8500    7.2880 hc        1 VG7      0.069200
     75 H641       10.1920    4.6260    5.8480 hc        1 VG7      0.075700
     76 H642       10.7310    3.2540    4.8070 hc        1 VG7      0.075700
     77 H82         3.3320    1.8770   -0.5540 hn        1 VG7      0.471300
     78 H162        6.3890    4.0310    2.9260 hn        1 VG7      0.458800
@<TRIPOS>BOND
     1    1    2 ar  
     2    1    6 ar  
     3    1   21 1   
     4    2    3 ar  
     5    2   37 1   
     6    3    4 ar  
     7    3    7 1   
     8    4    5 ar  
     9    4   40 1   
    10    5    6 ar  
    11    5   24 1   
    12    6   38 1   
    13    7    8 1   
    14    7    9 2   
    15    8   10 1   
    16    8   41 1   
    17    8   77 1   
    18   10   11 1   
    19   10   12 1   
    20   10   42 1   
    21   11   14 1   
    22   11   43 1   
    23   11   44 1   
    24   12   13 1   
    25   12   15 1   
    26   12   45 1   
    27   13   46 1   
    28   14   16 ar  
    29   14   20 ar  
    30   15   30 1   
    31   15   47 1   
    32   15   48 1   
    33   16   17 ar  
    34   16   49 1   
    35   17   18 ar  
    36   17   52 1   
    37   18   19 ar  
    38   18   53 1   
    39   19   20 ar  
    40   19   54 1   
    41   20   50 1   
    42   21   22 1   
    43   21   39 1   
    44   22   23 1   
    45   22   55 1   
    46   22   56 1   
    47   23   57 1   
    48   23   58 1   
    49   23   59 1   
    50   24   25 1   
    51   24   28 1   
    52   25   26 1   
    53   25   29 2   
    54   26   27 1   
    55   26   62 1   
    56   26   63 1   
    57   27   28 1   
    58   27   64 1   
    59   27   65 1   
    60   28   60 1   
    61   28   61 1   
    62   30   31 1   
    63   30   51 1   
    64   30   78 1   
    65   31   32 1   
    66   31   36 1   
    67   31   66 1   
    68   32   33 1   
    69   32   67 1   
    70   32   68 1   
    71   33   34 1   
    72   33   71 1   
    73   33   72 1   
    74   34   35 1   
    75   34   73 1   
    76   34   74 1   
    77   35   36 1   
    78   35   75 1   
    79   35   76 1   
    80   36   69 1   
    81   36   70 1   
@<TRIPOS>SUBSTRUCTURE
     1 VG7         1 TEMP              0 ****  ****    0 ROOT
