@<TRIPOS>MOLECULE
VG8
   78    83     1     0     0
SMALL
bcc


@<TRIPOS>ATOM
      1 CBJ         0.6950    1.2190    2.1460 c3        1 VG8      0.172300
      2 CBL         1.5190    1.8460    1.0220 c3        1 VG8     -0.094900
      3 CBN         1.7480    3.3280    1.2430 c3        1 VG8     -0.081400
      4 CBM         0.8040    3.9170    2.2700 c3        1 VG8     -0.094900
      5 CBK        -0.5840    3.2900    2.1890 c3        1 VG8      0.172300
      6 NBI        -0.5860    1.8490    2.4190 n3        1 VG8     -0.735600
      7 CBH        -1.7570    1.1840    1.8670 c3        1 VG8      0.199500
      8 CBF        -1.7240    0.9020    0.3540 c3        1 VG8     -0.117900
      9 CBD        -3.0640    0.3500   -0.1290 c3        1 VG8      0.195800
     10 CBG        -2.0770   -0.1190    2.6280 c3        1 VG8     -0.117900
     11 CBE        -2.6370   -1.2010    1.7090 c3        1 VG8      0.195800
     12 NBC        -3.5830   -0.7200    0.7150 nh        1 VG8     -0.628000
     13 CBB        -4.9290   -0.9390    0.8130 ca        1 VG8      0.284600
     14 CAZ        -5.5370   -1.4920    1.9950 ca        1 VG8     -0.184000
     15 CAO        -6.8790   -1.7960    2.0880 ca        1 VG8     -0.048000
     16 CAY        -5.8230   -0.7010   -0.2680 ca        1 VG8     -0.161300
     17 CAX        -5.5860   -0.1510   -1.6650 c3        1 VG8      0.132300
     18 NAU        -6.8910   -0.2350   -2.3310 n         1 VG8     -0.437800
     19 CAT        -7.1300    0.4000   -3.5890 c3        1 VG8      0.075300
     20 CAM        -7.8650   -0.6900   -1.4620 c         1 VG8      0.702100
     21 OAI        -9.0870   -0.8420   -1.6710 o         1 VG8     -0.666500
     22 CAN        -7.1800   -1.0290   -0.1670 ca        1 VG8     -0.075600
     23 CAJ        -7.7410   -1.5660    0.9930 ca        1 VG8     -0.123400
     24 NAE        -9.1800   -1.8010    1.0540 n4        1 VG8     -0.604100
     25 C4         -9.5490   -3.2350    0.9990 ca        1 VG8      0.538200
     26 N3         -9.5460   -3.8320   -0.2300 nb        1 VG8     -0.636000
     27 C5         -9.9090   -3.9380    2.1760 ca        1 VG8     -0.181200
     28 CL5        -9.9270   -3.2400    3.6930 cl        1 VG8      0.061600
     29 C6        -10.2860   -5.3050    2.0080 ca        1 VG8      0.489200
     30 N1        -10.3110   -5.9120    0.8190 nb        1 VG8     -0.598000
     31 C2         -9.9390   -5.1380   -0.2630 ca        1 VG8      0.745900
     32 NAH        -9.9750   -5.7900   -1.6110 n4        1 VG8     -0.585100
     33 CAL        -8.9860   -6.8610   -1.7310 ca        1 VG8     -0.127400
     34 CAP        -7.6250   -6.5440   -1.9280 ca        1 VG8     -0.074000
     35 CAV        -6.7000   -7.5630   -2.0800 ca        1 VG8     -0.138000
     36 CBA        -7.1070   -8.9050   -2.0310 ca        1 VG8     -0.019000
     37 CAW        -8.4410   -9.2350   -1.8370 ca        1 VG8     -0.184000
     38 CAQ        -9.4000   -8.2180   -1.6830 ca        1 VG8      0.200100
     39 OAR       -10.7410   -8.4320   -1.5050 os        1 VG8     -0.357900
     40 CAS       -11.1940   -9.7940   -1.5060 c3        1 VG8      0.115700
     41 HBJ1        0.5470    0.1260    1.9200 h1        1 VG8      0.041700
     42 HBJ2        1.2860    1.2930    3.1050 h1        1 VG8      0.041700
     43 HBL1        2.5010    1.3100    0.9630 hc        1 VG8      0.051700
     44 HBL2        0.9940    1.6860    0.0430 hc        1 VG8      0.051700
     45 HBN1        1.6270    3.8680    0.2670 hc        1 VG8      0.051200
     46 HBN2        2.8040    3.5030    1.5800 hc        1 VG8      0.051200
     47 HBM1        1.2230    3.7710    3.3000 hc        1 VG8      0.051700
     48 HBM2        0.7010    5.0210    2.1050 hc        1 VG8      0.051700
     49 HBK1       -1.2430    3.7430    2.9830 h1        1 VG8      0.041700
     50 HBK2       -1.0290    3.5510    1.1840 h1        1 VG8      0.041700
     51 HBH        -2.6300    1.8880    2.0440 h1        1 VG8      0.054700
     52 HBF1       -0.8960    0.1880    0.1110 hc        1 VG8      0.073200
     53 HBF2       -1.5250    1.8510   -0.2100 hc        1 VG8      0.073200
     54 HBG1       -2.8110    0.1160    3.4410 hc        1 VG8      0.073200
     55 HBG2       -1.1630   -0.5420    3.1240 hc        1 VG8      0.073200
     56 HBD1       -3.8090    1.1960   -0.1540 h1        1 VG8      0.061700
     57 HBD2       -2.9430   -0.0550   -1.1750 h1        1 VG8      0.061700
     58 HBE1       -1.7850   -1.6580    1.1210 h1        1 VG8      0.061700
     59 HBE2       -3.0890   -2.0260    2.3230 h1        1 VG8      0.061700
     60 HAZ        -4.9170   -1.6530    2.8950 ha        1 VG8      0.174000
     61 HAO        -7.2710   -2.1980    3.0370 ha        1 VG8      0.151000
     62 HAX1       -5.2360    0.9180   -1.6400 h1        1 VG8      0.090200
     63 HAX2       -4.8370   -0.7770   -2.2250 h1        1 VG8      0.090200
     64 HAT1       -8.1970    0.2270   -3.8960 h1        1 VG8      0.069033
     65 HAT2       -6.4410   -0.0390   -4.3610 h1        1 VG8      0.069033
     66 HAT3       -6.9410    1.5060   -3.5180 h1        1 VG8      0.069033
     67 HAE        -9.6220   -1.3070    0.2370 hn        1 VG8      0.498300
     68 H6        -10.5850   -5.9270    2.8830 h4        1 VG8      0.107100
     69 HAH       -10.9220   -6.1920   -1.7440 hn        1 VG8      0.495300
     70 HAP        -7.2960   -5.4930   -1.9730 ha        1 VG8      0.154000
     71 HAV        -5.6380   -7.3200   -2.2450 ha        1 VG8      0.175000
     72 HBA        -6.3570   -9.7080   -2.1530 ha        1 VG8      0.180000
     73 HAW        -8.7510  -10.2920   -1.8050 ha        1 VG8      0.182000
     74 HAS1      -12.3010   -9.6840   -1.3670 h1        1 VG8      0.075367
     75 HAS2      -10.9590  -10.2770   -2.4850 h1        1 VG8      0.075367
     76 HAS3      -10.7360  -10.3510   -0.6540 h1        1 VG8      0.075367
     77 HAE2       -9.5470   -1.4080    1.9330 hn        1 VG8      0.498300
     78 HAH2       -9.7940   -5.0810   -2.3410 hn        1 VG8      0.495300
@<TRIPOS>BOND
     1    1    2 1   
     2    1    6 1   
     3    1   41 1   
     4    1   42 1   
     5    2    3 1   
     6    2   43 1   
     7    2   44 1   
     8    3    4 1   
     9    3   45 1   
    10    3   46 1   
    11    4    5 1   
    12    4   47 1   
    13    4   48 1   
    14    5    6 1   
    15    5   49 1   
    16    5   50 1   
    17    6    7 1   
    18    7    8 1   
    19    7   10 1   
    20    7   51 1   
    21    8    9 1   
    22    8   52 1   
    23    8   53 1   
    24    9   12 1   
    25    9   56 1   
    26    9   57 1   
    27   10   11 1   
    28   10   54 1   
    29   10   55 1   
    30   11   12 1   
    31   11   58 1   
    32   11   59 1   
    33   12   13 1   
    34   13   14 ar  
    35   13   16 ar  
    36   14   15 ar  
    37   14   60 1   
    38   15   23 ar  
    39   15   61 1   
    40   16   17 1   
    41   16   22 ar  
    42   17   18 1   
    43   17   62 1   
    44   17   63 1   
    45   18   19 1   
    46   18   20 1   
    47   19   64 1   
    48   19   65 1   
    49   19   66 1   
    50   20   21 2   
    51   20   22 1   
    52   22   23 ar  
    53   23   24 1   
    54   24   25 1   
    55   24   67 1   
    56   24   77 1   
    57   25   26 ar  
    58   25   27 ar  
    59   26   31 ar  
    60   27   28 1   
    61   27   29 ar  
    62   29   30 ar  
    63   29   68 1   
    64   30   31 ar  
    65   31   32 1   
    66   32   33 1   
    67   32   69 1   
    68   32   78 1   
    69   33   34 ar  
    70   33   38 ar  
    71   34   35 ar  
    72   34   70 1   
    73   35   36 ar  
    74   35   71 1   
    75   36   37 ar  
    76   36   72 1   
    77   37   38 ar  
    78   37   73 1   
    79   38   39 1   
    80   39   40 1   
    81   40   74 1   
    82   40   75 1   
    83   40   76 1   
@<TRIPOS>SUBSTRUCTURE
     1 VG8         1 TEMP              0 ****  ****    0 ROOT
