@<TRIPOS>MOLECULE
VG8
   76    81     1     0     0
SMALL
bcc


@<TRIPOS>ATOM
      1 CBJ         0.3730   -0.3140    1.1150 c3        1 VG8      0.173300
      2 CBL         1.0370    1.0600    1.2070 c3        1 VG8     -0.094400
      3 CBN         1.3060    1.4670    2.6420 c3        1 VG8     -0.076400
      4 CBM         0.4900    0.6650    3.6360 c3        1 VG8     -0.094400
      5 CBK        -0.8930    0.3250    3.0880 c3        1 VG8      0.173300
      6 NBI        -0.8580   -0.4740    1.8700 n3        1 VG8     -0.734600
      7 CBH        -2.0950   -0.3780    1.0970 c3        1 VG8      0.189500
      8 CBF        -2.2560    0.8840    0.2360 c3        1 VG8     -0.116400
      9 CBD        -3.6670    0.9630   -0.3410 c3        1 VG8      0.183800
     10 CBG        -2.3150   -1.6210    0.2170 c3        1 VG8     -0.116400
     11 CBE        -3.1500   -1.3150   -1.0270 c3        1 VG8      0.183800
     12 NBC        -4.1590   -0.2810   -0.9220 nh        1 VG8     -0.633000
     13 CBB        -5.4540   -0.6720   -0.4920 ca        1 VG8      0.113600
     14 CAZ        -5.7370   -1.9010    0.1630 ca        1 VG8     -0.128000
     15 CAO        -7.0210   -2.2940    0.4970 ca        1 VG8     -0.118000
     16 CAY        -6.5580    0.1360   -0.7750 ca        1 VG8     -0.080300
     17 CAX        -6.6280    1.4840   -1.4580 c3        1 VG8      0.130300
     18 NAU        -8.0410    1.8640   -1.3990 n         1 VG8     -0.468800
     19 CAT        -8.5610    2.8480   -2.2890 c3        1 VG8      0.084300
     20 CAM        -8.8140    0.8140   -0.8670 c         1 VG8      0.713100
     21 OAI       -10.0500    0.8200   -0.7510 o         1 VG8     -0.633500
     22 CAN        -7.8710   -0.2580   -0.4310 ca        1 VG8     -0.200600
     23 CAJ        -8.1450   -1.4780    0.1990 ca        1 VG8      0.206600
     24 NAE        -9.4560   -1.7870    0.5890 nh        1 VG8     -0.722300
     25 C4        -10.0450   -3.0500    0.4720 ca        1 VG8      0.723200
     26 N3         -9.3410   -4.1100   -0.0320 nb        1 VG8     -0.787000
     27 C5        -11.3960   -3.2190    0.9270 ca        1 VG8     -0.325200
     28 CL5       -12.3190   -1.9420    1.5320 cl        1 VG8     -0.059400
     29 C6        -11.9380   -4.5140    0.8600 ca        1 VG8      0.492200
     30 N1        -11.2740   -5.5740    0.3910 nb        1 VG8     -0.757000
     31 C2         -9.9790   -5.3330   -0.0690 ca        1 VG8      0.895900
     32 NAH        -9.3320   -6.4280   -0.6840 nh        1 VG8     -0.685300
     33 CAL        -7.9340   -6.4320   -0.9000 ca        1 VG8      0.097600
     34 CAP        -7.3360   -5.5220   -1.7900 ca        1 VG8     -0.075000
     35 CAV        -5.9720   -5.5880   -2.0690 ca        1 VG8     -0.156000
     36 CBA        -5.1750   -6.5610   -1.4760 ca        1 VG8     -0.105000
     37 CAW        -5.7350   -7.4820   -0.5920 ca        1 VG8     -0.193000
     38 CAQ        -7.0990   -7.4210   -0.2970 ca        1 VG8      0.095100
     39 OAR        -7.7340   -8.2920    0.5720 os        1 VG8     -0.340900
     40 CAS        -6.9500   -9.3660    1.0770 c3        1 VG8      0.118700
     41 HBJ1        0.1940   -0.5550    0.0300 h1        1 VG8      0.040200
     42 HBJ2        1.0910   -1.0830    1.5230 h1        1 VG8      0.040200
     43 HBL1        1.9970    1.0300    0.6300 hc        1 VG8      0.045450
     44 HBL2        0.3770    1.8220    0.7150 hc        1 VG8      0.045450
     45 HBN1        2.3950    1.3370    2.8780 hc        1 VG8      0.039700
     46 HBN2        1.0760    2.5590    2.7640 hc        1 VG8      0.039700
     47 HBM1        1.0330   -0.2810    3.8970 hc        1 VG8      0.045450
     48 HBM2        0.3600    1.2500    4.5830 hc        1 VG8      0.045450
     49 HBK1       -1.4570    1.2930    2.9390 h1        1 VG8      0.040200
     50 HBK2       -1.4560   -0.2810    3.8540 h1        1 VG8      0.040200
     51 HBH        -2.9370   -0.3630    1.8580 h1        1 VG8      0.056700
     52 HBF1       -1.5000    0.8800   -0.5910 hc        1 VG8      0.052700
     53 HBF2       -2.0770    1.8030    0.8530 hc        1 VG8      0.052700
     54 HBG1       -2.8160   -2.4070    0.8390 hc        1 VG8      0.052700
     55 HBG2       -1.3400   -2.0560   -0.1280 hc        1 VG8      0.052700
     56 HBD1       -3.6750    1.7280   -1.1700 h1        1 VG8      0.050450
     57 HBD2       -4.3660    1.3280    0.4650 h1        1 VG8      0.050450
     58 HBE1       -2.4500   -0.9610   -1.8410 h1        1 VG8      0.050450
     59 HBE2       -3.6330   -2.2650   -1.3880 h1        1 VG8      0.050450
     60 HAZ        -4.9060   -2.5770    0.4260 ha        1 VG8      0.142000
     61 HAO        -7.1620   -3.2570    1.0130 ha        1 VG8      0.162000
     62 HAX1       -6.2630    1.4130   -2.5200 h1        1 VG8      0.065200
     63 HAX2       -6.0140    2.2530   -0.9140 h1        1 VG8      0.065200
     64 HAT1       -8.0570    3.8310   -2.0850 h1        1 VG8      0.044700
     65 HAT2       -8.3820    2.5720   -3.3650 h1        1 VG8      0.044700
     66 HAT3       -9.6660    2.9530   -2.1170 h1        1 VG8      0.044700
     67 HAE       -10.1050   -1.0190    0.5300 hn        1 VG8      0.474800
     68 H6        -12.9700   -4.7130    1.2120 h4        1 VG8      0.039100
     69 HAH        -9.6940   -7.3230   -0.4040 hn        1 VG8      0.448800
     70 HAP        -7.9500   -4.7450   -2.2750 ha        1 VG8      0.158000
     71 HAV        -5.5300   -4.8640   -2.7690 ha        1 VG8      0.137000
     72 HBA        -4.0990   -6.6110   -1.7020 ha        1 VG8      0.133000
     73 HAW        -5.0960   -8.2460   -0.1280 ha        1 VG8      0.139000
     74 HAS1       -6.1220   -8.9790    1.7190 h1        1 VG8      0.046367
     75 HAS2       -7.6820   -9.9530    1.6900 h1        1 VG8      0.046367
     76 HAS3       -6.5440   -9.9880    0.2430 h1        1 VG8      0.046367
@<TRIPOS>BOND
     1    1    2 1   
     2    1    6 1   
     3    1   41 1   
     4    1   42 1   
     5    2    3 1   
     6    2   43 1   
     7    2   44 1   
     8    3    4 1   
     9    3   45 1   
    10    3   46 1   
    11    4    5 1   
    12    4   47 1   
    13    4   48 1   
    14    5    6 1   
    15    5   49 1   
    16    5   50 1   
    17    6    7 1   
    18    7    8 1   
    19    7   10 1   
    20    7   51 1   
    21    8    9 1   
    22    8   52 1   
    23    8   53 1   
    24    9   12 1   
    25    9   56 1   
    26    9   57 1   
    27   10   11 1   
    28   10   54 1   
    29   10   55 1   
    30   11   12 1   
    31   11   58 1   
    32   11   59 1   
    33   12   13 1   
    34   13   14 ar  
    35   13   16 ar  
    36   14   15 ar  
    37   14   60 1   
    38   15   23 ar  
    39   15   61 1   
    40   16   17 1   
    41   16   22 ar  
    42   17   18 1   
    43   17   62 1   
    44   17   63 1   
    45   18   19 1   
    46   18   20 1   
    47   19   64 1   
    48   19   65 1   
    49   19   66 1   
    50   20   21 2   
    51   20   22 1   
    52   22   23 ar  
    53   23   24 1   
    54   24   25 1   
    55   24   67 1   
    56   25   26 ar  
    57   25   27 ar  
    58   26   31 ar  
    59   27   28 1   
    60   27   29 ar  
    61   29   30 ar  
    62   29   68 1   
    63   30   31 ar  
    64   31   32 1   
    65   32   33 1   
    66   32   69 1   
    67   33   34 ar  
    68   33   38 ar  
    69   34   35 ar  
    70   34   70 1   
    71   35   36 ar  
    72   35   71 1   
    73   36   37 ar  
    74   36   72 1   
    75   37   38 ar  
    76   37   73 1   
    77   38   39 1   
    78   39   40 1   
    79   40   74 1   
    80   40   75 1   
    81   40   76 1   
@<TRIPOS>SUBSTRUCTURE
     1 VG8         1 TEMP              0 ****  ****    0 ROOT
