@<TRIPOS>MOLECULE
VG8
   76    81     1     0     0
SMALL
bcc


@<TRIPOS>ATOM
      1 CBJ        15.6960   -3.3490   27.8880 c3        1 VG8      0.173300
      2 CBL        17.0580   -3.5310   27.2180 c3        1 VG8     -0.094400
      3 CBN        18.1760   -2.8960   28.0200 c3        1 VG8     -0.076400
      4 CBM        17.6670   -1.8840   29.0260 c3        1 VG8     -0.094400
      5 CBK        16.4540   -1.1230   28.4990 c3        1 VG8      0.173300
      6 NBI        15.3160   -1.9800   28.1900 n3        1 VG8     -0.734600
      7 CBH        14.3800   -1.3590   27.2540 c3        1 VG8      0.189500
      8 CBF        14.7850   -1.3960   25.7730 c3        1 VG8     -0.116400
      9 CBD        13.8360   -0.5390   24.9380 c3        1 VG8      0.184300
     10 CBG        12.9590   -1.9300   27.4070 c3        1 VG8     -0.116400
     11 CBE        12.1600   -1.8630   26.1050 c3        1 VG8      0.184300
     12 NBC        12.4200   -0.7500   25.2160 nh        1 VG8     -0.632000
     13 CBB        11.6640    0.4360   25.4090 ca        1 VG8      0.114600
     14 CAZ        10.9280    0.7250   26.5900 ca        1 VG8     -0.129000
     15 CAO        10.1300    1.8490   26.7170 ca        1 VG8     -0.118000
     16 CAY        11.5510    1.3680   24.3750 ca        1 VG8     -0.082300
     17 CAX        12.1710    1.3730   22.9950 c3        1 VG8      0.134300
     18 NAU        11.6280    2.5650   22.3440 n         1 VG8     -0.474800
     19 CAT        12.2440    3.1080   21.1810 c3        1 VG8      0.089300
     20 CAM        10.8410    3.3090   23.2400 c         1 VG8      0.716100
     21 OAI        10.3200    4.4100   22.9970 o         1 VG8     -0.637500
     22 CAN        10.7380    2.5180   24.5020 ca        1 VG8     -0.197600
     23 CAJ         9.9990    2.7880   25.6600 ca        1 VG8      0.205600
     24 NAE         9.2720    3.9820   25.7670 nh        1 VG8     -0.723300
     25 C4          7.9980    4.0900   26.3330 ca        1 VG8      0.723200
     26 N3          7.3680    2.9960   26.8600 nb        1 VG8     -0.787000
     27 C5          7.3790    5.3850   26.3830 ca        1 VG8     -0.326200
     28 CL5         8.0980    6.7630   25.7250 cl        1 VG8     -0.060400
     29 C6          6.1290    5.4740   27.0190 ca        1 VG8      0.492200
     30 N1          5.4940    4.4310   27.5590 nb        1 VG8     -0.757000
     31 C2          6.1330    3.1960   27.4430 ca        1 VG8      0.896900
     32 NAH         5.3980    2.0780   27.8980 nh        1 VG8     -0.685300
     33 CAL         6.0220    0.8310   28.1380 ca        1 VG8      0.097600
     34 CAP         6.5880    0.0900   27.0840 ca        1 VG8     -0.075000
     35 CAV         7.1210   -1.1770   27.3110 ca        1 VG8     -0.156000
     36 CBA         7.0990   -1.7380   28.5830 ca        1 VG8     -0.106000
     37 CAW         6.5430   -1.0330   29.6490 ca        1 VG8     -0.193000
     38 CAQ         6.0130    0.2420   29.4380 ca        1 VG8      0.095100
     39 OAR         5.4470    1.0120   30.4400 os        1 VG8     -0.340900
     40 CAS         5.2970    0.3880   31.7090 c3        1 VG8      0.118700
     41 HBJ1       14.9110   -3.8340   27.2440 h1        1 VG8      0.039950
     42 HBJ2       15.7120   -3.8930   28.8770 h1        1 VG8      0.039950
     43 HBL1       17.2500   -4.6280   27.0950 hc        1 VG8      0.045700
     44 HBL2       17.0260   -3.0810   26.1910 hc        1 VG8      0.045700
     45 HBN1       18.7530   -3.6890   28.5640 hc        1 VG8      0.039700
     46 HBN2       18.8950   -2.3970   27.3180 hc        1 VG8      0.039700
     47 HBM1       17.3970   -2.4030   29.9830 hc        1 VG8      0.045700
     48 HBM2       18.4730   -1.1420   29.2640 hc        1 VG8      0.045700
     49 HBK1       16.1040   -0.3940   29.2840 h1        1 VG8      0.039950
     50 HBK2       16.7830   -0.5220   27.6000 h1        1 VG8      0.039950
     51 HBH        14.3260   -0.2640   27.5490 h1        1 VG8      0.056700
     52 HBF1       15.8240   -0.9980   25.6410 hc        1 VG8      0.052950
     53 HBF2       14.7770   -2.4530   25.4010 hc        1 VG8      0.052950
     54 HBG1       12.9820   -3.0020   27.7360 hc        1 VG8      0.052950
     55 HBG2       12.4360   -1.3560   28.2150 hc        1 VG8      0.052950
     56 HBD1       14.1120    0.5450   25.0790 h1        1 VG8      0.049950
     57 HBD2       13.9880   -0.7890   23.8470 h1        1 VG8      0.049950
     58 HBE1       12.3970   -2.7870   25.4990 h1        1 VG8      0.049950
     59 HBE2       11.0610   -1.8920   26.3470 h1        1 VG8      0.049950
     60 HAZ        10.9920    0.0370   27.4490 ha        1 VG8      0.141000
     61 HAO         9.5950    2.0110   27.6670 ha        1 VG8      0.162000
     62 HAX1       13.2940    1.4160   23.0510 h1        1 VG8      0.064700
     63 HAX2       11.8710    0.4550   22.4180 h1        1 VG8      0.064700
     64 HAT1       11.6940    4.0370   20.8720 h1        1 VG8      0.044033
     65 HAT2       13.3230    3.3660   21.3670 h1        1 VG8      0.044033
     66 HAT3       12.1960    2.3530   20.3500 h1        1 VG8      0.044033
     67 HAE         9.4650    4.6590   25.0450 hn        1 VG8      0.474800
     68 H6          5.6090    6.4480   27.1050 h4        1 VG8      0.039100
     69 HAH         4.6900    2.3050   28.5730 hn        1 VG8      0.449800
     70 HAP         6.6130    0.5140   26.0670 ha        1 VG8      0.159000
     71 HAV         7.5580   -1.7350   26.4690 ha        1 VG8      0.137000
     72 HBA         7.5180   -2.7400   28.7550 ha        1 VG8      0.133000
     73 HAW         6.5300   -1.4850   30.6510 ha        1 VG8      0.138000
     74 HAS1        4.6780   -0.5380   31.6270 h1        1 VG8      0.046367
     75 HAS2        6.2960    0.1550   32.1520 h1        1 VG8      0.046367
     76 HAS3        4.7690    1.1650   32.3180 h1        1 VG8      0.046367
@<TRIPOS>BOND
     1    1    2 1   
     2    1    6 1   
     3    1   41 1   
     4    1   42 1   
     5    2    3 1   
     6    2   43 1   
     7    2   44 1   
     8    3    4 1   
     9    3   45 1   
    10    3   46 1   
    11    4    5 1   
    12    4   47 1   
    13    4   48 1   
    14    5    6 1   
    15    5   49 1   
    16    5   50 1   
    17    6    7 1   
    18    7    8 1   
    19    7   10 1   
    20    7   51 1   
    21    8    9 1   
    22    8   52 1   
    23    8   53 1   
    24    9   12 1   
    25    9   56 1   
    26    9   57 1   
    27   10   11 1   
    28   10   54 1   
    29   10   55 1   
    30   11   12 1   
    31   11   58 1   
    32   11   59 1   
    33   12   13 1   
    34   13   14 ar  
    35   13   16 ar  
    36   14   15 ar  
    37   14   60 1   
    38   15   23 ar  
    39   15   61 1   
    40   16   17 1   
    41   16   22 ar  
    42   17   18 1   
    43   17   62 1   
    44   17   63 1   
    45   18   19 1   
    46   18   20 1   
    47   19   64 1   
    48   19   65 1   
    49   19   66 1   
    50   20   21 2   
    51   20   22 1   
    52   22   23 ar  
    53   23   24 1   
    54   24   25 1   
    55   24   67 1   
    56   25   26 ar  
    57   25   27 ar  
    58   26   31 ar  
    59   27   28 1   
    60   27   29 ar  
    61   29   30 ar  
    62   29   68 1   
    63   30   31 ar  
    64   31   32 1   
    65   32   33 1   
    66   32   69 1   
    67   33   34 ar  
    68   33   38 ar  
    69   34   35 ar  
    70   34   70 1   
    71   35   36 ar  
    72   35   71 1   
    73   36   37 ar  
    74   36   72 1   
    75   37   38 ar  
    76   37   73 1   
    77   38   39 1   
    78   39   40 1   
    79   40   74 1   
    80   40   75 1   
    81   40   76 1   
@<TRIPOS>SUBSTRUCTURE
     1 VG8         1 TEMP              0 ****  ****    0 ROOT
