@<TRIPOS>MOLECULE
VG8
   76    81     1     0     0
SMALL
bcc


@<TRIPOS>ATOM
      1 CBJ         0.3730   -0.3230    1.1310 c3        1 VG8      0.173300
      2 CBL         1.0410    1.0490    1.2180 c3        1 VG8     -0.094400
      3 CBN         1.3030    1.4650    2.6520 c3        1 VG8     -0.076400
      4 CBM         0.4810    0.6710    3.6470 c3        1 VG8     -0.094400
      5 CBK        -0.9000    0.3310    3.0950 c3        1 VG8      0.173300
      6 NBI        -0.8620   -0.4760    1.8810 n3        1 VG8     -0.734600
      7 CBH        -2.0950   -0.3810    1.1020 c3        1 VG8      0.189500
      8 CBF        -2.2480    0.8770    0.2330 c3        1 VG8     -0.116900
      9 CBD        -3.6560    0.9550   -0.3510 c3        1 VG8      0.183800
     10 CBG        -2.3140   -1.6290    0.2280 c3        1 VG8     -0.116900
     11 CBE        -3.1420   -1.3280   -1.0220 c3        1 VG8      0.183800
     12 NBC        -4.1500   -0.2910   -0.9270 nh        1 VG8     -0.633000
     13 CBB        -5.4480   -0.6760   -0.5010 ca        1 VG8      0.113600
     14 CAZ        -5.7360   -1.9000    0.1610 ca        1 VG8     -0.128000
     15 CAO        -7.0240   -2.2870    0.4910 ca        1 VG8     -0.118000
     16 CAY        -6.5480    0.1340   -0.7930 ca        1 VG8     -0.080300
     17 CAX        -6.6120    1.4780   -1.4850 c3        1 VG8      0.130300
     18 NAU        -8.0240    1.8620   -1.4340 n         1 VG8     -0.468800
     19 CAT        -8.5370    2.8420   -2.3320 c3        1 VG8      0.084300
     20 CAM        -8.8020    0.8170   -0.8990 c         1 VG8      0.713100
     21 OAI       -10.0390    0.8270   -0.7890 o         1 VG8     -0.633500
     22 CAN        -7.8640   -0.2550   -0.4530 ca        1 VG8     -0.200600
     23 CAJ        -8.1440   -1.4700    0.1830 ca        1 VG8      0.206600
     24 NAE        -9.4570   -1.7740    0.5700 nu        1 VG8     -0.722300
     25 C4        -10.0490   -3.0350    0.4560 ca        1 VG8      0.723200
     26 N3         -9.3460   -4.1000   -0.0380 nb        1 VG8     -0.787000
     27 C5        -11.4030   -3.1980    0.9060 ca        1 VG8     -0.325200
     28 Cl5       -12.3250   -1.9150    1.5000 cl        1 VG8     -0.059400
     29 C6        -11.9480   -4.4920    0.8430 ca        1 VG8      0.492200
     30 N1        -11.2850   -5.5570    0.3840 nb        1 VG8     -0.757000
     31 C2         -9.9870   -5.3210   -0.0710 ca        1 VG8      0.895900
     32 NAH        -9.3400   -6.4220   -0.6770 nu        1 VG8     -0.685300
     33 CAL        -7.9410   -6.4310   -0.8860 ca        1 VG8      0.097600
     34 CAP        -7.3360   -5.5270   -1.7780 ca        1 VG8     -0.075000
     35 CAV        -5.9710   -5.5990   -2.0490 ca        1 VG8     -0.156000
     36 CBA        -5.1790   -6.5710   -1.4460 ca        1 VG8     -0.105000
     37 CAW        -5.7460   -7.4850   -0.5600 ca        1 VG8     -0.193000
     38 CAQ        -7.1120   -7.4190   -0.2730 ca        1 VG8      0.095100
     39 OAR        -7.7540   -8.2830    0.5970 os        1 VG8     -0.340900
     40 CAS        -6.9760   -9.3580    1.1120 c3        1 VG8      0.118700
     41 HBJ1        0.1990   -0.5710    0.0470 h1        1 VG8      0.040200
     42 HBJ2        1.0870   -1.0910    1.5480 h1        1 VG8      0.040200
     43 HBL1        2.0030    1.0130    0.6460 hc        1 VG8      0.045450
     44 HBL2        0.3850    1.8100    0.7180 hc        1 VG8      0.045450
     45 HBN1        2.3910    1.3330    2.8930 hc        1 VG8      0.039700
     46 HBN2        1.0760    2.5580    2.7650 hc        1 VG8      0.039700
     47 HBM1        1.0210   -0.2740    3.9160 hc        1 VG8      0.045450
     48 HBM2        0.3480    1.2620    4.5900 hc        1 VG8      0.045450
     49 HBK1       -1.4610    1.2990    2.9370 h1        1 VG8      0.040200
     50 HBK2       -1.4680   -0.2690    3.8610 h1        1 VG8      0.040200
     51 HBH        -2.9400   -0.3590    1.8590 h1        1 VG8      0.056700
     52 HBF1       -1.4890    0.8650   -0.5910 hc        1 VG8      0.052700
     53 HBF2       -2.0700    1.7990    0.8440 hc        1 VG8      0.052700
     54 HBG1       -2.8200   -2.4100    0.8530 hc        1 VG8      0.052700
     55 HBG2       -1.3390   -2.0680   -0.1100 hc        1 VG8      0.052700
     56 HBD1       -3.6590    1.7160   -1.1850 h1        1 VG8      0.050450
     57 HBD2       -4.3580    1.3270    0.4490 h1        1 VG8      0.050450
     58 HBE1       -3.6270   -2.2790   -1.3780 h1        1 VG8      0.050450
     59 HBE2       -2.4380   -0.9810   -1.8350 h1        1 VG8      0.050450
     60 HAZ        -4.9080   -2.5760    0.4320 ha        1 VG8      0.142000
     61 HAO        -7.1690   -3.2470    1.0130 ha        1 VG8      0.162000
     62 HAX1       -6.2420    1.3990   -2.5440 h1        1 VG8      0.065200
     63 HAX2       -5.9980    2.2480   -0.9430 h1        1 VG8      0.065200
     64 HAT1       -8.3530    2.5600   -3.4050 h1        1 VG8      0.044700
     65 HAT2       -9.6420    2.9500   -2.1660 h1        1 VG8      0.044700
     66 HAT3       -8.0320    3.8250   -2.1310 h1        1 VG8      0.044700
     67 HAE       -10.1040   -1.0040    0.5040 hn        1 VG8      0.474800
     68 H6        -12.9820   -4.6860    1.1910 h4        1 VG8      0.039100
     69 HAH        -9.7060   -7.3140   -0.3940 hn        1 VG8      0.448800
     70 HAP        -7.9450   -4.7510   -2.2690 ha        1 VG8      0.158000
     71 HAV        -5.5230   -4.8800   -2.7500 ha        1 VG8      0.137000
     72 HBA        -4.1030   -6.6250   -1.6660 ha        1 VG8      0.133000
     73 HAW        -5.1120   -8.2490   -0.0890 ha        1 VG8      0.139000
     74 HAS1       -6.5670   -9.9850    0.2830 h1        1 VG8      0.046367
     75 HAS2       -7.7130   -9.9390    1.7230 h1        1 VG8      0.046367
     76 HAS3       -6.1510   -8.9690    1.7560 h1        1 VG8      0.046367
@<TRIPOS>BOND
     1    1    2 1   
     2    1    6 1   
     3    1   41 1   
     4    1   42 1   
     5    2    3 1   
     6    2   43 1   
     7    2   44 1   
     8    3    4 1   
     9    3   45 1   
    10    3   46 1   
    11    4    5 1   
    12    4   47 1   
    13    4   48 1   
    14    5    6 1   
    15    5   49 1   
    16    5   50 1   
    17    6    7 1   
    18    7    8 1   
    19    7   10 1   
    20    7   51 1   
    21    8    9 1   
    22    8   52 1   
    23    8   53 1   
    24    9   12 1   
    25    9   56 1   
    26    9   57 1   
    27   10   11 1   
    28   10   54 1   
    29   10   55 1   
    30   11   12 1   
    31   11   58 1   
    32   11   59 1   
    33   12   13 1   
    34   13   14 ar  
    35   13   16 ar  
    36   14   15 ar  
    37   14   60 1   
    38   15   23 ar  
    39   15   61 1   
    40   16   17 1   
    41   16   22 ar  
    42   17   18 1   
    43   17   62 1   
    44   17   63 1   
    45   18   19 1   
    46   18   20 1   
    47   19   64 1   
    48   19   65 1   
    49   19   66 1   
    50   20   21 2   
    51   20   22 1   
    52   22   23 ar  
    53   23   24 1   
    54   24   25 1   
    55   24   67 1   
    56   25   26 ar  
    57   25   27 ar  
    58   26   31 ar  
    59   27   28 1   
    60   27   29 ar  
    61   29   30 ar  
    62   29   68 1   
    63   30   31 ar  
    64   31   32 1   
    65   32   33 1   
    66   32   69 1   
    67   33   34 ar  
    68   33   38 ar  
    69   34   35 ar  
    70   34   70 1   
    71   35   36 ar  
    72   35   71 1   
    73   36   37 ar  
    74   36   72 1   
    75   37   38 ar  
    76   37   73 1   
    77   38   39 1   
    78   39   40 1   
    79   40   74 1   
    80   40   75 1   
    81   40   76 1   
@<TRIPOS>SUBSTRUCTURE
     1 VG8         1 TEMP              0 ****  ****    0 ROOT
