@<TRIPOS>MOLECULE
VG9
   51    53     1     0     0
SMALL
bcc


@<TRIPOS>ATOM
      1 N2          0.1870   -1.7800   -0.3330 nv        1 VG9     -0.939500
      2 C2          1.4770   -1.2570   -0.2540 ca        1 VG9      0.922900
      3 N3          1.9060   -0.8450    1.0130 nb        1 VG9     -0.832000
      4 C4          3.1540   -0.3420    1.1100 ca        1 VG9      0.733200
      5 N4          3.5910    0.0180    2.3820 nv        1 VG9     -0.943500
      6 N1          2.2410   -1.2740   -1.3880 nb        1 VG9     -0.765000
      7 C8A         3.5160   -0.7650   -1.2780 ca        1 VG9      0.715300
      8 N8          4.3210   -0.8450   -2.4140 nb        1 VG9     -0.653000
      9 C7          5.5220   -0.3100   -2.3550 ca        1 VG9      0.454200
     10 C6          6.0470    0.4080   -1.2360 ca        1 VG9     -0.291600
     11 C5          5.2550    0.5290   -0.1000 ca        1 VG9      0.027700
     12 C5A         5.6980    1.4330    0.9910 c3        1 VG9     -0.075800
     13 C4A         4.0110   -0.1650   -0.0570 ca        1 VG9     -0.382600
     14 C9          7.4030    1.0510   -1.2980 c3        1 VG9      0.234100
     15 N10         8.3420    0.5600   -2.2800 nu        1 VG9     -0.704600
     16 C11         8.3300    1.1440   -3.5670 ca        1 VG9      0.140600
     17 C12         8.3050    0.3390   -4.7360 ca        1 VG9     -0.000900
     18 O2          8.0730   -1.0250   -4.5980 os        1 VG9     -0.354900
     19 C21         9.2390   -1.8260   -4.8620 c3        1 VG9      0.128400
     20 C22         8.7930   -3.2660   -4.7830 c3        1 VG9     -0.101100
     21 C13         8.4080    0.9030   -6.0120 ca        1 VG9     -0.090000
     22 C14         8.5160    2.2770   -6.1620 ca        1 VG9     -0.172000
     23 C15         8.5280    3.0910   -5.0120 ca        1 VG9      0.147100
     24 C16         8.4360    2.5430   -3.7310 ca        1 VG9     -0.225000
     25 O5          8.6650    4.4390   -5.2810 os        1 VG9     -0.329900
     26 C51         8.5930    5.3530   -4.1870 c3        1 VG9      0.127400
     27 C52         7.1770    5.5500   -3.7030 c3        1 VG9     -0.132100
     28 H21N       -0.4390   -1.5770    0.4090 hn        1 VG9      0.435800
     29 H22N       -0.1970   -1.9180   -1.2370 hn        1 VG9      0.435800
     30 H41N        4.5680   -0.0720    2.5410 hn        1 VG9      0.420800
     31 H42N        3.0110   -0.2370    3.1500 hn        1 VG9      0.420800
     32 H7          6.1260   -0.4320   -3.2810 h4        1 VG9      0.048100
     33 H91C        7.2600    2.1620   -1.4410 h1        1 VG9      0.060200
     34 H92C        7.9120    0.8930   -0.2990 h1        1 VG9      0.060200
     35 H5A1        6.2690    0.8670    1.7700 hc        1 VG9      0.055367
     36 H5A2        4.8310    1.9580    1.4630 hc        1 VG9      0.055367
     37 H5A3        6.3720    2.2360    0.5970 hc        1 VG9      0.055367
     38 H10         8.3230   -0.4440   -2.3410 hn        1 VG9      0.398800
     39 H16         8.4620    3.1930   -2.8450 ha        1 VG9      0.144000
     40 H13         8.3860    0.2460   -6.8940 ha        1 VG9      0.145000
     41 H211       10.0200   -1.5940   -4.0910 h1        1 VG9      0.035200
     42 H212        9.6380   -1.5760   -5.8800 h1        1 VG9      0.035200
     43 H221        8.3830   -3.4940   -3.7700 hc        1 VG9      0.048033
     44 H222        9.6650   -3.9320   -4.9840 hc        1 VG9      0.048033
     45 H223        7.9940   -3.4690   -5.5360 hc        1 VG9      0.048033
     46 H14         8.5890    2.7410   -7.1550 ha        1 VG9      0.152000
     47 H511        8.9930    6.3010   -4.6440 h1        1 VG9      0.055200
     48 H512        9.2740    5.0300   -3.3570 h1        1 VG9      0.055200
     49 H521        7.1590    6.3280   -2.9030 hc        1 VG9      0.048700
     50 H522        6.5220    5.8810   -4.5450 hc        1 VG9      0.048700
     51 H523        6.7600    4.5980   -3.2930 hc        1 VG9      0.048700
@<TRIPOS>BOND
     1    1    2 1   
     2    1   28 1   
     3    1   29 1   
     4    2    3 ar  
     5    2    6 ar  
     6    3    4 ar  
     7    4    5 1   
     8    4   13 ar  
     9    5   30 1   
    10    5   31 1   
    11    6    7 ar  
    12    7    8 ar  
    13    7   13 ar  
    14    8    9 ar  
    15    9   10 ar  
    16    9   32 1   
    17   10   11 ar  
    18   10   14 1   
    19   11   12 1   
    20   11   13 ar  
    21   12   35 1   
    22   12   36 1   
    23   12   37 1   
    24   14   15 1   
    25   14   33 1   
    26   14   34 1   
    27   15   16 1   
    28   15   38 1   
    29   16   17 ar  
    30   16   24 ar  
    31   17   18 1   
    32   17   21 ar  
    33   18   19 1   
    34   19   20 1   
    35   19   41 1   
    36   19   42 1   
    37   20   43 1   
    38   20   44 1   
    39   20   45 1   
    40   21   22 ar  
    41   21   40 1   
    42   22   23 ar  
    43   22   46 1   
    44   23   24 ar  
    45   23   25 1   
    46   24   39 1   
    47   25   26 1   
    48   26   27 1   
    49   26   47 1   
    50   26   48 1   
    51   27   49 1   
    52   27   50 1   
    53   27   51 1   
@<TRIPOS>SUBSTRUCTURE
     1 VG9         1 TEMP              0 ****  ****    0 ROOT
