@<TRIPOS>MOLECULE
VG9
   51    53     1     0     0
SMALL
bcc


@<TRIPOS>ATOM
      1 N2          0.1340   -1.7010   -0.3980 nh        1 VG9     -0.939500
      2 C2          1.4340   -1.2060   -0.3060 ca        1 VG9      0.922900
      3 N3          1.8680   -0.8280    0.9710 nb        1 VG9     -0.832000
      4 C4          3.1250   -0.3520    1.0810 ca        1 VG9      0.733200
      5 N4          3.5660   -0.0270    2.3610 nh        1 VG9     -0.943500
      6 N1          2.2010   -1.2130   -1.4380 nb        1 VG9     -0.765000
      7 C8A         3.4850   -0.7330   -1.3150 ca        1 VG9      0.715300
      8 N8          4.2910   -0.8040   -2.4510 nb        1 VG9     -0.653000
      9 C7          5.5020   -0.2940   -2.3780 ca        1 VG9      0.454200
     10 C6          6.0380    0.3910   -1.2430 ca        1 VG9     -0.291600
     11 C5          5.2450    0.5030   -0.1070 ca        1 VG9      0.027700
     12 C5A         5.7020    1.3760    1.0040 c3        1 VG9     -0.075800
     13 C4A         3.9880   -0.1670   -0.0810 ca        1 VG9     -0.382600
     14 C9          7.4050    1.0090   -1.2900 c3        1 VG9      0.234100
     15 N10         8.3380    0.5210   -2.2800 nh        1 VG9     -0.704600
     16 C11         8.3390    1.1310   -3.5540 ca        1 VG9      0.140600
     17 C12         8.3020    0.3510   -4.7400 ca        1 VG9     -0.000900
     18 O2          8.0460   -1.0110   -4.6300 os        1 VG9     -0.354900
     19 C21         9.1980   -1.8280   -4.9080 c3        1 VG9      0.128400
     20 C22         8.7250   -3.2610   -4.8600 c3        1 VG9     -0.101100
     21 C13         8.4180    0.9390   -6.0030 ca        1 VG9     -0.090000
     22 C14         8.5520    2.3130   -6.1250 ca        1 VG9     -0.172000
     23 C15         8.5770    3.1030   -4.9590 ca        1 VG9      0.147100
     24 C16         8.4720    2.5310   -3.6900 ca        1 VG9     -0.225000
     25 O5          8.7380    4.4530   -5.2010 os        1 VG9     -0.329900
     26 C51         8.6800    5.3460   -4.0880 c3        1 VG9      0.127400
     27 C52         7.2670    5.5590   -3.6030 c3        1 VG9     -0.132100
     28 H21N       -0.2500   -1.8130   -1.3060 hn        1 VG9      0.435800
     29 H22N       -0.4900   -1.5020    0.3460 hn        1 VG9      0.435800
     30 H41N        4.5400   -0.1390    2.5200 hn        1 VG9      0.420800
     31 H42N        2.9790   -0.2870    3.1220 hn        1 VG9      0.420800
     32 H7          6.1060   -0.4080   -3.3050 h4        1 VG9      0.048100
     33 H91C        7.9090    0.8210   -0.2930 h1        1 VG9      0.060200
     34 H92C        7.2840    2.1260   -1.4090 h1        1 VG9      0.060200
     35 H5A1        4.8440    1.9080    1.4850 hc        1 VG9      0.055367
     36 H5A2        6.3930    2.1740    0.6280 hc        1 VG9      0.055367
     37 H5A3        6.2610    0.7830    1.7720 hc        1 VG9      0.055367
     38 H10         8.3000   -0.4810   -2.3610 hn        1 VG9      0.398800
     39 H16         8.5070    3.1620   -2.7910 ha        1 VG9      0.144000
     40 H13         8.3870    0.2990   -6.8990 ha        1 VG9      0.145000
     41 H211        9.6040   -1.5640   -5.9190 h1        1 VG9      0.035200
     42 H212        9.9810   -1.6260   -4.1300 h1        1 VG9      0.035200
     43 H221        7.9250   -3.4340   -5.6180 hc        1 VG9      0.048033
     44 H222        9.5850   -3.9390   -5.0720 hc        1 VG9      0.048033
     45 H223        8.3090   -3.5020   -3.8520 hc        1 VG9      0.048033
     46 H14         8.6360    2.7950   -7.1090 ha        1 VG9      0.152000
     47 H511        9.3540    4.9950   -3.2640 h1        1 VG9      0.055200
     48 H512        9.0990    6.2960   -4.5250 h1        1 VG9      0.055200
     49 H521        7.2610    6.3210   -2.7880 hc        1 VG9      0.048700
     50 H522        6.6200    5.9200   -4.4390 hc        1 VG9      0.048700
     51 H523        6.8320    4.6080   -3.2140 hc        1 VG9      0.048700
@<TRIPOS>BOND
     1    1    2 1   
     2    1   28 1   
     3    1   29 1   
     4    2    3 ar  
     5    2    6 ar  
     6    3    4 ar  
     7    4    5 1   
     8    4   13 ar  
     9    5   30 1   
    10    5   31 1   
    11    6    7 ar  
    12    7    8 ar  
    13    7   13 ar  
    14    8    9 ar  
    15    9   10 ar  
    16    9   32 1   
    17   10   11 ar  
    18   10   14 1   
    19   11   12 1   
    20   11   13 ar  
    21   12   35 1   
    22   12   36 1   
    23   12   37 1   
    24   14   15 1   
    25   14   33 1   
    26   14   34 1   
    27   15   16 1   
    28   15   38 1   
    29   16   17 ar  
    30   16   24 ar  
    31   17   18 1   
    32   17   21 ar  
    33   18   19 1   
    34   19   20 1   
    35   19   41 1   
    36   19   42 1   
    37   20   43 1   
    38   20   44 1   
    39   20   45 1   
    40   21   22 ar  
    41   21   40 1   
    42   22   23 ar  
    43   22   46 1   
    44   23   24 ar  
    45   23   25 1   
    46   24   39 1   
    47   25   26 1   
    48   26   27 1   
    49   26   47 1   
    50   26   48 1   
    51   27   49 1   
    52   27   50 1   
    53   27   51 1   
@<TRIPOS>SUBSTRUCTURE
     1 VG9         1 TEMP              0 ****  ****    0 ROOT
