@<TRIPOS>MOLECULE
VG9
   54    56     1     0     0
SMALL
bcc


@<TRIPOS>ATOM
      1 N2          0.3520   -2.5930   -0.5900 n4        1 VG9     -0.816300
      2 C2          1.6220   -1.8220   -0.4440 ca        1 VG9      0.758900
      3 N3          1.8040   -1.1640    0.7690 nb        1 VG9     -0.677000
      4 C4          2.9270   -0.4430    0.8930 ca        1 VG9      0.596200
      5 N4          3.1020    0.1820    2.2260 n4        1 VG9     -0.841300
      6 N1          2.4790   -1.8440   -1.4760 nb        1 VG9     -0.547000
      7 C8A         3.6440   -1.1030   -1.3370 ca        1 VG9      0.695300
      8 N8          4.5380   -1.1670   -2.3930 nb        1 VG9     -0.561000
      9 C7          5.6580   -0.4790   -2.3040 ca        1 VG9      0.478200
     10 C6          6.0050    0.3730   -1.2000 ca        1 VG9     -0.172600
     11 C5          5.0980    0.5110   -0.1510 ca        1 VG9     -0.003300
     12 C5A         5.3350    1.5280    0.9030 c3        1 VG9     -0.118800
     13 C4A         3.9140   -0.3000   -0.1500 ca        1 VG9     -0.262600
     14 C9          7.2810    1.1630   -1.2040 c3        1 VG9      0.147100
     15 N10         8.3890    0.6850   -2.0860 n4        1 VG9     -0.612400
     16 C11         8.4040    1.2920   -3.4210 ca        1 VG9     -0.108400
     17 C12         8.3000    0.4780   -4.5680 ca        1 VG9      0.138100
     18 O2          8.0990   -0.8650   -4.3510 os        1 VG9     -0.411900
     19 C21         8.4190   -1.7520   -5.4590 c3        1 VG9      0.139400
     20 C22         8.4470   -3.1420   -4.8760 c3        1 VG9     -0.114100
     21 C13         8.3820    1.0690   -5.8460 ca        1 VG9     -0.141000
     22 C14         8.5750    2.4270   -5.9770 ca        1 VG9     -0.046000
     23 C15         8.6970    3.2460   -4.8170 ca        1 VG9      0.168100
     24 C16         8.6070    2.6870   -3.5450 ca        1 VG9     -0.207000
     25 O5          8.8920    4.5670   -5.0930 os        1 VG9     -0.292900
     26 C51         9.2390    5.4610   -4.0230 c3        1 VG9      0.117400
     27 C52         8.0140    5.9620   -3.3020 c3        1 VG9     -0.130100
     28 H21N       -0.4520   -1.9480   -0.5210 hn        1 VG9      0.509467
     29 H22N        0.2880   -3.3020    0.1580 hn        1 VG9      0.509467
     30 H41N        4.0750    0.0500    2.5380 hn        1 VG9      0.499467
     31 H42N        2.8910    1.1920    2.1620 hn        1 VG9      0.499467
     32 H7          6.3190   -0.5890   -3.2010 h4        1 VG9      0.108100
     33 H91C        7.7020    1.1740   -0.1510 hx        1 VG9      0.130200
     34 H92C        7.0370    2.2290   -1.5110 hx        1 VG9      0.130200
     35 H5A1        5.7430    1.0660    1.8390 hc        1 VG9      0.085033
     36 H5A2        6.0840    2.3010    0.5800 hc        1 VG9      0.085033
     37 H5A3        4.4090    2.1200    1.1150 hc        1 VG9      0.085033
     38 H10         8.3570   -0.3410   -2.1920 hn        1 VG9      0.476300
     39 H16         8.7190    3.3230   -2.6540 ha        1 VG9      0.156000
     40 H13         8.2990    0.4360   -6.7480 ha        1 VG9      0.188000
     41 H211        7.6130   -1.6380   -6.2300 h1        1 VG9      0.073200
     42 H212        9.4140   -1.4600   -5.8860 h1        1 VG9      0.073200
     43 H221        7.4640   -3.4040   -4.4190 hc        1 VG9      0.066033
     44 H222        8.6650   -3.8660   -5.7020 hc        1 VG9      0.066033
     45 H223        9.2440   -3.2360   -4.1000 hc        1 VG9      0.066033
     46 H14         8.6490    2.9050   -6.9720 ha        1 VG9      0.205000
     47 H511        9.7440    6.3010   -4.5850 h1        1 VG9      0.083700
     48 H512        9.9760    4.9790   -3.3320 h1        1 VG9      0.083700
     49 H521        8.3090    6.7810   -2.6000 hc        1 VG9      0.053700
     50 H522        7.5210    5.1470   -2.7200 hc        1 VG9      0.053700
     51 H523        7.2720    6.3710   -4.0320 hc        1 VG9      0.053700
     52 H23         0.3290   -3.0680   -1.5120 hn        1 VG9      0.509467
     53 H43         2.4640   -0.2390    2.9290 hn        1 VG9      0.499467
     54 H102        9.2830    0.9360   -1.6320 hn        1 VG9      0.476300
@<TRIPOS>BOND
     1    1    2 1   
     2    1   28 1   
     3    1   29 1   
     4    1   52 1   
     5    2    3 ar  
     6    2    6 ar  
     7    3    4 ar  
     8    4    5 1   
     9    4   13 ar  
    10    5   30 1   
    11    5   31 1   
    12    5   53 1   
    13    6    7 ar  
    14    7    8 ar  
    15    7   13 ar  
    16    8    9 ar  
    17    9   10 ar  
    18    9   32 1   
    19   10   11 ar  
    20   10   14 1   
    21   11   12 1   
    22   11   13 ar  
    23   12   35 1   
    24   12   36 1   
    25   12   37 1   
    26   14   15 1   
    27   14   33 1   
    28   14   34 1   
    29   15   16 1   
    30   15   38 1   
    31   15   54 1   
    32   16   17 ar  
    33   16   24 ar  
    34   17   18 1   
    35   17   21 ar  
    36   18   19 1   
    37   19   20 1   
    38   19   41 1   
    39   19   42 1   
    40   20   43 1   
    41   20   44 1   
    42   20   45 1   
    43   21   22 ar  
    44   21   40 1   
    45   22   23 ar  
    46   22   46 1   
    47   23   24 ar  
    48   23   25 1   
    49   24   39 1   
    50   25   26 1   
    51   26   27 1   
    52   26   47 1   
    53   26   48 1   
    54   27   49 1   
    55   27   50 1   
    56   27   51 1   
@<TRIPOS>SUBSTRUCTURE
     1 VG9         1 TEMP              0 ****  ****    0 ROOT
