@<TRIPOS>MOLECULE
VG9
   51    53     1     0     0
SMALL
bcc


@<TRIPOS>ATOM
      1 N2          3.9270   27.2600   -6.8280 nh        1 VG9     -0.924500
      2 C2          3.6190   27.7930   -5.5730 ca        1 VG9      0.915900
      3 N3          3.1330   26.8970   -4.6130 nb        1 VG9     -0.832000
      4 C4          2.6430   27.4240   -3.4720 ca        1 VG9      0.735200
      5 N4          2.1930   26.5340   -2.5040 nh        1 VG9     -0.946500
      6 N1          3.8070   29.1340   -5.3830 nb        1 VG9     -0.763000
      7 C8A         3.3090   29.6640   -4.2140 ca        1 VG9      0.715300
      8 N8          3.5310   31.0230   -3.9930 nb        1 VG9     -0.652000
      9 C7          3.0000   31.5650   -2.9170 ca        1 VG9      0.454200
     10 C6          2.1560   30.8840   -1.9850 ca        1 VG9     -0.290600
     11 C5          1.9050   29.5320   -2.1900 ca        1 VG9      0.026700
     12 C5A         0.8860   28.8530   -1.3510 c3        1 VG9     -0.075800
     13 C4A         2.5840   28.8650   -3.2480 ca        1 VG9     -0.382600
     14 C9          1.5220   31.6160   -0.8380 c3        1 VG9      0.234100
     15 N10         2.1230   32.8590   -0.4100 nh        1 VG9     -0.704600
     16 C11         1.7020   34.0540   -1.0340 ca        1 VG9      0.140600
     17 C12         2.6450   34.9940   -1.5280 ca        1 VG9     -0.000900
     18 O2          3.9840   34.6230   -1.5840 os        1 VG9     -0.354900
     19 C21         4.7990   35.2990   -0.6110 c3        1 VG9      0.128400
     20 C22         6.2230   34.8760   -0.8800 c3        1 VG9     -0.101100
     21 C13         2.2410   36.2300   -2.0430 ca        1 VG9     -0.090000
     22 C14         0.8950   36.5560   -2.1030 ca        1 VG9     -0.172000
     23 C15        -0.0540   35.6300   -1.6290 ca        1 VG9      0.147100
     24 C16         0.3330   34.3960   -1.1020 ca        1 VG9     -0.224000
     25 O5         -1.3590   36.0730   -1.7140 os        1 VG9     -0.329900
     26 C51        -2.4010   35.1630   -1.3590 c3        1 VG9      0.127400
     27 C52        -2.6330   34.1200   -2.4260 c3        1 VG9     -0.132100
     28 H21N        4.5000   27.8170   -7.4200 hn        1 VG9      0.429800
     29 H22N        4.0580   26.2770   -6.8790 hn        1 VG9      0.429800
     30 H41N        2.3660   25.5650   -2.6550 hn        1 VG9      0.423300
     31 H42N        2.2630   26.8420   -1.5630 hn        1 VG9      0.423300
     32 H7          3.2350   32.6440   -2.7810 h4        1 VG9      0.048100
     33 H91C        0.4360   31.7940   -1.0910 h1        1 VG9      0.060700
     34 H92C        1.5590   30.9420    0.0710 h1        1 VG9      0.060700
     35 H5A1        0.3270   28.0790   -1.9330 hc        1 VG9      0.055033
     36 H5A2        1.3590   28.3830   -0.4520 hc        1 VG9      0.055033
     37 H5A3        0.1210   29.5840   -0.9840 hc        1 VG9      0.055033
     38 H10         3.1270   32.7970   -0.3930 hn        1 VG9      0.398800
     39 H16        -0.4220   33.6920   -0.7250 ha        1 VG9      0.144000
     40 H13         3.0030   36.9320   -2.4150 ha        1 VG9      0.145000
     41 H211        4.6720   36.4080   -0.7260 h1        1 VG9      0.035200
     42 H212        4.4660   34.9940    0.4160 h1        1 VG9      0.035200
     43 H221        6.5250   35.1610   -1.9160 hc        1 VG9      0.047700
     44 H222        6.9000   35.3790   -0.1490 hc        1 VG9      0.047700
     45 H223        6.3290   33.7700   -0.7770 hc        1 VG9      0.047700
     46 H14         0.5570   37.5180   -2.5120 ha        1 VG9      0.152000
     47 H511       -2.1970   34.6980   -0.3610 h1        1 VG9      0.055700
     48 H512       -3.2920   35.8470   -1.2710 h1        1 VG9      0.055700
     49 H521       -2.8450   34.6090   -3.4070 hc        1 VG9      0.049033
     50 H522       -1.7330   33.4710   -2.5490 hc        1 VG9      0.049033
     51 H523       -3.5040   33.4820   -2.1430 hc        1 VG9      0.049033
@<TRIPOS>BOND
     1    1    2 1   
     2    1   28 1   
     3    1   29 1   
     4    2    3 ar  
     5    2    6 ar  
     6    3    4 ar  
     7    4    5 1   
     8    4   13 ar  
     9    5   30 1   
    10    5   31 1   
    11    6    7 ar  
    12    7    8 ar  
    13    7   13 ar  
    14    8    9 ar  
    15    9   10 ar  
    16    9   32 1   
    17   10   11 ar  
    18   10   14 1   
    19   11   12 1   
    20   11   13 ar  
    21   12   35 1   
    22   12   36 1   
    23   12   37 1   
    24   14   15 1   
    25   14   33 1   
    26   14   34 1   
    27   15   16 1   
    28   15   38 1   
    29   16   17 ar  
    30   16   24 ar  
    31   17   18 1   
    32   17   21 ar  
    33   18   19 1   
    34   19   20 1   
    35   19   41 1   
    36   19   42 1   
    37   20   43 1   
    38   20   44 1   
    39   20   45 1   
    40   21   22 ar  
    41   21   40 1   
    42   22   23 ar  
    43   22   46 1   
    44   23   24 ar  
    45   23   25 1   
    46   24   39 1   
    47   25   26 1   
    48   26   27 1   
    49   26   47 1   
    50   26   48 1   
    51   27   49 1   
    52   27   50 1   
    53   27   51 1   
@<TRIPOS>SUBSTRUCTURE
     1 VG9         1 TEMP              0 ****  ****    0 ROOT
