@<TRIPOS>MOLECULE
VGA
   46    50     1     0     0
SMALL
bcc


@<TRIPOS>ATOM
      1 N1         -1.2570   -0.1020   -1.3560 ne        1 VGA     -0.649100
      2 C2         -1.7020    0.3030   -0.1970 c2        1 VGA      0.604200
      3 C3         -0.9630    0.0830    1.1540 c3        1 VGA      0.135500
      4 C4          1.2430    0.3790    0.2270 ce        1 VGA      0.552500
      5 N5          0.3490    0.6830    1.1130 n2        1 VGA     -0.598900
      6 C6          1.1340   -0.6280   -0.8500 ca        1 VGA     -0.213900
      7 C7         -0.0870   -0.8510   -1.5330 ca        1 VGA      0.195400
      8 C8         -0.1140   -1.8380   -2.5550 ca        1 VGA     -0.122000
      9 C9          1.0200   -2.5710   -2.8640 ca        1 VGA     -0.110000
     10 C10         2.2190   -2.3450   -2.1820 ca        1 VGA     -0.147000
     11 C11         2.2710   -1.3750   -1.1910 ca        1 VGA     -0.088000
     12 C12         2.5410    1.1040    0.2700 ca        1 VGA     -0.141900
     13 N13        -2.9610    0.9280   -0.0870 nh        1 VGA     -0.678600
     14 C14        -3.6370    1.5370   -1.2540 cy        1 VGA      0.148300
     15 C15        -3.9380    2.8090   -0.4030 cy        1 VGA      0.096100
     16 C16        -3.1050    2.1470    0.7400 cy        1 VGA      0.148300
     17 C17         3.0400    1.6990   -0.8960 ca        1 VGA     -0.099000
     18 C18         4.2470    2.3940   -0.8600 ca        1 VGA     -0.138500
     19 C19         4.9620    2.4970    0.3340 ca        1 VGA     -0.119000
     20 C20         4.4650    1.9080    1.4960 ca        1 VGA     -0.138500
     21 C21         3.2530    1.2170    1.4690 ca        1 VGA     -0.099000
     22 C22        -1.0410   -1.3500    1.5550 cc        1 VGA     -0.141400
     23 S23        -2.2990   -2.3810    1.1270 ss        1 VGA      0.064200
     24 C24        -1.7080   -3.6590    2.0140 cc        1 VGA     -0.180100
     25 C25        -0.5350   -3.3360    2.6620 cd        1 VGA     -0.159000
     26 C26        -0.1470   -1.9870    2.3980 cd        1 VGA     -0.140000
     27 O27        -3.3350    3.9330   -0.9850 oh        1 VGA     -0.578800
     28 H3         -1.4900    0.6680    1.9760 h1        1 VGA      0.092700
     29 H11         3.2160   -1.1860   -0.6560 ha        1 VGA      0.142000
     30 H8         -1.0500   -2.0220   -3.1060 ha        1 VGA      0.147000
     31 H9          0.9760   -3.3380   -3.6520 ha        1 VGA      0.134000
     32 H10         3.1150   -2.9320   -2.4290 ha        1 VGA      0.135000
     33 H17         2.4760    1.6150   -1.8370 ha        1 VGA      0.144000
     34 H21         2.8560    0.7650    2.3910 ha        1 VGA      0.144000
     35 H141       -2.9980    1.7410   -2.1470 h1        1 VGA      0.078200
     36 H142       -4.5370    0.9460   -1.5420 h1        1 VGA      0.078200
     37 H161       -3.6750    1.9280    1.6740 h1        1 VGA      0.078200
     38 H162       -2.1570    2.6880    0.9760 h1        1 VGA      0.078200
     39 H15        -5.0110    2.9870   -0.1630 h1        1 VGA      0.059700
     40 H27        -3.4870    4.6760   -0.3870 ho        1 VGA      0.407000
     41 H18         4.6350    2.8630   -1.7760 ha        1 VGA      0.133500
     42 H19         5.9150    3.0450    0.3580 ha        1 VGA      0.132000
     43 H20         5.0250    1.9920    2.4390 ha        1 VGA      0.133500
     44 H26         0.7500   -1.5320    2.8240 ha        1 VGA      0.157000
     45 H24        -2.2070   -4.6260    2.0590 h4        1 VGA      0.170000
     46 H25         0.0400   -4.0080    3.3010 ha        1 VGA      0.152000
@<TRIPOS>BOND
     1    1    2 2   
     2    1    7 1   
     3    2    3 1   
     4    2   13 1   
     5    3    5 1   
     6    3   22 1   
     7    3   28 1   
     8    4    5 2   
     9    4    6 1   
    10    4   12 1   
    11    6    7 ar  
    12    6   11 ar  
    13    7    8 ar  
    14    8    9 ar  
    15    8   30 1   
    16    9   10 ar  
    17    9   31 1   
    18   10   11 ar  
    19   10   32 1   
    20   11   29 1   
    21   12   17 ar  
    22   12   21 ar  
    23   13   14 1   
    24   13   16 1   
    25   14   15 1   
    26   14   35 1   
    27   14   36 1   
    28   15   16 1   
    29   15   27 1   
    30   15   39 1   
    31   16   37 1   
    32   16   38 1   
    33   17   18 ar  
    34   17   33 1   
    35   18   19 ar  
    36   18   41 1   
    37   19   20 ar  
    38   19   42 1   
    39   20   21 ar  
    40   20   43 1   
    41   21   34 1   
    42   22   23 1   
    43   22   26 2   
    44   23   24 1   
    45   24   25 2   
    46   24   45 1   
    47   25   26 1   
    48   25   46 1   
    49   26   44 1   
    50   27   40 1   
@<TRIPOS>SUBSTRUCTURE
     1 VGA         1 TEMP              0 ****  ****    0 ROOT
