@<TRIPOS>MOLECULE
VGA
   46    50     1     0     0
SMALL
bcc


@<TRIPOS>ATOM
      1 N1         -0.1180    0.1080    0.0130 ne        1 VGA     -0.649100
      2 C2          1.1850    0.1770    0.0440 c2        1 VGA      0.604200
      3 C3          2.0370    0.1090    1.3440 c3        1 VGA      0.135500
      4 C4          0.6100   -1.4980    2.4370 ce        1 VGA      0.552500
      5 N5          1.7880   -1.1270    2.0450 n2        1 VGA     -0.598900
      6 C6         -0.6580   -0.7530    2.2960 ca        1 VGA     -0.213900
      7 C7         -0.9320    0.0340    1.1500 ca        1 VGA      0.194400
      8 C8         -2.1730    0.7230    1.0890 ca        1 VGA     -0.122000
      9 C9         -3.0830    0.6400    2.1310 ca        1 VGA     -0.110000
     10 C10        -2.8020   -0.1370    3.2580 ca        1 VGA     -0.147000
     11 C11        -1.6030   -0.8310    3.3310 ca        1 VGA     -0.088000
     12 C12         0.4840   -2.8190    3.1100 ca        1 VGA     -0.141900
     13 N13         1.9240    0.3940   -1.1370 nh        1 VGA     -0.678600
     14 C14         1.3530    0.1330   -2.4760 cy        1 VGA      0.148300
     15 C15         2.6570   -0.6240   -2.8740 cy        1 VGA      0.096100
     16 C16         3.1370   -0.4120   -1.4030 cy        1 VGA      0.148300
     17 C17        -0.4790   -3.7330    2.6650 ca        1 VGA     -0.099000
     18 C18        -0.5930   -4.9780    3.2800 ca        1 VGA     -0.138500
     19 C19         0.2490   -5.3150    4.3410 ca        1 VGA     -0.119000
     20 C20         1.2100   -4.4070    4.7830 ca        1 VGA     -0.138500
     21 C21         1.3350   -3.1620    4.1670 ca        1 VGA     -0.099000
     22 C22         1.8900    1.3710    2.1230 cc        1 VGA     -0.141400
     23 S23         1.5560    2.8690    1.4340 ss        1 VGA      0.064200
     24 C24         1.6680    3.6880    2.8780 cc        1 VGA     -0.180100
     25 C25         1.9640    2.8420    3.9260 cd        1 VGA     -0.159000
     26 C26         2.0980    1.4910    3.4860 cd        1 VGA     -0.140000
     27 O27         2.3610   -1.9550   -3.2020 oh        1 VGA     -0.578800
     28 H3          3.1410    0.0350    1.0720 h1        1 VGA      0.092700
     29 H11        -1.3790   -1.4520    4.2130 ha        1 VGA      0.142000
     30 H8         -2.4110    1.3330    0.2030 ha        1 VGA      0.147000
     31 H9         -4.0350    1.1900    2.0690 ha        1 VGA      0.134000
     32 H10        -3.5270   -0.1970    4.0820 ha        1 VGA      0.135000
     33 H17        -1.1440   -3.4640    1.8290 ha        1 VGA      0.144000
     34 H21         2.1030   -2.4530    4.5090 ha        1 VGA      0.144000
     35 H141        0.4390   -0.5080   -2.5100 h1        1 VGA      0.078200
     36 H142        1.1840    1.0880   -3.0260 h1        1 VGA      0.078200
     37 H161        3.2260   -1.3600   -0.8190 h1        1 VGA      0.078200
     38 H162        4.0580    0.2070   -1.2900 h1        1 VGA      0.078200
     39 H15         3.2850   -0.1310   -3.6500 h1        1 VGA      0.059700
     40 H27         3.2030   -2.3980   -3.3680 ho        1 VGA      0.407000
     41 H18        -1.3480   -5.6950    2.9260 ha        1 VGA      0.133500
     42 H19         0.1550   -6.2980    4.8250 ha        1 VGA      0.132000
     43 H20         1.8770   -4.6730    5.6160 ha        1 VGA      0.133500
     44 H26         2.3400    0.6660    4.1590 ha        1 VGA      0.157000
     45 H24         1.5190    4.7630    2.9590 h4        1 VGA      0.170000
     46 H25         2.0870    3.1460    4.9680 ha        1 VGA      0.152000
@<TRIPOS>BOND
     1    1    2 2   
     2    1    7 1   
     3    2    3 1   
     4    2   13 1   
     5    3    5 1   
     6    3   22 1   
     7    3   28 1   
     8    4    5 2   
     9    4    6 1   
    10    4   12 1   
    11    6    7 ar  
    12    6   11 ar  
    13    7    8 ar  
    14    8    9 ar  
    15    8   30 1   
    16    9   10 ar  
    17    9   31 1   
    18   10   11 ar  
    19   10   32 1   
    20   11   29 1   
    21   12   17 ar  
    22   12   21 ar  
    23   13   14 1   
    24   13   16 1   
    25   14   15 1   
    26   14   35 1   
    27   14   36 1   
    28   15   16 1   
    29   15   27 1   
    30   15   39 1   
    31   16   37 1   
    32   16   38 1   
    33   17   18 ar  
    34   17   33 1   
    35   18   19 ar  
    36   18   41 1   
    37   19   20 ar  
    38   19   42 1   
    39   20   21 ar  
    40   20   43 1   
    41   21   34 1   
    42   22   23 1   
    43   22   26 2   
    44   23   24 1   
    45   24   25 2   
    46   24   45 1   
    47   25   26 1   
    48   25   46 1   
    49   26   44 1   
    50   27   40 1   
@<TRIPOS>SUBSTRUCTURE
     1 VGA         1 TEMP              0 ****  ****    0 ROOT
