@<TRIPOS>MOLECULE
VGA
   46    50     1     0     0
SMALL
bcc


@<TRIPOS>ATOM
      1 N1         -0.0720    0.0850    0.0080 ne        1 VGA     -0.653100
      2 C2          1.2300    0.1620    0.0630 c2        1 VGA      0.606200
      3 C3          2.0610    0.1000    1.3760 c3        1 VGA      0.136500
      4 C4          0.6190   -1.5060    2.4530 ce        1 VGA      0.551500
      5 N5          1.8020   -1.1330    2.0800 n2        1 VGA     -0.595900
      6 C6         -0.6500   -0.7670    2.2860 ca        1 VGA     -0.212900
      7 C7         -0.9060    0.0120    1.1310 ca        1 VGA      0.195400
      8 C8         -2.1480    0.6960    1.0440 ca        1 VGA     -0.122000
      9 C9         -3.0770    0.6150    2.0700 ca        1 VGA     -0.110000
     10 C10        -2.8120   -0.1540    3.2060 ca        1 VGA     -0.147000
     11 C11        -1.6120   -0.8430    3.3040 ca        1 VGA     -0.088000
     12 C12         0.4870   -2.8230    3.1330 ca        1 VGA     -0.140900
     13 N13         1.9880    0.3840   -1.1050 nh        1 VGA     -0.679600
     14 C14         1.4390    0.1290   -2.4540 cy        1 VGA      0.148800
     15 C15         2.7530   -0.6230   -2.8340 cy        1 VGA      0.096100
     16 C16         3.2090   -0.4160   -1.3570 cy        1 VGA      0.148800
     17 C17        -0.4740   -3.7380    2.6850 ca        1 VGA     -0.098500
     18 C18        -0.5930   -4.9800    3.3060 ca        1 VGA     -0.138000
     19 C19         0.2400   -5.3130    4.3750 ca        1 VGA     -0.119000
     20 C20         1.1980   -4.4030    4.8200 ca        1 VGA     -0.138000
     21 C21         1.3290   -3.1610    4.1980 ca        1 VGA     -0.098500
     22 C22         1.8990    1.3660    2.1460 cc        1 VGA     -0.141400
     23 S23         1.5780    2.8600    1.4440 ss        1 VGA      0.063200
     24 C24         1.6630    3.6860    2.8860 cc        1 VGA     -0.179100
     25 C25         1.9400    2.8460    3.9440 cd        1 VGA     -0.159000
     26 C26         2.0820    1.4920    3.5120 cd        1 VGA     -0.140000
     27 O27         2.5930   -1.9920   -3.0980 oh        1 VGA     -0.581800
     28 H3          3.1690    0.0250    1.1220 h1        1 VGA      0.094700
     29 H11        -1.4020   -1.4580    4.1940 ha        1 VGA      0.142000
     30 H8         -2.3730    1.3010    0.1510 ha        1 VGA      0.147000
     31 H9         -4.0290    1.1610    1.9880 ha        1 VGA      0.133000
     32 H10        -3.5520   -0.2130    4.0180 ha        1 VGA      0.135000
     33 H17        -1.1310   -3.4740    1.8430 ha        1 VGA      0.144000
     34 H21         2.0960   -2.4510    4.5420 ha        1 VGA      0.144000
     35 H141        0.5270   -0.5130   -2.5010 h1        1 VGA      0.078200
     36 H142        1.2680    1.0890   -2.9950 h1        1 VGA      0.078200
     37 H161        3.2980   -1.3680   -0.7790 h1        1 VGA      0.078200
     38 H162        4.1270    0.2070   -1.2380 h1        1 VGA      0.078200
     39 H15         3.3820   -0.1240   -3.6050 h1        1 VGA      0.059700
     40 H27         2.1730   -2.0620   -3.9640 ho        1 VGA      0.408000
     41 H18        -1.3460   -5.6990    2.9500 ha        1 VGA      0.134000
     42 H19         0.1420   -6.2930    4.8630 ha        1 VGA      0.132000
     43 H20         1.8590   -4.6660    5.6590 ha        1 VGA      0.134000
     44 H26         2.3120    0.6700    4.1940 ha        1 VGA      0.158000
     45 H24         1.5120    4.7620    2.9590 h4        1 VGA      0.170000
     46 H25         2.0430    3.1540    4.9860 ha        1 VGA      0.152000
@<TRIPOS>BOND
     1    1    2 2   
     2    1    7 1   
     3    2    3 1   
     4    2   13 1   
     5    3    5 1   
     6    3   22 1   
     7    3   28 1   
     8    4    5 2   
     9    4    6 1   
    10    4   12 1   
    11    6    7 ar  
    12    6   11 ar  
    13    7    8 ar  
    14    8    9 ar  
    15    8   30 1   
    16    9   10 ar  
    17    9   31 1   
    18   10   11 ar  
    19   10   32 1   
    20   11   29 1   
    21   12   17 ar  
    22   12   21 ar  
    23   13   14 1   
    24   13   16 1   
    25   14   15 1   
    26   14   35 1   
    27   14   36 1   
    28   15   16 1   
    29   15   27 1   
    30   15   39 1   
    31   16   37 1   
    32   16   38 1   
    33   17   18 ar  
    34   17   33 1   
    35   18   19 ar  
    36   18   41 1   
    37   19   20 ar  
    38   19   42 1   
    39   20   21 ar  
    40   20   43 1   
    41   21   34 1   
    42   22   23 1   
    43   22   26 2   
    44   23   24 1   
    45   24   25 2   
    46   24   45 1   
    47   25   26 1   
    48   25   46 1   
    49   26   44 1   
    50   27   40 1   
@<TRIPOS>SUBSTRUCTURE
     1 VGA         1 TEMP              0 ****  ****    0 ROOT
