@<TRIPOS>MOLECULE
VGA
   46    50     1     0     0
SMALL
bcc


@<TRIPOS>ATOM
      1 N1         -0.1170    0.1140    0.0150 ne        1 VGA     -0.649100
      2 C2          1.1870    0.1850    0.0500 c2        1 VGA      0.604200
      3 C3          2.0370    0.1150    1.3500 c3        1 VGA      0.135500
      4 C4          0.6100   -1.4990    2.4350 ce        1 VGA      0.552500
      5 N5          1.7880   -1.1240    2.0470 n2        1 VGA     -0.597900
      6 C6         -0.6590   -0.7550    2.2950 ca        1 VGA     -0.213900
      7 C7         -0.9320    0.0350    1.1510 ca        1 VGA      0.195400
      8 C8         -2.1740    0.7220    1.0900 ca        1 VGA     -0.122000
      9 C9         -3.0860    0.6340    2.1300 ca        1 VGA     -0.110000
     10 C10        -2.8060   -0.1460    3.2550 ca        1 VGA     -0.147000
     11 C11        -1.6060   -0.8390    3.3280 ca        1 VGA     -0.088000
     12 C12         0.4850   -2.8210    3.1040 ca        1 VGA     -0.141900
     13 N13         1.9280    0.4080   -1.1290 nh        1 VGA     -0.678600
     14 C14         1.3590    0.1500   -2.4710 cy        1 VGA      0.148300
     15 C15         2.6650   -0.6040   -2.8680 cy        1 VGA      0.096100
     16 C16         3.1420   -0.3960   -1.3950 cy        1 VGA      0.148300
     17 C17        -0.4750   -3.7360    2.6540 ca        1 VGA     -0.099000
     18 C18        -0.5880   -4.9830    3.2650 ca        1 VGA     -0.138500
     19 C19         0.2520   -5.3220    4.3270 ca        1 VGA     -0.119000
     20 C20         1.2100   -4.4140    4.7740 ca        1 VGA     -0.138500
     21 C21         1.3340   -3.1660    4.1620 ca        1 VGA     -0.099000
     22 C22         1.8850    1.3740    2.1330 cc        1 VGA     -0.141400
     23 S23         1.5510    2.8730    1.4480 ss        1 VGA      0.064200
     24 C24         1.6580    3.6880    2.8960 cc        1 VGA     -0.180100
     25 C25         1.9530    2.8400    3.9420 cd        1 VGA     -0.159000
     26 C26         2.0900    1.4890    3.4970 cd        1 VGA     -0.140000
     27 O27         2.3720   -1.9340   -3.2010 oh        1 VGA     -0.578800
     28 H3          3.1410    0.0430    1.0810 h1        1 VGA      0.092700
     29 H11        -1.3830   -1.4620    4.2090 ha        1 VGA      0.142000
     30 H8         -2.4120    1.3350    0.2060 ha        1 VGA      0.147000
     31 H9         -4.0390    1.1820    2.0680 ha        1 VGA      0.134000
     32 H10        -3.5320   -0.2100    4.0770 ha        1 VGA      0.135000
     33 H17        -1.1380   -3.4660    1.8180 ha        1 VGA      0.144000
     34 H21         2.1000   -2.4560    4.5080 ha        1 VGA      0.144000
     35 H141        0.4460   -0.4930   -2.5080 h1        1 VGA      0.078200
     36 H142        1.1890    1.1070   -3.0180 h1        1 VGA      0.078200
     37 H161        4.0620    0.2250   -1.2790 h1        1 VGA      0.078200
     38 H162        3.2320   -1.3450   -0.8140 h1        1 VGA      0.078200
     39 H15         3.2940   -0.1080   -3.6410 h1        1 VGA      0.059700
     40 H27         3.2150   -2.3750   -3.3670 ho        1 VGA      0.407000
     41 H18        -1.3410   -5.7010    2.9070 ha        1 VGA      0.133500
     42 H19         0.1590   -6.3070    4.8080 ha        1 VGA      0.132000
     43 H20         1.8760   -4.6810    5.6080 ha        1 VGA      0.133500
     44 H26         2.3310    0.6630    4.1690 ha        1 VGA      0.157000
     45 H24         1.5070    4.7630    2.9790 h4        1 VGA      0.170000
     46 H25         2.0720    3.1390    4.9840 ha        1 VGA      0.152000
@<TRIPOS>BOND
     1    1    2 2   
     2    1    7 1   
     3    2    3 1   
     4    2   13 1   
     5    3    5 1   
     6    3   22 1   
     7    3   28 1   
     8    4    5 2   
     9    4    6 1   
    10    4   12 1   
    11    6    7 ar  
    12    6   11 ar  
    13    7    8 ar  
    14    8    9 ar  
    15    8   30 1   
    16    9   10 ar  
    17    9   31 1   
    18   10   11 ar  
    19   10   32 1   
    20   11   29 1   
    21   12   17 ar  
    22   12   21 ar  
    23   13   14 1   
    24   13   16 1   
    25   14   15 1   
    26   14   35 1   
    27   14   36 1   
    28   15   16 1   
    29   15   27 1   
    30   15   39 1   
    31   16   37 1   
    32   16   38 1   
    33   17   18 ar  
    34   17   33 1   
    35   18   19 ar  
    36   18   41 1   
    37   19   20 ar  
    38   19   42 1   
    39   20   21 ar  
    40   20   43 1   
    41   21   34 1   
    42   22   23 1   
    43   22   26 2   
    44   23   24 1   
    45   24   25 2   
    46   24   45 1   
    47   25   26 1   
    48   25   46 1   
    49   26   44 1   
    50   27   40 1   
@<TRIPOS>SUBSTRUCTURE
     1 VGA         1 TEMP              0 ****  ****    0 ROOT
