@<TRIPOS>MOLECULE
VGB
   52    54     1     0     0
SMALL
bcc


@<TRIPOS>ATOM
      1 CBA        -1.4880    5.3490    0.0560 c3        1 VGB     -0.094100
      2 CAN        -2.4990    4.2750    0.3650 c3        1 VGB     -0.144400
      3 CAL        -2.0130    2.9160   -0.0860 c         1 VGB      0.668100
      4 OAM        -1.0460    2.7490   -0.8570 o         1 VGB     -0.622100
      5 NAK        -2.6670    1.7940    0.4280 n         1 VGB     -0.572900
      6 CAC        -2.5580    0.5070   -0.2020 c3        1 VGB      0.180000
      7 CAB        -3.7370   -0.4310    0.1800 c3        1 VGB      0.129100
      8 OAG        -4.8830    0.1260   -0.4300 oh        1 VGB     -0.585800
      9 CAA        -3.4890   -1.8570   -0.3510 c3        1 VGB      0.097100
     10 OAH        -4.6420   -2.5950    0.0080 oh        1 VGB     -0.582800
     11 CAF        -2.2640   -2.4970    0.3550 c3        1 VGB     -0.031000
     12 CAI        -1.9200   -3.8400   -0.3300 c3        1 VGB      0.121400
     13 OAJ        -0.9540   -4.5420    0.4130 oh        1 VGB     -0.591800
     14 NAE        -1.1460   -1.5710    0.3840 na        1 VGB     -0.019100
     15 CAQ         0.2040   -1.8750    0.6070 cc        1 VGB     -0.118300
     16 CAD        -1.2620   -0.2140    0.1430 cc        1 VGB     -0.009900
     17 NAO        -0.0080    0.3410    0.2240 na        1 VGB     -0.112100
     18 CAP         0.9250   -0.6720    0.5080 cd        1 VGB     -0.063600
     19 CAR         2.3770   -0.4520    0.6800 c3        1 VGB     -0.031100
     20 CAS         3.0050    0.2540   -0.5120 c3        1 VGB     -0.030100
     21 CAT         4.4800    0.3630   -0.3380 ca        1 VGB     -0.108300
     22 CAU         5.2970   -0.7500   -0.5670 ca        1 VGB     -0.122500
     23 CAV         6.6780   -0.6480   -0.4170 ca        1 VGB     -0.121000
     24 CAW         7.2540    0.5650   -0.0390 ca        1 VGB     -0.113000
     25 CAX         6.4440    1.6780    0.1870 ca        1 VGB     -0.121000
     26 CAY         5.0610    1.5790    0.0380 ca        1 VGB     -0.122500
     27 HBA        -1.2320    5.3480   -1.0320 hc        1 VGB      0.057367
     28 HBAA       -1.9070    6.3480    0.3280 hc        1 VGB      0.057367
     29 HBAB       -0.5480    5.1850    0.6350 hc        1 VGB      0.057367
     30 HAN        -2.7200    4.2620    1.4660 hc        1 VGB      0.081200
     31 HANA       -3.4620    4.4860   -0.1760 hc        1 VGB      0.081200
     32 HNAK       -3.4910    1.9390    0.9710 hn        1 VGB      0.336500
     33 HAC        -2.5420    0.6370   -1.3330 h1        1 VGB      0.118700
     34 HAB        -3.8750   -0.4750    1.2980 h1        1 VGB      0.076700
     35 HOAG       -5.6280   -0.4570   -0.2160 ho        1 VGB      0.446000
     36 HAA        -3.3390   -1.8380   -1.4640 h1        1 VGB      0.081700
     37 HOAH       -4.8340   -3.2150   -0.7080 ho        1 VGB      0.434000
     38 HAF        -2.5460   -2.7130    1.4330 h1        1 VGB      0.109700
     39 HAI        -2.8740   -4.4220   -0.4350 h1        1 VGB      0.079200
     40 HAIA       -1.4590   -3.6770   -1.3430 h1        1 VGB      0.079200
     41 HOAJ       -1.4080   -5.0500    1.0990 ho        1 VGB      0.426000
     42 HAQ         0.5420   -2.9010    0.8020 h4        1 VGB      0.246000
     43 HNAO        0.2020    1.3030    0.0250 hn        1 VGB      0.376700
     44 HAR         2.5550    0.1510    1.6140 hc        1 VGB      0.089700
     45 HARA        2.8710   -1.4520    0.8260 hc        1 VGB      0.089700
     46 HAS         2.7810   -0.3210   -1.4510 hc        1 VGB      0.054700
     47 HASA        2.5580    1.2770   -0.6300 hc        1 VGB      0.054700
     48 HAU         4.8470   -1.7060   -0.8730 ha        1 VGB      0.129000
     49 HAV         7.3160   -1.5260   -0.6010 ha        1 VGB      0.142500
     50 HAW         8.3450    0.6450    0.0770 ha        1 VGB      0.145000
     51 HAX         6.8950    2.6380    0.4810 ha        1 VGB      0.142500
     52 HAY         4.4280    2.4620    0.2110 ha        1 VGB      0.129000
@<TRIPOS>BOND
     1    1    2 1   
     2    1   27 1   
     3    1   28 1   
     4    1   29 1   
     5    2    3 1   
     6    2   30 1   
     7    2   31 1   
     8    3    4 2   
     9    3    5 1   
    10    5    6 1   
    11    5   32 1   
    12    6    7 1   
    13    6   16 1   
    14    6   33 1   
    15    7    8 1   
    16    7    9 1   
    17    7   34 1   
    18    8   35 1   
    19    9   10 1   
    20    9   11 1   
    21    9   36 1   
    22   10   37 1   
    23   11   12 1   
    24   11   14 1   
    25   11   38 1   
    26   12   13 1   
    27   12   39 1   
    28   12   40 1   
    29   13   41 1   
    30   14   15 1   
    31   14   16 2   
    32   15   18 2   
    33   15   42 1   
    34   16   17 1   
    35   17   18 1   
    36   17   43 1   
    37   18   19 1   
    38   19   20 1   
    39   19   44 1   
    40   19   45 1   
    41   20   21 1   
    42   20   46 1   
    43   20   47 1   
    44   21   22 ar  
    45   21   26 ar  
    46   22   23 ar  
    47   22   48 1   
    48   23   24 ar  
    49   23   49 1   
    50   24   25 ar  
    51   24   50 1   
    52   25   26 ar  
    53   25   51 1   
    54   26   52 1   
@<TRIPOS>SUBSTRUCTURE
     1 VGB         1 TEMP              0 ****  ****    0 ROOT
