@<TRIPOS>MOLECULE
VGB
   53    55     1     0     0
SMALL
bcc


@<TRIPOS>ATOM
      1 CBA        -0.4160    0.9320    1.1340 c3        1 VGB     -0.112100
      2 CAN         1.0770    0.8540    0.9240 c3        1 VGB     -0.143400
      3 CAL         1.6560   -0.2970    1.6900 c         1 VGB      0.579100
      4 OAM         1.1160   -1.1340    2.3920 o         1 VGB     -0.435100
      5 NAK         3.1820   -0.4680    1.5600 n4        1 VGB     -0.706800
      6 CAC         3.9160   -0.3770    2.8680 c3        1 VGB      0.212800
      7 CAB         5.3290    0.2380    2.6380 c3        1 VGB      0.124100
      8 OAG         5.0840    1.5420    2.1600 oh        1 VGB     -0.615800
      9 CAA         6.1190    0.2470    3.9610 c3        1 VGB      0.110100
     10 OAH         7.3410    0.8730    3.6370 oh        1 VGB     -0.573800
     11 CAF         6.4080   -1.2100    4.4100 c3        1 VGB     -0.047000
     12 CAI         6.9930   -1.1940    5.8470 c3        1 VGB      0.129400
     13 OAJ         7.4060   -2.4920    6.1940 oh        1 VGB     -0.599800
     14 NAE         5.2150   -2.0430    4.2930 na        1 VGB      0.048900
     15 CAQ         5.0020   -3.2790    4.8910 cc        1 VGB     -0.093300
     16 CAD         4.0770   -1.6870    3.5840 cc        1 VGB     -0.141900
     17 NAO         3.1470   -2.7000    3.7380 na        1 VGB     -0.110100
     18 CAP         3.6920   -3.7040    4.5410 cd        1 VGB     -0.009600
     19 CAR         3.0190   -4.9600    4.9340 c3        1 VGB     -0.053100
     20 CAS         1.5800   -5.0760    4.4590 c3        1 VGB     -0.027100
     21 CAT         0.9940   -6.3690    4.9080 ca        1 VGB     -0.131300
     22 CAU         0.1630   -6.4140    6.0320 ca        1 VGB     -0.120500
     23 CAV        -0.3960   -7.6250    6.4400 ca        1 VGB     -0.115000
     24 CAW        -0.1290   -8.7940    5.7280 ca        1 VGB     -0.097000
     25 CAX         0.6980   -8.7520    4.6040 ca        1 VGB     -0.115000
     26 CAY         1.2580   -7.5440    4.1940 ca        1 VGB     -0.120500
     27 HBA        -0.6660    1.0940    2.2110 hc        1 VGB      0.086367
     28 HBAA       -0.9230   -0.0010    0.7860 hc        1 VGB      0.086367
     29 HBAB       -0.8170    1.7950    0.5420 hc        1 VGB      0.086367
     30 HAN         1.5680    1.8100    1.2660 hc        1 VGB      0.119200
     31 HANA        1.3060    0.7170   -0.1710 hc        1 VGB      0.119200
     32 HNAK        3.5400    0.2960    0.9590 hn        1 VGB      0.477800
     33 HAC         3.3190    0.3300    3.5300 hx        1 VGB      0.153700
     34 HAB         5.9070   -0.3500    1.8670 h1        1 VGB      0.092700
     35 HOAG        5.9310    2.0220    2.1540 ho        1 VGB      0.485000
     36 HAA         5.5590    0.8090    4.7580 h1        1 VGB      0.091700
     37 HOAH        7.6540    1.3590    4.4150 ho        1 VGB      0.454000
     38 HAF         7.1890   -1.6580    3.7180 h1        1 VGB      0.131700
     39 HAI         7.8360   -0.4540    5.8570 h1        1 VGB      0.085700
     40 HAIA        6.2110   -0.8950    6.5970 h1        1 VGB      0.085700
     41 HOAJ        8.3730   -2.5340    6.1610 ho        1 VGB      0.449000
     42 HAQ         5.7590   -3.7700    5.5260 h4        1 VGB      0.274000
     43 HNAO        2.2070   -2.6960    3.3910 hn        1 VGB      0.368700
     44 HAR         3.6180   -5.8270    4.5270 hc        1 VGB      0.116200
     45 HARA        3.0500   -5.0370    6.0590 hc        1 VGB      0.116200
     46 HAS         0.9730   -4.2240    4.8660 hc        1 VGB      0.043700
     47 HASA        1.5430   -5.0240    3.3370 hc        1 VGB      0.043700
     48 HAU        -0.0580   -5.4950    6.5950 ha        1 VGB      0.127000
     49 HAV        -1.0520   -7.6560    7.3240 ha        1 VGB      0.152500
     50 HAW        -0.5730   -9.7500    6.0500 ha        1 VGB      0.157000
     51 HAX         0.9060   -9.6740    4.0390 ha        1 VGB      0.152500
     52 HAY         1.9030   -7.5150    3.3040 ha        1 VGB      0.127000
     53 HAK2        3.3880   -1.3610    1.0990 hn        1 VGB      0.477800
@<TRIPOS>BOND
     1    1    2 1   
     2    1   27 1   
     3    1   28 1   
     4    1   29 1   
     5    2    3 1   
     6    2   30 1   
     7    2   31 1   
     8    3    4 2   
     9    3    5 1   
    10    5    6 1   
    11    5   32 1   
    12    5   53 1   
    13    6    7 1   
    14    6   16 1   
    15    6   33 1   
    16    7    8 1   
    17    7    9 1   
    18    7   34 1   
    19    8   35 1   
    20    9   10 1   
    21    9   11 1   
    22    9   36 1   
    23   10   37 1   
    24   11   12 1   
    25   11   14 1   
    26   11   38 1   
    27   12   13 1   
    28   12   39 1   
    29   12   40 1   
    30   13   41 1   
    31   14   15 1   
    32   14   16 2   
    33   15   18 2   
    34   15   42 1   
    35   16   17 1   
    36   17   18 1   
    37   17   43 1   
    38   18   19 1   
    39   19   20 1   
    40   19   44 1   
    41   19   45 1   
    42   20   21 1   
    43   20   46 1   
    44   20   47 1   
    45   21   22 ar  
    46   21   26 ar  
    47   22   23 ar  
    48   22   48 1   
    49   23   24 ar  
    50   23   49 1   
    51   24   25 ar  
    52   24   50 1   
    53   25   26 ar  
    54   25   51 1   
    55   26   52 1   
@<TRIPOS>SUBSTRUCTURE
     1 VGB         1 TEMP              0 ****  ****    0 ROOT
