@<TRIPOS>MOLECULE
VGB
   53    55     1     0     0
SMALL
bcc


@<TRIPOS>ATOM
      1 CBA        -0.4330    0.9330    1.1560 c3        1 VGB     -0.112100
      2 CAN         1.0610    0.8600    0.9420 c3        1 VGB     -0.143400
      3 CAL         1.6450   -0.2930    1.7030 c         1 VGB      0.579100
      4 OAM         1.1080   -1.1330    2.4030 o         1 VGB     -0.435100
      5 NAK         3.1700   -0.4590    1.5670 ny        1 VGB     -0.706800
      6 CAC         3.9070   -0.3720    2.8750 c3        1 VGB      0.212800
      7 CAB         5.3180    0.2480    2.6430 c3        1 VGB      0.124100
      8 OAG         5.0680    1.5540    2.1710 oh        1 VGB     -0.615800
      9 CAA         6.1110    0.2540    3.9640 c3        1 VGB      0.110100
     10 OAH         7.3310    0.8850    3.6400 oh        1 VGB     -0.573800
     11 CAF         6.4060   -1.2040    4.4060 c3        1 VGB     -0.047000
     12 CAI         6.9960   -1.1930    5.8410 c3        1 VGB      0.129400
     13 OAJ         7.4130   -2.4910    6.1810 oh        1 VGB     -0.599800
     14 NAE         5.2150   -2.0400    4.2890 na        1 VGB      0.048900
     15 CAQ         5.0060   -3.2790    4.8830 cc        1 VGB     -0.093300
     16 CAD         4.0740   -1.6840    3.5850 cc        1 VGB     -0.141900
     17 NAO         3.1470   -2.7000    3.7370 na        1 VGB     -0.110100
     18 CAP         3.6960   -3.7060    4.5350 cd        1 VGB     -0.009600
     19 CAR         3.0290   -4.9650    4.9240 c3        1 VGB     -0.053100
     20 CAS         1.5880   -5.0820    4.4550 c3        1 VGB     -0.027100
     21 CAT         1.0060   -6.3780    4.9010 ca        1 VGB     -0.131300
     22 CAU         0.1820   -6.4300    6.0300 ca        1 VGB     -0.120500
     23 CAV        -0.3730   -7.6430    6.4360 ca        1 VGB     -0.115000
     24 CAW        -0.1080   -8.8090    5.7160 ca        1 VGB     -0.097000
     25 CAX         0.7120   -8.7600    4.5880 ca        1 VGB     -0.115000
     26 CAY         1.2680   -7.5490    4.1800 ca        1 VGB     -0.120500
     27 HBA        -0.8370    1.7980    0.5680 hc        1 VGB      0.086367
     28 HBAA       -0.9380   -0.0000    0.8060 hc        1 VGB      0.086367
     29 HBAB       -0.6800    1.0910    2.2340 hc        1 VGB      0.086367
     30 HAN         1.5500    1.8150    1.2860 hc        1 VGB      0.119200
     31 HANA        1.2860    0.7270   -0.1540 hc        1 VGB      0.119200
     32 HNAK        3.5250    0.3080    0.9700 hn        1 VGB      0.477800
     33 HAC         3.3100    0.3320    3.5410 hx        1 VGB      0.153700
     34 HAB         5.8960   -0.3340    1.8680 h1        1 VGB      0.092700
     35 HOAG        5.9140    2.0370    2.1650 ho        1 VGB      0.485000
     36 HAA         5.5520    0.8110    4.7650 h1        1 VGB      0.091700
     37 HOAH        7.6440    1.3690    4.4200 ho        1 VGB      0.454000
     38 HAF         7.1860   -1.6470    3.7100 h1        1 VGB      0.131700
     39 HAI         6.2150   -0.8990    6.5950 h1        1 VGB      0.085700
     40 HAIA        7.8370   -0.4500    5.8520 h1        1 VGB      0.085700
     41 HOAJ        8.3800   -2.5300    6.1460 ho        1 VGB      0.449000
     42 HAQ         5.7670   -3.7700    5.5130 h4        1 VGB      0.274000
     43 HNAO        2.2050   -2.6970    3.3930 hn        1 VGB      0.368700
     44 HAR         3.0640   -5.0480    6.0490 hc        1 VGB      0.116200
     45 HARA        3.6270   -5.8280    4.5110 hc        1 VGB      0.116200
     46 HAS         1.5460   -5.0260    3.3340 hc        1 VGB      0.043700
     47 HASA        0.9810   -4.2330    4.8680 hc        1 VGB      0.043700
     48 HAU        -0.0370   -5.5140    6.5990 ha        1 VGB      0.127000
     49 HAV        -1.0230   -7.6800    7.3240 ha        1 VGB      0.152500
     50 HAW        -0.5480   -9.7670    6.0360 ha        1 VGB      0.157000
     51 HAX         0.9180   -9.6790    4.0170 ha        1 VGB      0.152500
     52 HAY         1.9070   -7.5140    3.2860 ha        1 VGB      0.127000
     53 HAK2        3.3780   -1.3500    1.1030 hn        1 VGB      0.477800
@<TRIPOS>BOND
     1    1    2 1   
     2    1   27 1   
     3    1   28 1   
     4    1   29 1   
     5    2    3 1   
     6    2   30 1   
     7    2   31 1   
     8    3    4 2   
     9    3    5 1   
    10    5    6 1   
    11    5   32 1   
    12    5   53 1   
    13    6    7 1   
    14    6   16 1   
    15    6   33 1   
    16    7    8 1   
    17    7    9 1   
    18    7   34 1   
    19    8   35 1   
    20    9   10 1   
    21    9   11 1   
    22    9   36 1   
    23   10   37 1   
    24   11   12 1   
    25   11   14 1   
    26   11   38 1   
    27   12   13 1   
    28   12   39 1   
    29   12   40 1   
    30   13   41 1   
    31   14   15 1   
    32   14   16 2   
    33   15   18 2   
    34   15   42 1   
    35   16   17 1   
    36   17   18 1   
    37   17   43 1   
    38   18   19 1   
    39   19   20 1   
    40   19   44 1   
    41   19   45 1   
    42   20   21 1   
    43   20   46 1   
    44   20   47 1   
    45   21   22 ar  
    46   21   26 ar  
    47   22   23 ar  
    48   22   48 1   
    49   23   24 ar  
    50   23   49 1   
    51   24   25 ar  
    52   24   50 1   
    53   25   26 ar  
    54   25   51 1   
    55   26   52 1   
@<TRIPOS>SUBSTRUCTURE
     1 VGB         1 TEMP              0 ****  ****    0 ROOT
