@<TRIPOS>MOLECULE
VGB
   53    55     1     0     0
SMALL
bcc


@<TRIPOS>ATOM
      1 CBA        -0.3990    0.8730    1.0350 c3        1 VGB     -0.112100
      2 CAN         1.0980    0.8000    0.8470 c3        1 VGB     -0.143400
      3 CAL         1.6720   -0.3370    1.6390 c         1 VGB      0.579100
      4 OAM         1.1270   -1.1650    2.3460 o         1 VGB     -0.435100
      5 NAK         3.2000   -0.5010    1.5310 n4        1 VGB     -0.706800
      6 CAC         3.9150   -0.3860    2.8480 c3        1 VGB      0.212800
      7 CAB         5.3280    0.2330    2.6270 c3        1 VGB      0.124100
      8 OAG         5.0830    1.5290    2.1260 oh        1 VGB     -0.615800
      9 CAA         6.1000    0.2680    3.9610 c3        1 VGB      0.110100
     10 OAH         7.3240    0.8960    3.6440 oh        1 VGB     -0.573800
     11 CAF         6.3910   -1.1800    4.4360 c3        1 VGB     -0.047000
     12 CAI         6.9570   -1.1400    5.8800 c3        1 VGB      0.129400
     13 OAJ         7.3730   -2.4290    6.2520 oh        1 VGB     -0.599800
     14 NAE         5.2050   -2.0220    4.3160 na        1 VGB      0.048900
     15 CAQ         4.9900   -3.2500    4.9300 cc        1 VGB     -0.093300
     16 CAD         4.0740   -1.6840    3.5870 cc        1 VGB     -0.141900
     17 NAO         3.1470   -2.6990    3.7440 na        1 VGB     -0.110100
     18 CAP         3.6870   -3.6880    4.5690 cd        1 VGB     -0.009600
     19 CAR         3.0160   -4.9420    4.9720 c3        1 VGB     -0.053100
     20 CAS         1.5880   -5.0770    4.4720 c3        1 VGB     -0.027100
     21 CAT         1.0030   -6.3670    4.9310 ca        1 VGB     -0.131300
     22 CAU         0.1490   -6.4000    6.0390 ca        1 VGB     -0.120500
     23 CAV        -0.4070   -7.6090    6.4570 ca        1 VGB     -0.115000
     24 CAW        -0.1160   -8.7880    5.7700 ca        1 VGB     -0.097000
     25 CAX         0.7340   -8.7580    4.6630 ca        1 VGB     -0.115000
     26 CAY         1.2920   -7.5520    4.2440 ca        1 VGB     -0.120500
     27 HBA        -0.6640    1.0510    2.1060 hc        1 VGB      0.086367
     28 HBAA       -0.7960    1.7250    0.4250 hc        1 VGB      0.086367
     29 HBAB       -0.8960   -0.0680    0.6960 hc        1 VGB      0.086367
     30 HAN         1.3410    0.6460   -0.2430 hc        1 VGB      0.119200
     31 HANA        1.5790    1.7630    1.1800 hc        1 VGB      0.119200
     32 HNAK        3.5620    0.2550    0.9240 hn        1 VGB      0.477800
     33 HAC         3.3060    0.3290    3.4910 hx        1 VGB      0.153700
     34 HAB         5.9210   -0.3620    1.8730 h1        1 VGB      0.092700
     35 HOAG        5.9280    2.0140    2.1240 ho        1 VGB      0.485000
     36 HAA         5.5260    0.8380    4.7410 h1        1 VGB      0.091700
     37 HOAH        7.6230    1.3950    4.4190 ho        1 VGB      0.454000
     38 HAF         7.1840   -1.6350    3.7610 h1        1 VGB      0.131700
     39 HAI         6.1630   -0.8330    6.6150 h1        1 VGB      0.085700
     40 HAIA        7.7960   -0.3950    5.8900 h1        1 VGB      0.085700
     41 HOAJ        8.3400   -2.4670    6.2340 ho        1 VGB      0.449000
     42 HAQ         5.7420   -3.7270    5.5820 h4        1 VGB      0.274000
     43 HNAO        2.2120   -2.7060    3.3840 hn        1 VGB      0.368700
     44 HAR         3.6290   -5.8110    4.5940 hc        1 VGB      0.116200
     45 HARA        3.0260   -4.9980    6.0990 hc        1 VGB      0.116200
     46 HAS         0.9660   -4.2230    4.8540 hc        1 VGB      0.044200
     47 HASA        1.5710   -5.0440    3.3490 hc        1 VGB      0.044200
     48 HAU        -0.0910   -5.4740    6.5820 ha        1 VGB      0.127000
     49 HAV        -1.0810   -7.6300    7.3280 ha        1 VGB      0.152500
     50 HAW        -0.5580   -9.7420    6.1000 ha        1 VGB      0.157000
     51 HAX         0.9620   -9.6870    4.1180 ha        1 VGB      0.152500
     52 HAY         1.9550   -7.5320    3.3660 ha        1 VGB      0.127000
     53 HAK2        3.4170   -1.4000    1.0870 hn        1 VGB      0.477800
@<TRIPOS>BOND
     1    1    2 1   
     2    1   27 1   
     3    1   28 1   
     4    1   29 1   
     5    2    3 1   
     6    2   30 1   
     7    2   31 1   
     8    3    4 2   
     9    3    5 1   
    10    5    6 1   
    11    5   32 1   
    12    5   53 1   
    13    6    7 1   
    14    6   16 1   
    15    6   33 1   
    16    7    8 1   
    17    7    9 1   
    18    7   34 1   
    19    8   35 1   
    20    9   10 1   
    21    9   11 1   
    22    9   36 1   
    23   10   37 1   
    24   11   12 1   
    25   11   14 1   
    26   11   38 1   
    27   12   13 1   
    28   12   39 1   
    29   12   40 1   
    30   13   41 1   
    31   14   15 1   
    32   14   16 2   
    33   15   18 2   
    34   15   42 1   
    35   16   17 1   
    36   17   18 1   
    37   17   43 1   
    38   18   19 1   
    39   19   20 1   
    40   19   44 1   
    41   19   45 1   
    42   20   21 1   
    43   20   46 1   
    44   20   47 1   
    45   21   22 ar  
    46   21   26 ar  
    47   22   23 ar  
    48   22   48 1   
    49   23   24 ar  
    50   23   49 1   
    51   24   25 ar  
    52   24   50 1   
    53   25   26 ar  
    54   25   51 1   
    55   26   52 1   
@<TRIPOS>SUBSTRUCTURE
     1 VGB         1 TEMP              0 ****  ****    0 ROOT
