@<TRIPOS>MOLECULE
VGC
   44    47     1     0     0
SMALL
bcc


@<TRIPOS>ATOM
      1 C15         0.0100   -0.1360    0.0960 c3        1 VGC     -0.073900
      2 C18         1.5230   -0.1980    0.1040 c3        1 VGC     -0.074400
      3 C19         2.0770    0.0010    1.5000 c3        1 VGC     -0.076400
      4 C17         1.5800    1.2980    2.1040 c3        1 VGC     -0.074400
      5 C16         0.0670    1.3620    2.1020 c3        1 VGC     -0.073900
      6 C14        -0.4940    1.1760    0.6940 c3        1 VGC      0.010600
      7 C5         -1.9720    1.2120    0.7100 cc        1 VGC     -0.059300
      8 C2         -2.8330    0.2090    1.2540 cc        1 VGC     -0.167100
      9 S1         -2.8450   -1.2520    2.0500 ss        1 VGC      0.010200
     10 C3         -4.5440   -1.3340    2.1090 cc        1 VGC     -0.067700
     11 C6         -5.2870   -2.4880    2.7500 c         1 VGC      0.930200
     12 O1         -4.6060   -3.4260    3.2500 o         1 VGC     -0.818300
     13 O2         -6.5480   -2.4390    2.7450 o         1 VGC     -0.818300
     14 C4         -5.1610   -0.2520    1.5200 cd        1 VGC     -0.175000
     15 C1         -4.1840    0.6550    1.0140 cd        1 VGC     -0.056300
     16 N1         -4.1550    1.8640    0.3360 na        1 VGC     -0.057100
     17 C20        -5.2920    2.6530    0.0110 c3        1 VGC      0.035600
     18 C7         -2.7960    2.2230    0.1630 cd        1 VGC     -0.101300
     19 C8         -2.3840    3.4450   -0.5040 ca        1 VGC      0.019000
     20 C9         -2.9700    3.8420   -1.7160 ca        1 VGC     -0.129000
     21 C10        -2.5520    5.0090   -2.3530 ca        1 VGC     -0.135000
     22 C11        -1.5460    5.7950   -1.7920 ca        1 VGC     -0.148000
     23 C12        -0.9590    5.4080   -0.5880 ca        1 VGC     -0.135000
     24 C13        -1.3750    4.2450    0.0560 ca        1 VGC     -0.129000
     25 H151       -0.3660   -0.2310   -0.9550 hc        1 VGC      0.049950
     26 H152       -0.4120   -0.9940    0.6850 hc        1 VGC      0.049950
     27 H181        1.9340    0.5930   -0.5770 hc        1 VGC      0.029450
     28 H182        1.8570   -1.1910   -0.2940 hc        1 VGC      0.029450
     29 H14        -0.1140    2.0210    0.0480 hc        1 VGC      0.043700
     30 H191        1.7630   -0.8570    2.1500 hc        1 VGC      0.034700
     31 H192        3.1970    0.0060    1.4640 hc        1 VGC      0.034700
     32 H171        1.9930    2.1630    1.5210 hc        1 VGC      0.029450
     33 H172        1.9560    1.3910    3.1560 hc        1 VGC      0.029450
     34 H161       -0.3490    0.5640    2.7710 hc        1 VGC      0.049950
     35 H162       -0.2690    2.3510    2.5080 hc        1 VGC      0.049950
     36 H4         -6.2430   -0.1230    1.4570 ha        1 VGC      0.165000
     37 H201       -6.1140    2.4540    0.7500 h1        1 VGC      0.042033
     38 H202       -5.6660    2.3920   -1.0180 h1        1 VGC      0.042033
     39 H203       -5.0250    3.7440    0.0290 h1        1 VGC      0.042033
     40 H9         -3.7570    3.2200   -2.1690 ha        1 VGC      0.140000
     41 H13        -0.9170    3.9450    1.0110 ha        1 VGC      0.140000
     42 H10        -3.0170    5.3080   -3.3040 ha        1 VGC      0.121500
     43 H11        -1.2170    6.7130   -2.2970 ha        1 VGC      0.119000
     44 H12        -0.1660    6.0250   -0.1400 ha        1 VGC      0.121500
@<TRIPOS>BOND
     1    1    2 1   
     2    1    6 1   
     3    1   25 1   
     4    1   26 1   
     5    2    3 1   
     6    2   27 1   
     7    2   28 1   
     8    3    4 1   
     9    3   30 1   
    10    3   31 1   
    11    4    5 1   
    12    4   32 1   
    13    4   33 1   
    14    5    6 1   
    15    5   34 1   
    16    5   35 1   
    17    6    7 1   
    18    6   29 1   
    19    7    8 1   
    20    7   18 2   
    21    8    9 1   
    22    8   15 2   
    23    9   10 1   
    24   10   11 1   
    25   10   14 2   
    26   11   12 1   
    27   11   13 1   
    28   14   15 1   
    29   14   36 1   
    30   15   16 1   
    31   16   17 1   
    32   16   18 1   
    33   17   37 1   
    34   17   38 1   
    35   17   39 1   
    36   18   19 1   
    37   19   20 ar  
    38   19   24 ar  
    39   20   21 ar  
    40   20   40 1   
    41   21   22 ar  
    42   21   42 1   
    43   22   23 ar  
    44   22   43 1   
    45   23   24 ar  
    46   23   44 1   
    47   24   41 1   
@<TRIPOS>SUBSTRUCTURE
     1 VGC         1 TEMP              0 ****  ****    0 ROOT
