@<TRIPOS>MOLECULE
VGC
   44    47     1     0     0
SMALL
bcc


@<TRIPOS>ATOM
      1 C15        -0.6550   -2.3760    1.3230 c3        1 VGC     -0.073400
      2 C18        -1.3220   -3.7350    1.3720 c3        1 VGC     -0.074400
      3 C19        -1.0990   -4.5060    0.0880 c3        1 VGC     -0.076400
      4 C17        -1.5660   -3.7110   -1.1140 c3        1 VGC     -0.074400
      5 C16        -0.8990   -2.3530   -1.1690 c3        1 VGC     -0.073400
      6 C14        -1.1320   -1.5670    0.1200 c3        1 VGC      0.007600
      7 C5         -0.4510   -0.2560    0.0620 cc        1 VGC     -0.051300
      8 C2          0.9650   -0.0360    0.0860 cc        1 VGC     -0.173100
      9 S1          2.4330   -0.8110    0.1450 ss        1 VGC      0.023200
     10 C3          3.3250    0.6350    0.1060 cc        1 VGC     -0.073700
     11 C6          4.8390    0.6650    0.1240 c         1 VGC      0.931200
     12 O1          5.4510   -0.4380    0.1840 o         1 VGC     -0.818300
     13 O2          5.3970    1.7950    0.0770 o         1 VGC     -0.818300
     14 C4          2.5300    1.7610    0.0530 cd        1 VGC     -0.170000
     15 C1          1.1540    1.3920    0.0430 cd        1 VGC     -0.063300
     16 N1         -0.0840    2.0310    0.0640 na        1 VGC     -0.050100
     17 C20        -0.2770    3.3640   -0.4090 c3        1 VGC      0.026600
     18 C7         -1.0720    1.0080    0.0090 cd        1 VGC     -0.108300
     19 C8         -2.4970    1.2910   -0.0080 ca        1 VGC      0.017000
     20 C9         -3.0660    2.1940    0.9030 ca        1 VGC     -0.127500
     21 C10        -4.4370    2.4430    0.8840 ca        1 VGC     -0.136500
     22 C11        -5.2570    1.7940   -0.0390 ca        1 VGC     -0.148000
     23 C12        -4.7000    0.8910   -0.9440 ca        1 VGC     -0.136500
     24 C13        -3.3290    0.6400   -0.9320 ca        1 VGC     -0.127500
     25 H151       -0.8840   -1.8100    2.2630 hc        1 VGC      0.049450
     26 H152        0.4590   -2.4980    1.2660 hc        1 VGC      0.049450
     27 H181       -0.9130   -4.3200    2.2370 hc        1 VGC      0.029450
     28 H182       -2.4230   -3.6070    1.5430 hc        1 VGC      0.029450
     29 H14        -2.2430   -1.3970    0.2300 hc        1 VGC      0.044700
     30 H191       -0.0060   -4.7380   -0.0220 hc        1 VGC      0.034700
     31 H192       -1.6490   -5.4820    0.1320 hc        1 VGC      0.034700
     32 H171       -1.3350   -4.2780   -2.0530 hc        1 VGC      0.029450
     33 H172       -2.6790   -3.5800   -1.0640 hc        1 VGC      0.029450
     34 H161        0.2050   -2.4760   -1.3290 hc        1 VGC      0.049450
     35 H162       -1.3030   -1.7690   -2.0360 hc        1 VGC      0.049450
     36 H4          2.9160    2.7810    0.0230 ha        1 VGC      0.166000
     37 H201       -0.3290    3.4050   -1.5320 h1        1 VGC      0.041700
     38 H202       -1.2350    3.7740    0.0080 h1        1 VGC      0.041700
     39 H203        0.5850    3.9960   -0.0660 h1        1 VGC      0.041700
     40 H9         -2.4260    2.6950    1.6450 ha        1 VGC      0.141000
     41 H13        -2.8880   -0.0710   -1.6480 ha        1 VGC      0.141000
     42 H10        -4.8730    3.1500    1.6030 ha        1 VGC      0.121500
     43 H11        -6.3380    1.9920   -0.0510 ha        1 VGC      0.119000
     44 H12        -5.3430    0.3760   -1.6720 ha        1 VGC      0.121500
@<TRIPOS>BOND
     1    1    2 1   
     2    1    6 1   
     3    1   25 1   
     4    1   26 1   
     5    2    3 1   
     6    2   27 1   
     7    2   28 1   
     8    3    4 1   
     9    3   30 1   
    10    3   31 1   
    11    4    5 1   
    12    4   32 1   
    13    4   33 1   
    14    5    6 1   
    15    5   34 1   
    16    5   35 1   
    17    6    7 1   
    18    6   29 1   
    19    7    8 1   
    20    7   18 2   
    21    8    9 1   
    22    8   15 2   
    23    9   10 1   
    24   10   11 1   
    25   10   14 2   
    26   11   12 1   
    27   11   13 1   
    28   14   15 1   
    29   14   36 1   
    30   15   16 1   
    31   16   17 1   
    32   16   18 1   
    33   17   37 1   
    34   17   38 1   
    35   17   39 1   
    36   18   19 1   
    37   19   20 ar  
    38   19   24 ar  
    39   20   21 ar  
    40   20   40 1   
    41   21   22 ar  
    42   21   42 1   
    43   22   23 ar  
    44   22   43 1   
    45   23   24 ar  
    46   23   44 1   
    47   24   41 1   
@<TRIPOS>SUBSTRUCTURE
     1 VGC         1 TEMP              0 ****  ****    0 ROOT
