@<TRIPOS>MOLECULE
VGC
   44    41     1     0     0
SMALL
bcc


@<TRIPOS>ATOM
      1 C15         1.8060   -1.3300   -0.8500 c3        1 VGC     -0.151500
      2 C18         3.3070   -1.2430   -0.9550 c3        1 VGC     -0.152500
      3 C19         3.8300   -0.4990    0.0420 c3        1 VGC     -0.152000
      4 C17         3.4040   -0.5060    1.3230 c3        1 VGC     -0.152500
      5 C16         1.9020   -0.5970    1.4060 c3        1 VGC     -0.151500
      6 C14         1.1770   -0.1860    0.0560 c3        1 VGC     -0.037000
      7 C5         -0.1710   -0.2980    0.1520 c2        1 VGC     -0.043000
      8 C2         -0.8570   -1.3570    0.6950 c2        1 VGC     -0.443000
      9 S1         -0.7000   -2.7800    1.3570 ss        1 VGC      0.563000
     10 C3         -2.1140   -3.2970    1.6890 c1        1 VGC     -0.323000
     11 C6         -2.4580   -4.6580    2.4050 c1        1 VGC      0.380000
     12 O1         -2.6510   -5.7130    1.7100 o         1 VGC     -0.553000
     13 O2         -2.4680   -4.7230    3.6830 o         1 VGC     -0.553000
     14 C4         -3.0620   -2.2930    1.2730 c1        1 VGC     -0.170000
     15 C1         -2.2410   -1.0540    0.6370 c2        1 VGC     -0.039000
     16 N1         -2.3800    0.1770    0.0640 n2        1 VGC     -0.118000
     17 C20        -3.6160    0.8650   -0.1580 c2        1 VGC     -0.072000
     18 C7         -1.1020    0.6600   -0.2440 c2        1 VGC     -0.084000
     19 C8         -0.8090    1.8980   -0.8390 c1        1 VGC      0.017000
     20 C9         -0.6580    1.9840   -2.2210 c1        1 VGC     -0.136250
     21 C10        -0.5020    3.2230   -2.8270 c1        1 VGC     -0.136250
     22 C11        -0.4970    4.3830   -2.0520 c1        1 VGC     -0.136250
     23 C12        -0.6460    4.3010   -0.6750 c1        1 VGC     -0.136250
     24 C13        -0.8030    3.0590   -0.0640 c1        1 VGC     -0.130000
     25 H151        1.4230   -1.2680   -1.7430 hc        1 VGC      0.088250
     26 H152        1.5700   -2.1960   -0.4660 hc        1 VGC      0.088250
     27 H181        3.6790   -2.1360   -0.9120 hc        1 VGC      0.071250
     28 H182        3.5460   -0.8350   -1.8230 hc        1 VGC      0.071250
     29 H14         1.4450    0.6850   -0.2390 hc        1 VGC      0.085000
     30 H191        3.7700    0.4160   -0.2520 hc        1 VGC      0.068500
     31 H192        4.7700   -0.7210    0.0740 hc        1 VGC      0.068500
     32 H171        3.7010    0.3190    1.7670 hc        1 VGC      0.071250
     33 H172        3.7980   -1.2830    1.7880 hc        1 VGC      0.071250
     34 H161        1.6570   -1.5090    1.6270 hc        1 VGC      0.088250
     35 H162        1.5920   -0.0100    2.1160 hc        1 VGC      0.088250
     36 H4         -4.0200   -2.3500    1.3590 DU        1 VGC      0.166000
     37 H201       -3.5290    1.7900    0.1320 ha        1 VGC      0.081000
     38 H202       -4.3310    0.4280    0.3540 ha        1 VGC      0.081000
     39 H203       -3.8400    0.8400   -1.1310 ha        1 VGC      0.081000
     40 H9         -0.6610    1.1730   -2.7630 ha        1 VGC      0.126000
     41 H13        -0.7740    2.9920    0.8930 ha        1 VGC      0.140000
     42 H10        -0.4570    3.2860   -3.7860 ha        1 VGC      0.126000
     43 H11        -0.3880    5.2400   -2.4730 ha        1 VGC      0.126000
     44 H12        -0.6420    5.1210   -0.1300 ha        1 VGC      0.126000
@<TRIPOS>BOND
     1    1    2 1   
     2    1    6 1   
     3    1   25 1   
     4    1   26 1   
     5    2    3 1   
     6    2   27 1   
     7    2   28 1   
     8    3    4 1   
     9    3   30 1   
    10    3   31 1   
    11    4    5 1   
    12    4   32 1   
    13    4   33 1   
    14    5    6 1   
    15    5   34 1   
    16    5   35 1   
    17    6    7 1   
    18    6   29 1   
    19    7    8 1   
    20    7   18 1   
    21    8    9 1   
    22    8   15 1   
    23    9   10 1   
    24   10   14 1   
    25   11   12 1   
    26   11   13 1   
    27   14   15 1   
    28   15   16 1   
    29   16   18 1   
    30   17   37 1   
    31   17   38 1   
    32   17   39 1   
    33   18   19 1   
    34   19   24 1   
    35   20   21 1   
    36   20   40 1   
    37   21   42 1   
    38   22   23 1   
    39   22   43 1   
    40   23   44 1   
    41   24   41 1   
@<TRIPOS>SUBSTRUCTURE
     1 VGC         1 TEMP              0 ****  ****    0 ROOT
