@<TRIPOS>MOLECULE
VGD
   17    18     1     0     0
SMALL
bcc


@<TRIPOS>ATOM
      1 CLA        -3.4050   -0.4890    0.0300 cl        1 VGD     -0.097400
      2 CAH        -1.7730   -0.0030    0.0200 ca        1 VGD      0.023400
      3 CAC        -1.4740    1.3710    0.0180 ca        1 VGD     -0.138000
      4 CAD        -0.1600    1.8220    0.0060 ca        1 VGD     -0.075000
      5 CAK         0.8720    0.8770   -0.0090 ca        1 VGD      0.092400
      6 CAJ         0.5420   -0.5370   -0.0050 ca        1 VGD     -0.079200
      7 CAE        -0.7800   -0.9820    0.0110 ca        1 VGD     -0.123000
      8 NAG         2.2700    1.0430   -0.0190 nc        1 VGD     -0.605100
      9 CAI         2.7800   -0.2220   -0.0410 cd        1 VGD      0.583700
     10 NAF         1.7610   -1.2330    0.0390 na        1 VGD     -0.287300
     11 NAA         4.1400   -0.5690   -0.1710 nh        1 VGD     -0.854800
     12 HAC        -2.2970    2.1030    0.0270 ha        1 VGD      0.148000
     13 HAD         0.0680    2.8980    0.0090 ha        1 VGD      0.153000
     14 HAE        -1.0280   -2.0520    0.0180 ha        1 VGD      0.150000
     15 HNAF        1.8770   -2.1610   -0.2780 hn        1 VGD      0.300700
     16 HNAA        4.7420    0.2260   -0.0910 hn        1 VGD      0.403800
     17 HNAB        4.4120   -1.3120    0.4390 hn        1 VGD      0.403800
@<TRIPOS>BOND
     1    1    2 1   
     2    2    3 ar  
     3    2    7 ar  
     4    3    4 ar  
     5    3   12 1   
     6    4    5 ar  
     7    4   13 1   
     8    5    6 ar  
     9    5    8 1   
    10    6    7 ar  
    11    6   10 1   
    12    7   14 1   
    13    8    9 2   
    14    9   10 1   
    15    9   11 1   
    16   10   15 1   
    17   11   16 1   
    18   11   17 1   
@<TRIPOS>SUBSTRUCTURE
     1 VGD         1 TEMP              0 ****  ****    0 ROOT
