@<TRIPOS>MOLECULE
VGD
   18    19     1     0     0
SMALL
bcc


@<TRIPOS>ATOM
      1 CLA         0.0320    0.0050   -0.0030 cl        1 VGD     -0.019400
      2 CAH         1.7200    0.0010   -0.0240 ca        1 VGD      0.080400
      3 CAC         2.4150   -0.0120    1.2150 ca        1 VGD     -0.129000
      4 CAD         3.7920   -0.0170    1.2750 ca        1 VGD     -0.031000
      5 CAK         4.5130   -0.0080    0.0600 ca        1 VGD      0.049400
      6 CAJ         3.7860    0.0050   -1.2020 ca        1 VGD     -0.013200
      7 CAE         2.3830    0.0090   -1.2450 ca        1 VGD     -0.146000
      8 NAG         5.8860   -0.0100   -0.1830 nc        1 VGD     -0.455100
      9 CAI         5.9940    0.0010   -1.5440 cd        1 VGD      0.350700
     10 NAF         4.7430    0.0110   -2.2170 na        1 VGD     -0.247300
     11 NAA         7.2760    0.0040   -2.2450 n4        1 VGD     -0.745600
     12 HAC         1.8290   -0.0180    2.1510 ha        1 VGD      0.179000
     13 HAD         4.3280   -0.0270    2.2370 ha        1 VGD      0.178000
     14 HAE         1.8370    0.0190   -2.2000 ha        1 VGD      0.175000
     15 HNAF        4.5750    0.0200   -3.1900 hn        1 VGD      0.331700
     16 HNAA        7.3520   -0.8340   -2.8360 hn        1 VGD      0.481133
     17 HNAB        7.3570    0.8500   -2.8210 hn        1 VGD      0.481133
     18 HAA3        8.0350   -0.0050   -1.5450 hn        1 VGD      0.481133
@<TRIPOS>BOND
     1    1    2 1   
     2    2    3 ar  
     3    2    7 ar  
     4    3    4 ar  
     5    3   12 1   
     6    4    5 ar  
     7    4   13 1   
     8    5    6 ar  
     9    5    8 1   
    10    6    7 ar  
    11    6   10 1   
    12    7   14 1   
    13    8    9 2   
    14    9   10 1   
    15    9   11 1   
    16   10   15 1   
    17   11   16 1   
    18   11   17 1   
    19   11   18 1   
@<TRIPOS>SUBSTRUCTURE
     1 VGD         1 TEMP              0 ****  ****    0 ROOT
