@<TRIPOS>MOLECULE
VGD
   17    18     1     0     0
SMALL
bcc


@<TRIPOS>ATOM
      1 CLA         0.0390    0.0970    0.0340 cl        1 VGD     -0.097400
      2 CAH         1.7400    0.0400   -0.0010 ca        1 VGD      0.023400
      3 CAC         2.4420   -0.0530    1.2140 ca        1 VGD     -0.138000
      4 CAD         3.8290   -0.1060    1.2430 ca        1 VGD     -0.075000
      5 CAK         4.5260   -0.0700    0.0290 ca        1 VGD      0.092400
      6 CAJ         3.7830    0.0280   -1.2150 ca        1 VGD     -0.079200
      7 CAE         2.3890    0.0850   -1.2340 ca        1 VGD     -0.123000
      8 NAG         5.9070   -0.1040   -0.2390 nc        1 VGD     -0.605100
      9 CAI         6.0100   -0.0490   -1.5990 cd        1 VGD      0.583700
     10 NAF         4.7340    0.1040   -2.2450 na        1 VGD     -0.287300
     11 NAA         7.1950   -0.1700   -2.3500 nh        1 VGD     -0.854800
     12 HAC         1.8800   -0.0830    2.1610 ha        1 VGD      0.148000
     13 HAD         4.3730   -0.1740    2.1960 ha        1 VGD      0.153000
     14 HAE         1.8290    0.1630   -2.1760 ha        1 VGD      0.150000
     15 HNAF        4.5550   -0.1530   -3.1810 hn        1 VGD      0.300700
     16 HNAA        7.2480    0.4850   -3.1030 hn        1 VGD      0.403800
     17 HNAB        8.0120   -0.1470   -1.7720 hn        1 VGD      0.403800
@<TRIPOS>BOND
     1    1    2 1   
     2    2    3 ar  
     3    2    7 ar  
     4    3    4 ar  
     5    3   12 1   
     6    4    5 ar  
     7    4   13 1   
     8    5    6 ar  
     9    5    8 1   
    10    6    7 ar  
    11    6   10 1   
    12    7   14 1   
    13    8    9 2   
    14    9   10 1   
    15    9   11 1   
    16   10   15 1   
    17   11   16 1   
    18   11   17 1   
@<TRIPOS>SUBSTRUCTURE
     1 VGD         1 TEMP              0 ****  ****    0 ROOT
