@<TRIPOS>MOLECULE
VGD
   17    18     1     0     0
SMALL
bcc


@<TRIPOS>ATOM
      1 ClA         0.0380   -0.0870    0.0280 cl        1 VGD     -0.097400
      2 CAH         1.7390   -0.0340   -0.0040 ca        1 VGD      0.023400
      3 CAC         2.4390    0.0660    1.2110 ca        1 VGD     -0.138000
      4 CAD         3.8270    0.1170    1.2420 ca        1 VGD     -0.075000
      5 CAK         4.5250    0.0700    0.0290 ca        1 VGD      0.092400
      6 CAJ         3.7840   -0.0350   -1.2150 ca        1 VGD     -0.079200
      7 CAE         2.3900   -0.0890   -1.2370 ca        1 VGD     -0.123000
      8 NAG         5.9070    0.0990   -0.2370 nc        1 VGD     -0.605100
      9 CAI         6.0110    0.0340   -1.5960 cd        1 VGD      0.583700
     10 NAF         4.7370   -0.1220   -2.2430 na        1 VGD     -0.287300
     11 NAA         7.1980    0.1460   -2.3460 nv        1 VGD     -0.854800
     12 HAC         1.8750    0.1050    2.1560 ha        1 VGD      0.148000
     13 HAD         4.3690    0.1910    2.1950 ha        1 VGD      0.153000
     14 HAE         1.8310   -0.1730   -2.1780 ha        1 VGD      0.150000
     15 HNAF        4.5590    0.1290   -3.1810 hn        1 VGD      0.300700
     16 HNAA        8.0140    0.1260   -1.7670 hn        1 VGD      0.403800
     17 HNAB        7.2500   -0.5140   -3.0950 hn        1 VGD      0.403800
@<TRIPOS>BOND
     1    1    2 1   
     2    2    3 ar  
     3    2    7 ar  
     4    3    4 ar  
     5    3   12 1   
     6    4    5 ar  
     7    4   13 1   
     8    5    6 ar  
     9    5    8 1   
    10    6    7 ar  
    11    6   10 1   
    12    7   14 1   
    13    8    9 2   
    14    9   10 1   
    15    9   11 1   
    16   10   15 1   
    17   11   16 1   
    18   11   17 1   
@<TRIPOS>SUBSTRUCTURE
     1 VGD         1 TEMP              0 ****  ****    0 ROOT
