@<TRIPOS>MOLECULE
VGF
   41    44     1     0     0
SMALL
bcc


@<TRIPOS>ATOM
      1 CAN         0.6580   -0.9770    0.7800 ca        1 VGF     -0.100000
      2 CAS         2.0000   -0.9020    1.1740 ca        1 VGF      0.012400
      3 CLAC        3.1400   -1.8650    0.3860 cl        1 VGF     -0.015400
      4 CAR         2.3770   -0.0250    2.2070 ca        1 VGF      0.032400
      5 CLAB        3.9840    0.1020    2.7010 cl        1 VGF     -0.009400
      6 CAK         1.4040    0.7660    2.8330 ca        1 VGF     -0.116000
      7 CAJ         0.0710    0.6770    2.4460 ca        1 VGF     -0.147000
      8 CAQ        -0.3080   -0.1970    1.4190 ca        1 VGF     -0.176300
      9 CAO        -1.7320   -0.2140    0.9470 c3        1 VGF      0.061600
     10 NAY        -2.3810   -1.4950    1.0370 na        1 VGF     -0.120300
     11 CAX        -3.1000   -2.1900    0.0550 ca        1 VGF     -0.016200
     12 CAU        -2.3520   -2.3710    2.1590 cc        1 VGF      0.358700
     13 NAA        -1.6950   -2.0310    3.4190 n4        1 VGF     -0.749600
     14 NAP        -3.0100   -3.5480    1.9600 nd        1 VGF     -0.476100
     15 CAW        -3.4890   -3.4620    0.6520 ca        1 VGF      0.053400
     16 CAM        -4.2440   -4.3930   -0.0920 ca        1 VGF     -0.046000
     17 CAG        -4.5940   -4.0550   -1.3820 ca        1 VGF     -0.132000
     18 CAL        -4.2200   -2.8210   -1.9550 ca        1 VGF     -0.056000
     19 CAV        -3.4780   -1.8690   -1.2670 cp        1 VGF     -0.037000
     20 CAT        -3.1270   -0.6020   -1.9120 cp        1 VGF     -0.087000
     21 CAH        -1.9330   -0.4860   -2.6370 ca        1 VGF     -0.119000
     22 CAE        -1.6240    0.7090   -3.2860 ca        1 VGF     -0.126000
     23 CAD        -2.5010    1.7910   -3.2170 ca        1 VGF     -0.108000
     24 CAF        -3.6920    1.6780   -2.5000 ca        1 VGF     -0.126000
     25 CAI        -4.0080    0.4860   -1.8490 ca        1 VGF     -0.119000
     26 HAN         0.3700   -1.6440   -0.0510 ha        1 VGF      0.169000
     27 HAK         1.7020    1.4740    3.6260 ha        1 VGF      0.174000
     28 HAJ        -0.6750    1.3360    2.9200 ha        1 VGF      0.149000
     29 HAO1       -1.7590    0.1090   -0.1410 h1        1 VGF      0.103700
     30 HAO2       -2.3420    0.5310    1.5410 h1        1 VGF      0.103700
     31 HAA1       -2.3490   -1.4960    4.0030 hn        1 VGF      0.478467
     32 HAA2       -0.8470   -1.4680    3.2360 hn        1 VGF      0.478467
     33 HAM        -4.5380   -5.3540    0.3590 ha        1 VGF      0.171000
     34 HAG        -5.1840   -4.7600   -1.9910 ha        1 VGF      0.164000
     35 HAL        -4.5310   -2.6040   -2.9930 ha        1 VGF      0.166000
     36 HAH        -1.2490   -1.3440   -2.7100 ha        1 VGF      0.140500
     37 HAI        -4.9560    0.3950   -1.2990 ha        1 VGF      0.140500
     38 HAE        -0.6890    0.7920   -3.8620 ha        1 VGF      0.149000
     39 HAD        -2.2580    2.7310   -3.7380 ha        1 VGF      0.150000
     40 HAF        -4.3910    2.5280   -2.4550 ha        1 VGF      0.149000
     41 HAA3       -1.4370   -2.9010    3.9060 hn        1 VGF      0.478467
@<TRIPOS>BOND
     1    1    2 ar  
     2    1    8 ar  
     3    1   26 1   
     4    2    3 1   
     5    2    4 ar  
     6    4    5 1   
     7    4    6 ar  
     8    6    7 ar  
     9    6   27 1   
    10    7    8 ar  
    11    7   28 1   
    12    8    9 1   
    13    9   10 1   
    14    9   29 1   
    15    9   30 1   
    16   10   11 1   
    17   10   12 1   
    18   11   15 ar  
    19   11   19 ar  
    20   12   13 1   
    21   12   14 2   
    22   13   31 1   
    23   13   32 1   
    24   13   41 1   
    25   14   15 1   
    26   15   16 ar  
    27   16   17 ar  
    28   16   33 1   
    29   17   18 ar  
    30   17   34 1   
    31   18   19 ar  
    32   18   35 1   
    33   19   20 1   
    34   20   21 ar  
    35   20   25 ar  
    36   21   22 ar  
    37   21   36 1   
    38   22   23 ar  
    39   22   38 1   
    40   23   24 ar  
    41   23   39 1   
    42   24   25 ar  
    43   24   40 1   
    44   25   37 1   
@<TRIPOS>SUBSTRUCTURE
     1 VGF         1 TEMP              0 ****  ****    0 ROOT
