@<TRIPOS>MOLECULE
VGF
   40    43     1     0     0
SMALL
bcc


@<TRIPOS>ATOM
      1 CAN        -1.3830   -0.3310    0.2060 ca        1 VGF     -0.095000
      2 CAS        -2.6810   -0.5620    0.6720 ca        1 VGF      0.016400
      3 CLAC       -3.2340    0.2930    2.0270 cl        1 VGF     -0.062400
      4 CAR        -3.5050   -1.4900    0.0150 ca        1 VGF      0.022400
      5 CLAB       -5.0840   -1.7950    0.5500 cl        1 VGF     -0.062400
      6 CAK        -3.0200   -2.1780   -1.1030 ca        1 VGF     -0.121000
      7 CAJ        -1.7240   -1.9480   -1.5590 ca        1 VGF     -0.123000
      8 CAQ        -0.9020   -1.0230   -0.9070 ca        1 VGF     -0.113300
      9 CAO         0.4820   -0.7460   -1.4280 c3        1 VGF      0.084600
     10 NAY         1.5430   -1.1590   -0.5610 na        1 VGF     -0.177300
     11 CAX         2.4220   -0.3730    0.2000 ca        1 VGF     -0.052200
     12 CAU         1.8600   -2.5250   -0.2520 cc        1 VGF      0.585700
     13 NAA         1.2080   -3.5910   -0.9050 nh        1 VGF     -0.853800
     14 NAP         2.8890   -2.6320    0.6350 nd        1 VGF     -0.609100
     15 CAW         3.2660   -1.3100    0.9280 ca        1 VGF      0.087400
     16 CAM         4.2710   -0.8350    1.7780 ca        1 VGF     -0.078000
     17 CAG         4.4280    0.5380    1.9070 ca        1 VGF     -0.149000
     18 CAL         3.6130    1.4380    1.2090 ca        1 VGF     -0.109000
     19 CAV         2.6020    1.0120    0.3450 cp        1 VGF     -0.049000
     20 CAT         1.7930    2.0110   -0.3580 cp        1 VGF     -0.044000
     21 CAH         0.7320    2.6470    0.3010 ca        1 VGF     -0.124000
     22 CAE        -0.0150    3.6240   -0.3550 ca        1 VGF     -0.131500
     23 CAD         0.2910    3.9760   -1.6690 ca        1 VGF     -0.127000
     24 CAF         1.3480    3.3490   -2.3280 ca        1 VGF     -0.131500
     25 CAI         2.0980    2.3710   -1.6780 ca        1 VGF     -0.124000
     26 HAN        -0.7360    0.4060    0.7140 ha        1 VGF      0.164000
     27 HAK        -3.6660   -2.9030   -1.6230 ha        1 VGF      0.154000
     28 HAJ        -1.3540   -2.4900   -2.4430 ha        1 VGF      0.146000
     29 HAO1        0.6150   -1.2740   -2.4200 h1        1 VGF      0.082200
     30 HAO2        0.5820    0.3660   -1.6090 h1        1 VGF      0.082200
     31 HAA1        0.2120   -3.4860   -0.9020 hn        1 VGF      0.402300
     32 HAA2        1.4970   -4.4810   -0.5500 hn        1 VGF      0.402300
     33 HAM         4.9140   -1.5390    2.3250 ha        1 VGF      0.149000
     34 HAG         5.2110    0.9340    2.5710 ha        1 VGF      0.134000
     35 HAL         3.7740    2.5200    1.3420 ha        1 VGF      0.137000
     36 HAH         0.4970    2.3780    1.3420 ha        1 VGF      0.140500
     37 HAI         2.9380    1.8830   -2.1960 ha        1 VGF      0.140500
     38 HAE        -0.8460    4.1200    0.1690 ha        1 VGF      0.135000
     39 HAD        -0.2990    4.7490   -2.1840 ha        1 VGF      0.134000
     40 HAF         1.5950    3.6290   -3.3630 ha        1 VGF      0.135000
@<TRIPOS>BOND
     1    1    2 ar  
     2    1    8 ar  
     3    1   26 1   
     4    2    3 1   
     5    2    4 ar  
     6    4    5 1   
     7    4    6 ar  
     8    6    7 ar  
     9    6   27 1   
    10    7    8 ar  
    11    7   28 1   
    12    8    9 1   
    13    9   10 1   
    14    9   29 1   
    15    9   30 1   
    16   10   11 1   
    17   10   12 1   
    18   11   15 ar  
    19   11   19 ar  
    20   12   13 1   
    21   12   14 2   
    22   13   31 1   
    23   13   32 1   
    24   14   15 1   
    25   15   16 ar  
    26   16   17 ar  
    27   16   33 1   
    28   17   18 ar  
    29   17   34 1   
    30   18   19 ar  
    31   18   35 1   
    32   19   20 1   
    33   20   21 ar  
    34   20   25 ar  
    35   21   22 ar  
    36   21   36 1   
    37   22   23 ar  
    38   22   38 1   
    39   23   24 ar  
    40   23   39 1   
    41   24   25 ar  
    42   24   40 1   
    43   25   37 1   
@<TRIPOS>SUBSTRUCTURE
     1 VGF         1 TEMP              0 ****  ****    0 ROOT
