@<TRIPOS>MOLECULE
VGF
   40    43     1     0     0
SMALL
bcc


@<TRIPOS>ATOM
      1 CAN         0.2540   -0.5270    0.1780 ca        1 VGF     -0.096000
      2 CAS         1.6360   -0.7300    0.2430 ca        1 VGF      0.013400
      3 CLAC        2.4750   -1.1380   -1.1730 cl        1 VGF     -0.070400
      4 CAR         2.3060   -0.5930    1.4690 ca        1 VGF      0.027400
      5 CLAB        3.9810   -0.8300    1.5840 cl        1 VGF     -0.068400
      6 CAK         1.5840   -0.2570    2.6200 ca        1 VGF     -0.123000
      7 CAJ         0.2090   -0.0550    2.5490 ca        1 VGF     -0.094000
      8 CAQ        -0.4610   -0.1870    1.3290 ca        1 VGF     -0.115300
      9 CAO        -1.9400    0.0680    1.2400 c3        1 VGF      0.076600
     10 NAY        -2.8000   -1.0850    1.3220 na        1 VGF     -0.162300
     11 CAX        -2.9570   -2.0280    0.2740 ca        1 VGF     -0.070200
     12 CAU        -2.8930   -1.8800    2.5400 cc        1 VGF      0.581700
     13 NAA        -2.6890   -1.3050    3.8090 nh        1 VGF     -0.854800
     14 NAP        -3.1800   -3.1850    2.3050 nd        1 VGF     -0.606100
     15 CAW        -3.2060   -3.3150    0.9010 ca        1 VGF      0.094400
     16 CAM        -3.4450   -4.4480    0.1200 ca        1 VGF     -0.082000
     17 CAG        -3.4350   -4.3030   -1.2640 ca        1 VGF     -0.141000
     18 CAL        -3.2200   -3.0620   -1.8670 ca        1 VGF     -0.114000
     19 CAV        -2.9980   -1.8970   -1.1200 cp        1 VGF     -0.036000
     20 CAT        -2.8550   -0.6230   -1.8240 cp        1 VGF     -0.042000
     21 CAH        -1.8490   -0.4620   -2.7880 ca        1 VGF     -0.124500
     22 CAE        -1.7370    0.7350   -3.4930 ca        1 VGF     -0.131000
     23 CAD        -2.6290    1.7790   -3.2490 ca        1 VGF     -0.127000
     24 CAF        -3.6370    1.6220   -2.2970 ca        1 VGF     -0.131000
     25 CAI        -3.7520    0.4290   -1.5870 ca        1 VGF     -0.124500
     26 HAN        -0.2760   -0.6380   -0.7840 ha        1 VGF      0.162000
     27 HAK         2.1060   -0.1550    3.5840 ha        1 VGF      0.152000
     28 HAJ        -0.3510    0.2000    3.4620 ha        1 VGF      0.147000
     29 HAO1       -2.1630    0.5770    0.2540 h1        1 VGF      0.073700
     30 HAO2       -2.2400    0.7730    2.0690 h1        1 VGF      0.073700
     31 HAA1       -3.0840   -0.3910    3.8920 hn        1 VGF      0.402800
     32 HAA2       -2.9770   -1.9120    4.5510 hn        1 VGF      0.402800
     33 HAM        -3.6350   -5.4220    0.5910 ha        1 VGF      0.150000
     34 HAG        -3.6080   -5.1850   -1.9000 ha        1 VGF      0.135000
     35 HAL        -3.2340   -2.9860   -2.9660 ha        1 VGF      0.137000
     36 HAH        -1.1520   -1.2900   -2.9890 ha        1 VGF      0.141000
     37 HAI        -4.5520    0.3020   -0.8410 ha        1 VGF      0.141000
     38 HAE        -0.9430    0.8540   -4.2450 ha        1 VGF      0.135000
     39 HAD        -2.5410    2.7210   -3.8080 ha        1 VGF      0.134000
     40 HAF        -4.3470    2.4410   -2.1080 ha        1 VGF      0.135000
@<TRIPOS>BOND
     1    1    2 ar  
     2    1    8 ar  
     3    1   26 1   
     4    2    3 1   
     5    2    4 ar  
     6    4    5 1   
     7    4    6 ar  
     8    6    7 ar  
     9    6   27 1   
    10    7    8 ar  
    11    7   28 1   
    12    8    9 1   
    13    9   10 1   
    14    9   29 1   
    15    9   30 1   
    16   10   11 1   
    17   10   12 1   
    18   11   15 ar  
    19   11   19 ar  
    20   12   13 1   
    21   12   14 2   
    22   13   31 1   
    23   13   32 1   
    24   14   15 1   
    25   15   16 ar  
    26   16   17 ar  
    27   16   33 1   
    28   17   18 ar  
    29   17   34 1   
    30   18   19 ar  
    31   18   35 1   
    32   19   20 1   
    33   20   21 ar  
    34   20   25 ar  
    35   21   22 ar  
    36   21   36 1   
    37   22   23 ar  
    38   22   38 1   
    39   23   24 ar  
    40   23   39 1   
    41   24   25 ar  
    42   24   40 1   
    43   25   37 1   
@<TRIPOS>SUBSTRUCTURE
     1 VGF         1 TEMP              0 ****  ****    0 ROOT
