@<TRIPOS>MOLECULE
VGF
   40    43     1     0     0
SMALL
bcc


@<TRIPOS>ATOM
      1 CAN         0.2560   -0.5340    0.1820 ca        1 VGF     -0.096000
      2 CAS         1.6370   -0.7420    0.2540 ca        1 VGF      0.013400
      3 ClAC        2.4790   -1.1620   -1.1580 cl        1 VGF     -0.070400
      4 CAR         2.3030   -0.6020    1.4810 ca        1 VGF      0.027400
      5 ClAB        3.9770   -0.8440    1.6030 cl        1 VGF     -0.068400
      6 CAK         1.5790   -0.2560    2.6270 ca        1 VGF     -0.123000
      7 CAJ         0.2040   -0.0490    2.5500 ca        1 VGF     -0.094000
      8 CAQ        -0.4620   -0.1850    1.3280 ca        1 VGF     -0.115300
      9 CAO        -1.9400    0.0760    1.2330 c3        1 VGF      0.076600
     10 NAY        -2.8040   -1.0720    1.3190 na        1 VGF     -0.162300
     11 CAX        -2.9620   -2.0210    0.2760 ca        1 VGF     -0.070200
     12 CAU        -2.9050   -1.8590    2.5420 cc        1 VGF      0.581700
     13 NAA        -2.7040   -1.2780    3.8080 nv        1 VGF     -0.854800
     14 NAP        -3.1980   -3.1650    2.3140 nd        1 VGF     -0.606100
     15 CAW        -3.2200   -3.3030    0.9100 ca        1 VGF      0.094400
     16 CAM        -3.4600   -4.4400    0.1360 ca        1 VGF     -0.082000
     17 CAG        -3.4460   -4.3040   -1.2490 ca        1 VGF     -0.141000
     18 CAL        -3.2230   -3.0670   -1.8590 ca        1 VGF     -0.114000
     19 CAV        -2.9980   -1.8980   -1.1190 cp        1 VGF     -0.036000
     20 CAT        -2.8460   -0.6300   -1.8300 cp        1 VGF     -0.042000
     21 CAH        -1.8360   -0.4800   -2.7910 ca        1 VGF     -0.124500
     22 CAE        -1.7160    0.7130   -3.5030 ca        1 VGF     -0.131000
     23 CAD        -2.6050    1.7620   -3.2690 ca        1 VGF     -0.127000
     24 CAF        -3.6160    1.6160   -2.3200 ca        1 VGF     -0.131000
     25 CAI        -3.7390    0.4270   -1.6020 ca        1 VGF     -0.124500
     26 HAN        -0.2710   -0.6480   -0.7810 ha        1 VGF      0.162000
     27 HAK         2.0980   -0.1510    3.5930 ha        1 VGF      0.152000
     28 HAJ        -0.3580    0.2130    3.4600 ha        1 VGF      0.147000
     29 HAO1       -2.2390    0.7880    2.0560 h1        1 VGF      0.073700
     30 HAO2       -2.1560    0.5800    0.2430 h1        1 VGF      0.073700
     31 HAA1       -3.0940   -0.3610    3.8840 hn        1 VGF      0.402800
     32 HAA2       -2.9970   -1.8790    4.5530 hn        1 VGF      0.402800
     33 HAM        -3.6570   -5.4100    0.6130 ha        1 VGF      0.150000
     34 HAG        -3.6210   -5.1890   -1.8800 ha        1 VGF      0.135000
     35 HAL        -3.2330   -2.9990   -2.9580 ha        1 VGF      0.137000
     36 HAH        -1.1420   -1.3120   -2.9840 ha        1 VGF      0.141000
     37 HAI        -4.5430    0.3090   -0.8600 ha        1 VGF      0.141000
     38 HAE        -0.9180    0.8230   -4.2530 ha        1 VGF      0.135000
     39 HAD        -2.5100    2.7000   -3.8340 ha        1 VGF      0.134000
     40 HAF        -4.3240    2.4390   -2.1390 ha        1 VGF      0.135000
@<TRIPOS>BOND
     1    1    2 ar  
     2    1    8 ar  
     3    1   26 1   
     4    2    3 1   
     5    2    4 ar  
     6    4    5 1   
     7    4    6 ar  
     8    6    7 ar  
     9    6   27 1   
    10    7    8 ar  
    11    7   28 1   
    12    8    9 1   
    13    9   10 1   
    14    9   29 1   
    15    9   30 1   
    16   10   11 1   
    17   10   12 1   
    18   11   15 ar  
    19   11   19 ar  
    20   12   13 1   
    21   12   14 2   
    22   13   31 1   
    23   13   32 1   
    24   14   15 1   
    25   15   16 ar  
    26   16   17 ar  
    27   16   33 1   
    28   17   18 ar  
    29   17   34 1   
    30   18   19 ar  
    31   18   35 1   
    32   19   20 1   
    33   20   21 ar  
    34   20   25 ar  
    35   21   22 ar  
    36   21   36 1   
    37   22   23 ar  
    38   22   38 1   
    39   23   24 ar  
    40   23   39 1   
    41   24   25 ar  
    42   24   40 1   
    43   25   37 1   
@<TRIPOS>SUBSTRUCTURE
     1 VGF         1 TEMP              0 ****  ****    0 ROOT
