@<TRIPOS>MOLECULE
VGG
   43    45     1     0     0
SMALL
bcc


@<TRIPOS>ATOM
      1 C20        -0.1650   -0.3890   -0.5800 c3        1 VGG     -0.105433
      2 C19         1.3570   -0.3130   -0.3670 c3        1 VGG      0.099700
      3 C21         1.6340   -0.6110    1.1150 c3        1 VGG     -0.105433
      4 C22         2.0010   -1.4170   -1.2200 c3        1 VGG     -0.105433
      5 N7          1.8960    1.0170   -0.7400 na        1 VGG      0.002200
      6 N8          1.1410    2.0150   -1.2380 nc        1 VGG     -0.516100
      7 C3          3.2490    1.4020   -0.6650 ca        1 VGG      0.473800
      8 N2          4.3560    0.7180   -0.2350 nb        1 VGG     -0.741000
      9 C1          5.4900    1.4460   -0.3120 ca        1 VGG      0.689900
     10 N6          5.6820    2.7270   -0.7320 nb        1 VGG     -0.797000
     11 C5          4.5770    3.4150   -1.1720 ca        1 VGG      0.747200
     12 N10         4.7080    4.6950   -1.6780 nh        1 VGG     -0.941500
     13 C4          3.3020    2.7730   -1.1560 ca        1 VGG     -0.492500
     14 C9          1.9310    3.0860   -1.5040 cd        1 VGG      0.377900
     15 C11         1.4350    4.3480   -2.1100 c3        1 VGG     -0.051400
     16 C12         1.4470    5.5010   -1.1640 ca        1 VGG     -0.085300
     17 C13         1.9100    6.7480   -1.5990 ca        1 VGG     -0.149000
     18 C17         0.9590    5.3640    0.1400 ca        1 VGG     -0.119000
     19 C16         0.9420    6.4630    0.9980 ca        1 VGG     -0.121000
     20 C15         1.4060    7.7020    0.5620 ca        1 VGG     -0.131000
     21 C14         1.8910    7.8530   -0.7420 ca        1 VGG     -0.074300
     22 C18         2.3630    9.1760   -1.2130 c3        1 VGG     -0.055800
     23 H201       -0.6960    0.3680    0.0440 hc        1 VGG      0.051589
     24 H202       -0.5110   -1.4070   -0.2780 hc        1 VGG      0.051589
     25 H203       -0.4290   -0.2270   -1.6520 hc        1 VGG      0.051589
     26 H211        1.1790    0.1700    1.7680 hc        1 VGG      0.051589
     27 H212        1.1780   -1.5990    1.3670 hc        1 VGG      0.051589
     28 H213        2.7290   -0.6660    1.3210 hc        1 VGG      0.051589
     29 H221        1.8160   -1.2380   -2.3060 hc        1 VGG      0.051589
     30 H222        3.1010   -1.4780   -1.0440 hc        1 VGG      0.051589
     31 H223        1.5440   -2.3950   -0.9360 hc        1 VGG      0.051589
     32 H1          6.4140    0.9280    0.0260 h5        1 VGG      0.050100
     33 H101        3.8830    5.2510   -1.6850 hn        1 VGG      0.430800
     34 H102        5.5680    5.1710   -1.5300 hn        1 VGG      0.430800
     35 H111        2.0750    4.5730   -3.0080 hc        1 VGG      0.071700
     36 H112        0.3800    4.2140   -2.4830 hc        1 VGG      0.071700
     37 H13         2.2820    6.8650   -2.6290 ha        1 VGG      0.131000
     38 H17         0.5910    4.3860    0.4850 ha        1 VGG      0.146000
     39 H16         0.5600    6.3500    2.0230 ha        1 VGG      0.135000
     40 H15         1.3910    8.5670    1.2420 ha        1 VGG      0.133000
     41 H181        2.9030    9.7180   -0.3980 hc        1 VGG      0.045700
     42 H182        1.4900    9.8020   -1.5280 hc        1 VGG      0.045700
     43 H183        3.0520    9.0730   -2.0870 hc        1 VGG      0.045700
@<TRIPOS>BOND
     1    1    2 1   
     2    1   23 1   
     3    1   24 1   
     4    1   25 1   
     5    2    3 1   
     6    2    4 1   
     7    2    5 1   
     8    3   26 1   
     9    3   27 1   
    10    3   28 1   
    11    4   29 1   
    12    4   30 1   
    13    4   31 1   
    14    5    6 1   
    15    5    7 1   
    16    6   14 2   
    17    7    8 ar  
    18    7   13 ar  
    19    8    9 ar  
    20    9   10 ar  
    21    9   32 1   
    22   10   11 ar  
    23   11   12 1   
    24   11   13 ar  
    25   12   33 1   
    26   12   34 1   
    27   13   14 1   
    28   14   15 1   
    29   15   16 1   
    30   15   35 1   
    31   15   36 1   
    32   16   17 ar  
    33   16   18 ar  
    34   17   21 ar  
    35   17   37 1   
    36   18   19 ar  
    37   18   38 1   
    38   19   20 ar  
    39   19   39 1   
    40   20   21 ar  
    41   20   40 1   
    42   21   22 1   
    43   22   41 1   
    44   22   42 1   
    45   22   43 1   
@<TRIPOS>SUBSTRUCTURE
     1 VGG         1 TEMP              0 ****  ****    0 ROOT
