@<TRIPOS>MOLECULE
VGG
   43    45     1     0     0
SMALL
bcc


@<TRIPOS>ATOM
      1 C20        -3.1880    3.0880   -0.7320 c3        1 VGG     -0.105433
      2 C19        -3.3860    1.6980   -0.1020 c3        1 VGG      0.099700
      3 C21        -3.7660    1.9070    1.3730 c3        1 VGG     -0.105433
      4 C22        -4.5640    1.0250   -0.8230 c3        1 VGG     -0.105433
      5 N7         -2.1630    0.8680   -0.2120 na        1 VGG      0.002200
      6 N8         -1.0360    1.2780   -0.8240 nc        1 VGG     -0.516100
      7 C3         -2.0230   -0.4510    0.2620 ca        1 VGG      0.473800
      8 N2         -2.9020   -1.2640    0.9290 nb        1 VGG     -0.741000
      9 C1         -2.3820   -2.4750    1.2220 ca        1 VGG      0.689900
     10 N6         -1.1450   -2.9830    0.9670 nb        1 VGG     -0.797000
     11 C5         -0.2630   -2.1750    0.2910 ca        1 VGG      0.747200
     12 N10         0.9870   -2.6500   -0.0630 nh        1 VGG     -0.941500
     13 C4         -0.6710   -0.8620   -0.0930 ca        1 VGG     -0.492500
     14 C9         -0.1140    0.2840   -0.7820 cd        1 VGG      0.377900
     15 C11         1.2310    0.3760   -1.4060 c3        1 VGG     -0.051400
     16 C12         2.3400    0.4490   -0.4110 ca        1 VGG     -0.085300
     17 C13         3.4960   -0.3140   -0.6080 ca        1 VGG     -0.149000
     18 C17         2.2580    1.3040    0.6930 ca        1 VGG     -0.119000
     19 C16         3.3200    1.3860    1.5920 ca        1 VGG     -0.121000
     20 C15         4.4700    0.6240    1.3940 ca        1 VGG     -0.131000
     21 C14         4.5660   -0.2300    0.2890 ca        1 VGG     -0.074300
     22 C18         5.7970   -1.0240    0.0660 c3        1 VGG     -0.055800
     23 H201       -2.3650    3.6450   -0.2250 hc        1 VGG      0.051589
     24 H202       -2.9550    3.0060   -1.8200 hc        1 VGG      0.051589
     25 H203       -4.1360    3.6660   -0.6130 hc        1 VGG      0.051589
     26 H211       -4.6640    2.5690    1.4150 hc        1 VGG      0.051589
     27 H212       -4.0170    0.9400    1.8690 hc        1 VGG      0.051589
     28 H213       -2.9340    2.3970    1.9310 hc        1 VGG      0.051589
     29 H221       -4.3280    0.8620   -1.9020 hc        1 VGG      0.051589
     30 H222       -4.8220    0.0460   -0.3550 hc        1 VGG      0.051589
     31 H223       -5.4540    1.6960   -0.7500 hc        1 VGG      0.051589
     32 H1         -3.0630   -3.1680    1.7630 h5        1 VGG      0.050100
     33 H101        1.3000   -3.4970    0.3510 hn        1 VGG      0.430800
     34 H102        1.6790   -1.9620   -0.2560 hn        1 VGG      0.430800
     35 H111        1.3630   -0.5200   -2.0740 hc        1 VGG      0.071700
     36 H112        1.2940    1.2880   -2.0650 hc        1 VGG      0.071700
     37 H13         3.5730   -0.9780   -1.4830 ha        1 VGG      0.131000
     38 H17         1.3510    1.9070    0.8490 ha        1 VGG      0.146000
     39 H16         3.2500    2.0580    2.4600 ha        1 VGG      0.135000
     40 H15         5.3060    0.6930    2.1050 ha        1 VGG      0.133000
     41 H181        6.5680   -0.3930   -0.4450 hc        1 VGG      0.045367
     42 H182        6.2230   -1.3770    1.0370 hc        1 VGG      0.045367
     43 H183        5.5930   -1.9150   -0.5770 hc        1 VGG      0.045367
@<TRIPOS>BOND
     1    1    2 1   
     2    1   23 1   
     3    1   24 1   
     4    1   25 1   
     5    2    3 1   
     6    2    4 1   
     7    2    5 1   
     8    3   26 1   
     9    3   27 1   
    10    3   28 1   
    11    4   29 1   
    12    4   30 1   
    13    4   31 1   
    14    5    6 1   
    15    5    7 1   
    16    6   14 2   
    17    7    8 ar  
    18    7   13 ar  
    19    8    9 ar  
    20    9   10 ar  
    21    9   32 1   
    22   10   11 ar  
    23   11   12 1   
    24   11   13 ar  
    25   12   33 1   
    26   12   34 1   
    27   13   14 1   
    28   14   15 1   
    29   15   16 1   
    30   15   35 1   
    31   15   36 1   
    32   16   17 ar  
    33   16   18 ar  
    34   17   21 ar  
    35   17   37 1   
    36   18   19 ar  
    37   18   38 1   
    38   19   20 ar  
    39   19   39 1   
    40   20   21 ar  
    41   20   40 1   
    42   21   22 1   
    43   22   41 1   
    44   22   42 1   
    45   22   43 1   
@<TRIPOS>SUBSTRUCTURE
     1 VGG         1 TEMP              0 ****  ****    0 ROOT
