@<TRIPOS>MOLECULE
VGG
   44    46     1     0     0
SMALL
bcc


@<TRIPOS>ATOM
      1 C20        -0.1480   -0.6690   -0.8580 c3        1 VGG     -0.112767
      2 C19         1.3490   -0.5070   -0.5560 c3        1 VGG      0.091700
      3 C21         1.5920   -0.9300    0.8980 c3        1 VGG     -0.112767
      4 C22         2.1300   -1.4370   -1.4940 c3        1 VGG     -0.112767
      5 N7          1.7900    0.9130   -0.7580 na        1 VGG      0.044200
      6 N8          0.9770    1.8930   -1.1620 nc        1 VGG     -0.440100
      7 C3          3.0950    1.3950   -0.5670 ca        1 VGG      0.457800
      8 N2          4.2450    0.7720   -0.1710 nb        1 VGG     -0.627000
      9 C1          5.3200    1.5770   -0.0960 ca        1 VGG      0.678900
     10 N6          5.3970    2.9250   -0.3540 nb        1 VGG     -0.700000
     11 C5          4.2540    3.5290   -0.7410 ca        1 VGG      0.560200
     12 N10         4.2900    4.9830   -0.9950 n4        1 VGG     -0.831300
     13 C4          3.0400    2.8370   -0.8910 ca        1 VGG     -0.430500
     14 C9          1.6600    3.0650   -1.2650 cd        1 VGG      0.351900
     15 C11         1.0380    4.3170   -1.7670 c3        1 VGG     -0.062400
     16 C12         1.4530    5.5430   -1.0310 ca        1 VGG     -0.127300
     17 C13         1.8640    6.6740   -1.7500 ca        1 VGG     -0.190000
     18 C17         1.3770    5.6040    0.3660 ca        1 VGG     -0.152000
     19 C16         1.7140    6.7830    1.0320 ca        1 VGG     -0.121000
     20 C15         2.1220    7.9050    0.3150 ca        1 VGG     -0.133000
     21 C14         2.1910    7.8620   -1.0850 ca        1 VGG     -0.066300
     22 C18         2.5700    9.0710   -1.8500 c3        1 VGG     -0.071800
     23 H201       -0.7690   -0.0360   -0.1810 hc        1 VGG      0.063700
     24 H202       -0.3790   -0.4090   -1.9180 hc        1 VGG      0.063700
     25 H203       -0.4200   -1.7400   -0.6900 hc        1 VGG      0.063700
     26 H211        2.6780   -0.9280    1.1530 hc        1 VGG      0.063700
     27 H212        1.0460   -0.2640    1.6070 hc        1 VGG      0.063700
     28 H213        1.2080   -1.9720    1.0240 hc        1 VGG      0.063700
     29 H221        1.9800   -1.1490   -2.5620 hc        1 VGG      0.063700
     30 H222        3.2200   -1.4380   -1.2620 hc        1 VGG      0.063700
     31 H223        1.7430   -2.4760   -1.3510 hc        1 VGG      0.063700
     32 H1          6.2800    1.1040    0.2190 h5        1 VGG      0.097100
     33 H101        3.7720    5.4610   -0.2370 hn        1 VGG      0.478133
     34 H102        3.8070    5.1790   -1.8830 hn        1 VGG      0.478133
     35 H111        1.2920    4.4130   -2.8620 hc        1 VGG      0.094200
     36 H112       -0.0870    4.2400   -1.7060 hc        1 VGG      0.094200
     37 H13         1.8740    6.6510   -2.8520 ha        1 VGG      0.149000
     38 H17         1.0180    4.7310    0.9340 ha        1 VGG      0.157000
     39 H16         1.6330    6.8320    2.1310 ha        1 VGG      0.160000
     40 H15         2.3650    8.8410    0.8440 ha        1 VGG      0.160000
     41 H181        3.3490    9.6620   -1.3080 hc        1 VGG      0.062700
     42 H182        2.9590    8.8090   -2.8640 hc        1 VGG      0.062700
     43 H183        1.6700    9.7260   -1.9830 hc        1 VGG      0.062700
     44 H103        5.2550    5.3340   -1.0310 hn        1 VGG      0.478133
@<TRIPOS>BOND
     1    1    2 1   
     2    1   23 1   
     3    1   24 1   
     4    1   25 1   
     5    2    3 1   
     6    2    4 1   
     7    2    5 1   
     8    3   26 1   
     9    3   27 1   
    10    3   28 1   
    11    4   29 1   
    12    4   30 1   
    13    4   31 1   
    14    5    6 1   
    15    5    7 1   
    16    6   14 2   
    17    7    8 ar  
    18    7   13 ar  
    19    8    9 ar  
    20    9   10 ar  
    21    9   32 1   
    22   10   11 ar  
    23   11   12 1   
    24   11   13 ar  
    25   12   33 1   
    26   12   34 1   
    27   12   44 1   
    28   13   14 1   
    29   14   15 1   
    30   15   16 1   
    31   15   35 1   
    32   15   36 1   
    33   16   17 ar  
    34   16   18 ar  
    35   17   21 ar  
    36   17   37 1   
    37   18   19 ar  
    38   18   38 1   
    39   19   20 ar  
    40   19   39 1   
    41   20   21 ar  
    42   20   40 1   
    43   21   22 1   
    44   22   41 1   
    45   22   42 1   
    46   22   43 1   
@<TRIPOS>SUBSTRUCTURE
     1 VGG         1 TEMP              0 ****  ****    0 ROOT
