@<TRIPOS>MOLECULE
VGG
   43    45     1     0     0
SMALL
bcc


@<TRIPOS>ATOM
      1 C20        -0.1970   -0.3690   -0.6240 c3        1 VGG     -0.105433
      2 C19         1.3220   -0.3070   -0.3900 c3        1 VGG      0.099700
      3 C21         1.5750   -0.6110    1.0950 c3        1 VGG     -0.105433
      4 C22         1.9690   -1.4140   -1.2370 c3        1 VGG     -0.105433
      5 N7          1.8780    1.0190   -0.7510 na        1 VGG      0.002200
      6 N8          1.1390    2.0250   -1.2570 nc        1 VGG     -0.516100
      7 C3          3.2330    1.3930   -0.6550 ca        1 VGG      0.473800
      8 N2          4.3280    0.6980   -0.2120 nb        1 VGG     -0.741000
      9 C1          5.4690    1.4170   -0.2710 ca        1 VGG      0.689900
     10 N6          5.6780    2.6970   -0.6840 nb        1 VGG     -0.797000
     11 C5          4.5850    3.3960   -1.1380 ca        1 VGG      0.747200
     12 N10         4.7350    4.6760   -1.6380 nv        1 VGG     -0.941500
     13 C4          3.3050    2.7640   -1.1410 ca        1 VGG     -0.492500
     14 C9          1.9410    3.0900   -1.5080 cd        1 VGG      0.377900
     15 C11         1.4660    4.3580   -2.1170 c3        1 VGG     -0.051400
     16 C12         1.4730    5.5080   -1.1680 ca        1 VGG     -0.085300
     17 C13         1.9540    6.7530   -1.5930 ca        1 VGG     -0.149000
     18 C17         0.9660    5.3720    0.1290 ca        1 VGG     -0.119000
     19 C16         0.9460    6.4690    0.9890 ca        1 VGG     -0.121000
     20 C15         1.4270    7.7050    0.5640 ca        1 VGG     -0.131000
     21 C14         1.9310    7.8560   -0.7330 ca        1 VGG     -0.074300
     22 C18         2.4210    9.1760   -1.1930 c3        1 VGG     -0.055800
     23 H201       -0.4450   -0.2010   -1.6990 hc        1 VGG      0.051589
     24 H202       -0.5560   -1.3840   -0.3300 hc        1 VGG      0.051589
     25 H203       -0.7300    0.3920   -0.0060 hc        1 VGG      0.051589
     26 H211        2.6670   -0.6760    1.3170 hc        1 VGG      0.051589
     27 H212        1.1070   -1.5960    1.3380 hc        1 VGG      0.051589
     28 H213        1.1170    0.1720    1.7450 hc        1 VGG      0.051589
     29 H221        1.4990   -2.3890   -0.9620 hc        1 VGG      0.051589
     30 H222        3.0660   -1.4840   -1.0450 hc        1 VGG      0.051589
     31 H223        1.8000   -1.2300   -2.3240 hc        1 VGG      0.051589
     32 H1          6.3830    0.8890    0.0790 h5        1 VGG      0.050100
     33 H101        5.5960    5.1440   -1.4760 hn        1 VGG      0.430800
     34 H102        3.9150    5.2390   -1.6550 hn        1 VGG      0.430800
     35 H111        0.4150    4.2350   -2.5060 hc        1 VGG      0.071700
     36 H112        2.1200    4.5800   -3.0060 hc        1 VGG      0.071700
     37 H13         2.3410    6.8700   -2.6170 ha        1 VGG      0.131000
     38 H17         0.5840    4.3960    0.4650 ha        1 VGG      0.146000
     39 H16         0.5480    6.3560    2.0090 ha        1 VGG      0.135000
     40 H15         1.4090    8.5680    1.2460 ha        1 VGG      0.133000
     41 H181        2.9470    9.7150   -0.3670 hc        1 VGG      0.045367
     42 H182        3.1290    9.0680   -2.0520 hc        1 VGG      0.045367
     43 H183        1.5590    9.8060   -1.5280 hc        1 VGG      0.045367
@<TRIPOS>BOND
     1    1    2 1   
     2    1   23 1   
     3    1   24 1   
     4    1   25 1   
     5    2    3 1   
     6    2    4 1   
     7    2    5 1   
     8    3   26 1   
     9    3   27 1   
    10    3   28 1   
    11    4   29 1   
    12    4   30 1   
    13    4   31 1   
    14    5    6 1   
    15    5    7 1   
    16    6   14 2   
    17    7    8 ar  
    18    7   13 ar  
    19    8    9 ar  
    20    9   10 ar  
    21    9   32 1   
    22   10   11 ar  
    23   11   12 1   
    24   11   13 ar  
    25   12   33 1   
    26   12   34 1   
    27   13   14 1   
    28   14   15 1   
    29   15   16 1   
    30   15   35 1   
    31   15   36 1   
    32   16   17 ar  
    33   16   18 ar  
    34   17   21 ar  
    35   17   37 1   
    36   18   19 ar  
    37   18   38 1   
    38   19   20 ar  
    39   19   39 1   
    40   20   21 ar  
    41   20   40 1   
    42   21   22 1   
    43   22   41 1   
    44   22   42 1   
    45   22   43 1   
@<TRIPOS>SUBSTRUCTURE
     1 VGG         1 TEMP              0 ****  ****    0 ROOT
