@<TRIPOS>MOLECULE
VGH
   52    55     1     0     0
SMALL
bcc


@<TRIPOS>ATOM
      1 CL          2.6570    2.9200   -1.2170 cl        1 VGH     -0.079400
      2 C13         3.9130    2.0710   -0.4380 ca        1 VGH      0.012400
      3 C3          4.9980    2.8300    0.0130 ca        1 VGH     -0.103000
      4 C2          6.0610    2.2120    0.6540 ca        1 VGH     -0.148000
      5 C12         6.0450    0.8190    0.8420 ca        1 VGH      0.128900
      6 F           7.0970    0.2390    1.4680 f         1 VGH     -0.121900
      7 C17         3.8670    0.6770   -0.2590 ca        1 VGH     -0.040300
      8 C18         4.9500    0.0500    0.3820 ca        1 VGH      0.013400
      9 CL2         4.9990   -1.6330    0.6220 cl        1 VGH     -0.055400
     10 C21         2.6700   -0.0840   -0.7700 c3        1 VGH      0.180400
     11 C1          3.0100   -0.9730   -1.9510 c3        1 VGH     -0.122100
     12 O27         2.1550   -0.8560    0.3400 os        1 VGH     -0.332900
     13 C15         0.8490   -1.2840    0.1600 ca        1 VGH     -0.082200
     14 C4         -0.2180   -0.3990    0.3060 ca        1 VGH     -0.074000
     15 C19         0.6030   -2.6870   -0.0430 ca        1 VGH      0.627200
     16 N22         1.6690   -3.5520   -0.2970 nh        1 VGH     -0.923500
     17 N23        -0.6840   -3.1660   -0.0530 nb        1 VGH     -0.713000
     18 C5         -1.6850   -2.2900    0.0850 ca        1 VGH      0.432200
     19 C14        -1.5290   -0.8950    0.2620 ca        1 VGH     -0.138300
     20 C16        -2.6640   -0.0330    0.3990 cc        1 VGH     -0.201300
     21 C6         -2.6720    1.3590    0.8150 cc        1 VGH      0.305200
     22 C7         -4.0220   -0.3300    0.1650 cd        1 VGH     -0.133300
     23 N26        -4.7420    0.8380    0.4370 na        1 VGH      0.091400
     24 N24        -3.9370    1.8430    0.8250 nd        1 VGH     -0.508800
     25 C20        -6.1950    0.9600    0.3200 c3        1 VGH      0.064000
     26 C8         -6.6800    0.7130   -1.1180 c3        1 VGH     -0.093400
     27 C10        -8.1970    0.8800   -1.1870 c3        1 VGH      0.163800
     28 N25        -8.9050    0.0450   -0.2380 n3        1 VGH     -0.824200
     29 C11        -8.4410    0.1940    1.1270 c3        1 VGH      0.163800
     30 C9         -6.9320    0.0040    1.2710 c3        1 VGH     -0.093400
     31 H3          5.0110    3.9210   -0.1380 ha        1 VGH      0.158000
     32 H2          6.9190    2.7970    1.0180 ha        1 VGH      0.160000
     33 H21         1.8630    0.6420   -1.0830 h1        1 VGH      0.068700
     34 H11C        3.4290   -0.3530   -2.7790 hc        1 VGH      0.055033
     35 H12C        3.7530   -1.7560   -1.6710 hc        1 VGH      0.055033
     36 H13C        2.0830   -1.4830   -2.3090 hc        1 VGH      0.055033
     37 H4         -0.0240    0.6730    0.4590 ha        1 VGH      0.148000
     38 H221        2.5470   -3.2120    0.0320 hn        1 VGH      0.414800
     39 H222        1.5020   -4.5200   -0.1370 hn        1 VGH      0.414800
     40 H5         -2.6960   -2.7370    0.0610 h4        1 VGH      0.019100
     41 H6         -1.8170    1.9730    1.0970 h4        1 VGH      0.043100
     42 H7         -4.5070   -1.2470   -0.1650 h4        1 VGH      0.178000
     43 H20        -6.4720    2.0210    0.6050 h1        1 VGH      0.085700
     44 H81C       -6.2070    1.4470   -1.8190 hc        1 VGH      0.061200
     45 H82C       -6.3920   -0.3190   -1.4490 hc        1 VGH      0.061200
     46 H91C       -6.6550   -1.0570    1.0410 hc        1 VGH      0.061200
     47 H92C       -6.6460    0.2150    2.3330 hc        1 VGH      0.061200
     48 H101       -8.4350    1.9770   -1.0490 h1        1 VGH      0.034200
     49 H102       -8.5430    0.5850   -2.2180 h1        1 VGH      0.034200
     50 H25        -9.8900    0.2230   -0.2890 hn        1 VGH      0.368800
     51 H111       -8.7110    1.2030    1.5600 h1        1 VGH      0.034200
     52 H112       -8.9620   -0.5910    1.7450 h1        1 VGH      0.034200
@<TRIPOS>BOND
     1    1    2 1   
     2    2    3 ar  
     3    2    7 ar  
     4    3    4 ar  
     5    3   31 1   
     6    4    5 ar  
     7    4   32 1   
     8    5    6 1   
     9    5    8 ar  
    10    7    8 ar  
    11    7   10 1   
    12    8    9 1   
    13   10   11 1   
    14   10   12 1   
    15   10   33 1   
    16   11   34 1   
    17   11   35 1   
    18   11   36 1   
    19   12   13 1   
    20   13   14 ar  
    21   13   15 ar  
    22   14   19 ar  
    23   14   37 1   
    24   15   16 1   
    25   15   17 ar  
    26   16   38 1   
    27   16   39 1   
    28   17   18 ar  
    29   18   19 ar  
    30   18   40 1   
    31   19   20 1   
    32   20   21 1   
    33   20   22 2   
    34   21   24 2   
    35   21   41 1   
    36   22   23 1   
    37   22   42 1   
    38   23   24 1   
    39   23   25 1   
    40   25   26 1   
    41   25   30 1   
    42   25   43 1   
    43   26   27 1   
    44   26   44 1   
    45   26   45 1   
    46   27   28 1   
    47   27   48 1   
    48   27   49 1   
    49   28   29 1   
    50   28   50 1   
    51   29   30 1   
    52   29   51 1   
    53   29   52 1   
    54   30   46 1   
    55   30   47 1   
@<TRIPOS>SUBSTRUCTURE
     1 VGH         1 TEMP              0 ****  ****    0 ROOT
