@<TRIPOS>MOLECULE
VGH
   52    55     1     0     0
SMALL
bcc


@<TRIPOS>ATOM
      1 Cl          0.4120    1.7560   -0.8830 cl        1 VGH     -0.079400
      2 C13         1.7550    0.8480   -0.3560 ca        1 VGH      0.012400
      3 C3          2.0280    0.8690    1.0150 ca        1 VGH     -0.103000
      4 C2          3.1050    0.1580    1.5220 ca        1 VGH     -0.148000
      5 C12         3.9250   -0.5790    0.6490 ca        1 VGH      0.128900
      6 F           4.9720   -1.2620    1.1670 f         1 VGH     -0.121900
      7 C17         2.5540    0.1150   -1.2530 ca        1 VGH     -0.040300
      8 C18         3.6520   -0.5970   -0.7410 ca        1 VGH      0.013400
      9 Cl2         4.6910   -1.4910   -1.7470 cl        1 VGH     -0.055400
     10 C21         2.2070    0.1350   -2.7200 c3        1 VGH      0.180400
     11 C1          3.2340    0.8850   -3.5470 c3        1 VGH     -0.122100
     12 O27         2.0930   -1.2430   -3.1450 os        1 VGH     -0.332900
     13 C15         1.3950   -1.4020   -4.3330 ca        1 VGH     -0.082200
     14 C4          0.0060   -1.2960   -4.3640 ca        1 VGH     -0.074000
     15 C19         2.1160   -1.8130   -5.5080 ca        1 VGH      0.627200
     16 N22         3.5120   -1.8120   -5.5060 nv        1 VGH     -0.923500
     17 N23         1.4340   -2.1440   -6.6540 nb        1 VGH     -0.713000
     18 C5          0.1020   -2.0290   -6.6510 ca        1 VGH      0.432200
     19 C14        -0.6780   -1.6060   -5.5480 ca        1 VGH     -0.138300
     20 C16        -2.1030   -1.5100   -5.6410 cc        1 VGH     -0.201300
     21 C6         -3.0490   -1.3220   -4.5550 cc        1 VGH      0.305200
     22 C7         -2.9120   -1.5740   -6.7940 cd        1 VGH     -0.133300
     23 N26        -4.2350   -1.4270   -6.3670 na        1 VGH      0.091400
     24 N24        -4.3160   -1.2780   -5.0330 nd        1 VGH     -0.508800
     25 C20        -5.3980   -1.4380   -7.2550 c3        1 VGH      0.064000
     26 C8         -5.3510   -0.2920   -8.2770 c3        1 VGH     -0.093400
     27 C10        -6.5990   -0.3350   -9.1580 c3        1 VGH      0.163800
     28 N25        -6.7930   -1.6160   -9.8060 n7        1 VGH     -0.824200
     29 C11        -6.7810   -2.7390   -8.8900 c3        1 VGH      0.163800
     30 C9         -5.5400   -2.7740   -8.0010 c3        1 VGH     -0.093400
     31 H3          1.3870    1.4490    1.6980 ha        1 VGH      0.158000
     32 H2          3.3290    0.1610    2.5990 ha        1 VGH      0.160000
     33 H21         1.1980    0.6220   -2.8670 h1        1 VGH      0.068700
     34 H11C        3.3190    1.9350   -3.1780 hc        1 VGH      0.055033
     35 H12C        2.9100    0.8980   -4.6170 hc        1 VGH      0.055033
     36 H13C        4.2360    0.3980   -3.4930 hc        1 VGH      0.055033
     37 H4         -0.5400   -0.9790   -3.4630 ha        1 VGH      0.148000
     38 H221        3.9100   -1.8730   -4.5930 hn        1 VGH      0.414800
     39 H222        3.9570   -2.3690   -6.2000 hn        1 VGH      0.414800
     40 H5         -0.3870   -2.3020   -7.6050 h4        1 VGH      0.019100
     41 H6         -2.8300   -1.2290   -3.4910 h4        1 VGH      0.043100
     42 H7         -2.6520   -1.7030   -7.8440 h4        1 VGH      0.178000
     43 H20        -6.3200   -1.2960   -6.6120 h1        1 VGH      0.085700
     44 H81C       -4.4310   -0.3790   -8.9120 hc        1 VGH      0.061200
     45 H82C       -5.3190    0.6970   -7.7530 hc        1 VGH      0.061200
     46 H91C       -5.6460   -3.6180   -7.2720 hc        1 VGH      0.061200
     47 H92C       -4.6280   -2.9660   -8.6240 hc        1 VGH      0.061200
     48 H101       -7.4870   -0.0410   -8.5230 h1        1 VGH      0.034200
     49 H102       -6.4920    0.4390   -9.9700 h1        1 VGH      0.034200
     50 H25        -7.6460   -1.6100  -10.3340 hn        1 VGH      0.368800
     51 H111       -7.6930   -2.7510   -8.2210 h1        1 VGH      0.034200
     52 H112       -6.8040   -3.6790   -9.5120 h1        1 VGH      0.034200
@<TRIPOS>BOND
     1    1    2 1   
     2    2    3 ar  
     3    2    7 ar  
     4    3    4 ar  
     5    3   31 1   
     6    4    5 ar  
     7    4   32 1   
     8    5    6 1   
     9    5    8 ar  
    10    7    8 ar  
    11    7   10 1   
    12    8    9 1   
    13   10   11 1   
    14   10   12 1   
    15   10   33 1   
    16   11   34 1   
    17   11   35 1   
    18   11   36 1   
    19   12   13 1   
    20   13   14 ar  
    21   13   15 ar  
    22   14   19 ar  
    23   14   37 1   
    24   15   16 1   
    25   15   17 ar  
    26   16   38 1   
    27   16   39 1   
    28   17   18 ar  
    29   18   19 ar  
    30   18   40 1   
    31   19   20 1   
    32   20   21 1   
    33   20   22 2   
    34   21   24 2   
    35   21   41 1   
    36   22   23 1   
    37   22   42 1   
    38   23   24 1   
    39   23   25 1   
    40   25   26 1   
    41   25   30 1   
    42   25   43 1   
    43   26   27 1   
    44   26   44 1   
    45   26   45 1   
    46   27   28 1   
    47   27   48 1   
    48   27   49 1   
    49   28   29 1   
    50   28   50 1   
    51   29   30 1   
    52   29   51 1   
    53   29   52 1   
    54   30   46 1   
    55   30   47 1   
@<TRIPOS>SUBSTRUCTURE
     1 VGH         1 TEMP              0 ****  ****    0 ROOT
