@<TRIPOS>MOLECULE
VGH
   52    47     1     0     0
SMALL
bcc


@<TRIPOS>ATOM
      1 CL          4.9740   -1.8630    2.4780 cl        1 VGH      0.003000
      2 C13         5.6710   -0.2820    2.2460 c2        1 VGH     -0.069000
      3 C3          6.9710   -0.0300    2.6590 c2        1 VGH     -0.106000
      4 C2          7.5060    1.2420    2.5280 c1        1 VGH     -0.148000
      5 C12         6.7410    2.2630    1.9860 c1        1 VGH      0.092000
      6 F           7.2650    3.4870    1.8420 f         1 VGH     -0.087000
      7 C17         4.9070    0.7400    1.7040 c1        1 VGH     -0.038000
      8 C18         5.4410    2.0120    1.5740 c1        1 VGH     -0.068000
      9 CL2         4.4550    3.3130    0.9620 cl        1 VGH      0.036000
     10 C21         3.4770    0.4740    1.2850 c3        1 VGH      0.057000
     11 C1          2.5380    0.9340    2.3770 c3        1 VGH     -0.240000
     12 O27         3.1980    1.1760    0.0990 os        1 VGH     -0.215000
     13 C15         2.3260    0.4990   -0.7730 c2        1 VGH     -0.060000
     14 C4          0.9780    0.6920   -0.6780 c2        1 VGH     -0.065000
     15 C19         2.8360   -0.3520   -1.7410 c1        1 VGH      0.098000
     16 N22         4.2400   -0.5230   -1.8660 n2        1 VGH     -0.319000
     17 N23         1.9930   -0.9960   -2.5960 n2        1 VGH     -0.188000
     18 C5          0.6480   -0.8030   -2.5020 c1        1 VGH     -0.033000
     19 C14         0.1350    0.0480   -1.5350 c1        1 VGH     -0.075000
     20 C16        -1.2360    0.1910   -1.3970 c1        1 VGH     -0.135000
     21 C6         -1.9520    1.3280   -1.6370 c1        1 VGH     -0.137000
     22 C7         -2.1140   -0.7920   -1.0450 c1        1 VGH     -0.137000
     23 N26        -3.3580   -0.2690   -1.0680 n2        1 VGH     -0.096500
     24 N24        -3.2570    1.0490   -1.4360 n2        1 VGH     -0.096500
     25 C20        -4.6070   -0.9930   -0.7760 c2        1 VGH      0.055000
     26 C8         -5.1690   -0.4850    0.5030 c3        1 VGH     -0.170000
     27 C10        -6.5470   -1.0400    0.7870 c3        1 VGH     -0.073000
     28 N25        -7.4660   -0.8630   -0.3410 n3        1 VGH     -0.301000
     29 C11        -6.9160   -1.3650   -1.6110 c3        1 VGH     -0.073000
     30 C9         -5.5370   -0.8110   -1.9050 c3        1 VGH     -0.170000
     31 H3          7.5090   -0.7500    3.0410 ha        1 VGH      0.157000
     32 H2          8.4210    1.4190    2.8190 ha        1 VGH      0.160000
     33 H21         3.3550   -0.4840    1.1330 h1        1 VGH      0.117000
     34 H11C        2.3480    0.1860    2.9800 hc        1 VGH      0.092333
     35 H12C        2.9560    1.6630    2.8810 hc        1 VGH      0.092333
     36 H13C        1.7030    1.2520    1.9760 hc        1 VGH      0.092333
     37 H4          0.6180    1.2920    0.0040 ha        1 VGH      0.151000
     38 H221        4.8010   -0.1700   -1.2370 hn        1 VGH      0.207000
     39 H222        4.5840   -0.9670   -2.5880 hn        1 VGH      0.207000
     40 H5          0.0440   -1.2650   -3.1170 ha        1 VGH      0.155000
     41 H6         -1.5850    2.1920   -1.9070 DU        1 VGH      0.177500
     42 H7         -1.8830   -1.7130   -0.8170 DU        1 VGH      0.177500
     43 H20        -4.4080   -1.9430   -0.6790 ha        1 VGH      0.096000
     44 H81C       -4.5700   -0.7370    1.2340 hc        1 VGH      0.107250
     45 H82C       -5.2240    0.4900    0.4600 hc        1 VGH      0.107250
     46 H91C       -5.1730   -1.2670   -2.6910 hc        1 VGH      0.107250
     47 H92C       -5.6150    0.1440   -2.1000 hc        1 VGH      0.107250
     48 H101       -6.4680   -1.9950    0.9840 h1        1 VGH      0.070250
     49 H102       -6.9160   -0.5850    1.5700 h1        1 VGH      0.070250
     50 H25        -8.2550   -1.2890   -0.1610 hn        1 VGH      0.163000
     51 H111       -6.8620   -2.3410   -1.5690 h1        1 VGH      0.070250
     52 H112       -7.5190   -1.1130   -2.3390 h1        1 VGH      0.070250
@<TRIPOS>BOND
     1    1    2 1   
     2    2    3 1   
     3    2    7 1   
     4    3    4 1   
     5    3   31 1   
     6    4   32 1   
     7    5    6 1   
     8    5    8 1   
     9    7   10 1   
    10    8    9 1   
    11   10   11 1   
    12   10   12 1   
    13   10   33 1   
    14   11   34 1   
    15   11   35 1   
    16   11   36 1   
    17   12   13 1   
    18   13   14 1   
    19   13   15 1   
    20   14   19 1   
    21   14   37 1   
    22   15   17 1   
    23   16   38 1   
    24   16   39 1   
    25   17   18 1   
    26   18   40 1   
    27   20   21 1   
    28   20   22 1   
    29   21   24 1   
    30   22   23 1   
    31   23   24 1   
    32   25   26 1   
    33   25   30 1   
    34   25   43 1   
    35   26   27 1   
    36   26   44 1   
    37   26   45 1   
    38   27   28 1   
    39   27   48 1   
    40   27   49 1   
    41   28   29 1   
    42   28   50 1   
    43   29   30 1   
    44   29   51 1   
    45   29   52 1   
    46   30   46 1   
    47   30   47 1   
@<TRIPOS>SUBSTRUCTURE
     1 VGH         1 TEMP              0 ****  ****    0 ROOT
