@<TRIPOS>MOLECULE
VGH
   53    56     1     0     0
SMALL
bcc


@<TRIPOS>ATOM
      1 CL          0.3940    0.1270    0.4860 cl        1 VGH     -0.057400
      2 C13         2.0700    0.0360    0.2150 ca        1 VGH      0.018400
      3 C3          2.8990    0.0330    1.3430 ca        1 VGH     -0.087000
      4 C2          4.2750   -0.0410    1.2000 ca        1 VGH     -0.129000
      5 C12         4.8410   -0.1060   -0.0880 ca        1 VGH      0.144900
      6 F           6.1850   -0.1820   -0.2060 f         1 VGH     -0.107900
      7 C17         2.6070   -0.0240   -1.0830 ca        1 VGH     -0.069300
      8 C18         4.0040   -0.0920   -1.2280 ca        1 VGH      0.002400
      9 CL2         4.7490   -0.1330   -2.7660 cl        1 VGH     -0.091400
     10 C21         1.6650    0.0010   -2.2570 c3        1 VGH      0.201400
     11 C1          1.7520    1.2880   -3.0500 c3        1 VGH     -0.136100
     12 O27         2.0250   -1.1560   -3.0610 os        1 VGH     -0.360900
     13 C15         1.2510   -1.4630   -4.1440 ca        1 VGH      0.116800
     14 C4         -0.0800   -1.0750   -4.3550 ca        1 VGH     -0.190000
     15 C19         1.8690   -2.3080   -5.1110 ca        1 VGH      0.329200
     16 N22         3.2600   -2.7440   -4.9110 n4        1 VGH     -0.793300
     17 N23         1.2180   -2.7590   -6.2260 nb        1 VGH     -0.609000
     18 C5         -0.0390   -2.3750   -6.4000 ca        1 VGH      0.376200
     19 C14        -0.7590   -1.5270   -5.4930 ca        1 VGH      0.048700
     20 C16        -2.1090   -1.1710   -5.7520 cc        1 VGH     -0.297300
     21 C6         -2.9830   -0.3430   -4.9360 cc        1 VGH      0.340200
     22 C7         -2.9220   -1.5370   -6.8590 cd        1 VGH     -0.071300
     23 N26        -4.1590   -0.9460   -6.6590 na        1 VGH      0.123400
     24 N24        -4.1990   -0.2330   -5.5140 nd        1 VGH     -0.482800
     25 C20        -5.3030   -1.0720   -7.5770 c3        1 VGH      0.051000
     26 C8         -4.9830   -0.4900   -8.9620 c3        1 VGH     -0.093400
     27 C10        -6.1990   -0.6430   -9.8770 c3        1 VGH      0.163300
     28 N25        -6.6600   -2.0140   -9.9670 n3        1 VGH     -0.828200
     29 C11        -6.9450   -2.6100   -8.6780 c3        1 VGH      0.163300
     30 C9         -5.7580   -2.5320   -7.7180 c3        1 VGH     -0.093400
     31 H3          2.4560    0.0890    2.3530 ha        1 VGH      0.175000
     32 H2          4.9380   -0.0470    2.0800 ha        1 VGH      0.178000
     33 H21         0.6040   -0.1620   -1.9050 h1        1 VGH      0.084700
     34 H11C        2.7830    1.4640   -3.4390 hc        1 VGH      0.068033
     35 H12C        1.0460    1.2550   -3.9150 hc        1 VGH      0.068033
     36 H13C        1.4710    2.1440   -2.3880 hc        1 VGH      0.068033
     37 H4         -0.5900   -0.4220   -3.6290 ha        1 VGH      0.174000
     38 H221        3.7120   -2.0900   -4.2530 hn        1 VGH      0.467800
     39 H222        3.2640   -3.6880   -4.5100 hn        1 VGH      0.467800
     40 H5         -0.5300   -2.7570   -7.3160 h4        1 VGH      0.053100
     41 H6         -2.7520    0.1450   -3.9870 h4        1 VGH      0.050100
     42 H7         -2.7020   -2.1530   -7.7330 h4        1 VGH      0.190000
     43 H20        -6.1580   -0.4760   -7.1320 h1        1 VGH      0.101700
     44 H81C       -4.7350    0.6000   -8.8800 hc        1 VGH      0.060700
     45 H82C       -4.1020   -1.0170   -9.4110 hc        1 VGH      0.060700
     46 H91C       -4.9170   -3.1650   -8.1010 hc        1 VGH      0.060700
     47 H92C       -6.0770   -2.9380   -6.7240 hc        1 VGH      0.060700
     48 H101       -7.0060    0.0580   -9.5080 h1        1 VGH      0.043700
     49 H102       -5.9090   -0.3140  -10.9150 h1        1 VGH      0.043700
     50 H25        -7.4600   -2.0760  -10.5680 hn        1 VGH      0.382800
     51 H111       -7.1920   -3.6950   -8.8540 h1        1 VGH      0.043700
     52 H112       -7.8370   -2.1330   -8.1730 h1        1 VGH      0.043700
     53 H223        3.7660   -2.7530   -5.8030 hn        1 VGH      0.467800
@<TRIPOS>BOND
     1    1    2 1   
     2    2    3 ar  
     3    2    7 ar  
     4    3    4 ar  
     5    3   31 1   
     6    4    5 ar  
     7    4   32 1   
     8    5    6 1   
     9    5    8 ar  
    10    7    8 ar  
    11    7   10 1   
    12    8    9 1   
    13   10   11 1   
    14   10   12 1   
    15   10   33 1   
    16   11   34 1   
    17   11   35 1   
    18   11   36 1   
    19   12   13 1   
    20   13   14 ar  
    21   13   15 ar  
    22   14   19 ar  
    23   14   37 1   
    24   15   16 1   
    25   15   17 ar  
    26   16   38 1   
    27   16   39 1   
    28   16   53 1   
    29   17   18 ar  
    30   18   19 ar  
    31   18   40 1   
    32   19   20 1   
    33   20   21 1   
    34   20   22 2   
    35   21   24 2   
    36   21   41 1   
    37   22   23 1   
    38   22   42 1   
    39   23   24 1   
    40   23   25 1   
    41   25   26 1   
    42   25   30 1   
    43   25   43 1   
    44   26   27 1   
    45   26   44 1   
    46   26   45 1   
    47   27   28 1   
    48   27   48 1   
    49   27   49 1   
    50   28   29 1   
    51   28   50 1   
    52   29   30 1   
    53   29   51 1   
    54   29   52 1   
    55   30   46 1   
    56   30   47 1   
@<TRIPOS>SUBSTRUCTURE
     1 VGH         1 TEMP              0 ****  ****    0 ROOT
