@<TRIPOS>MOLECULE
VGH
   52    55     1     0     0
SMALL
bcc


@<TRIPOS>ATOM
      1 CL          0.4130    1.7650   -0.8880 cl        1 VGH     -0.079400
      2 C13         1.7530    0.8550   -0.3570 ca        1 VGH      0.012400
      3 C3          2.0260    0.8790    1.0140 ca        1 VGH     -0.103000
      4 C2          3.1000    0.1670    1.5230 ca        1 VGH     -0.148000
      5 C12         3.9200   -0.5740    0.6530 ca        1 VGH      0.128900
      6 F           4.9650   -1.2580    1.1740 f         1 VGH     -0.121900
      7 C17         2.5520    0.1200   -1.2520 ca        1 VGH     -0.040300
      8 C18         3.6480   -0.5940   -0.7370 ca        1 VGH      0.013400
      9 CL2         4.6870   -1.4920   -1.7400 cl        1 VGH     -0.055400
     10 C21         2.2080    0.1370   -2.7190 c3        1 VGH      0.180400
     11 C1          3.2360    0.8830   -3.5470 c3        1 VGH     -0.122100
     12 O27         2.0910   -1.2410   -3.1420 os        1 VGH     -0.332900
     13 C15         1.3940   -1.4010   -4.3300 ca        1 VGH     -0.082200
     14 C4          0.0050   -1.2940   -4.3620 ca        1 VGH     -0.074000
     15 C19         2.1150   -1.8160   -5.5030 ca        1 VGH      0.627200
     16 N22         3.5110   -1.8180   -5.5000 nh        1 VGH     -0.923500
     17 N23         1.4340   -2.1490   -6.6490 nb        1 VGH     -0.713000
     18 C5          0.1030   -2.0310   -6.6480 ca        1 VGH      0.432200
     19 C14        -0.6780   -1.6050   -5.5470 ca        1 VGH     -0.138300
     20 C16        -2.1030   -1.5070   -5.6420 cc        1 VGH     -0.201300
     21 C6         -3.0500   -1.3110   -4.5570 cc        1 VGH      0.305200
     22 C7         -2.9110   -1.5750   -6.7950 cd        1 VGH     -0.133300
     23 N26        -4.2350   -1.4240   -6.3690 na        1 VGH      0.091400
     24 N24        -4.3160   -1.2680   -5.0360 nd        1 VGH     -0.508800
     25 C20        -5.3960   -1.4380   -7.2580 c3        1 VGH      0.064000
     26 C8         -5.3470   -0.2980   -8.2870 c3        1 VGH     -0.093400
     27 C10        -6.5950   -0.3430   -9.1680 c3        1 VGH      0.163800
     28 N25        -6.7910   -1.6280   -9.8090 n3        1 VGH     -0.824200
     29 C11        -6.7810   -2.7460   -8.8870 c3        1 VGH      0.163800
     30 C9         -5.5400   -2.7780   -7.9970 c3        1 VGH     -0.093400
     31 H3          1.3850    1.4620    1.6950 ha        1 VGH      0.158000
     32 H2          3.3230    0.1720    2.6010 ha        1 VGH      0.160000
     33 H21         1.2000    0.6260   -2.8690 h1        1 VGH      0.068700
     34 H11C        3.3230    1.9340   -3.1800 hc        1 VGH      0.055033
     35 H12C        4.2370    0.3950   -3.4910 hc        1 VGH      0.055033
     36 H13C        2.9130    0.8950   -4.6170 hc        1 VGH      0.055033
     37 H4         -0.5410   -0.9730   -3.4630 ha        1 VGH      0.148000
     38 H221        3.9090   -1.8780   -4.5870 hn        1 VGH      0.414800
     39 H222        3.9560   -2.3770   -6.1930 hn        1 VGH      0.414800
     40 H5         -0.3860   -2.3060   -7.6020 h4        1 VGH      0.019100
     41 H6         -2.8320   -1.2140   -3.4940 h4        1 VGH      0.043100
     42 H7         -2.6510   -1.7100   -7.8440 h4        1 VGH      0.178000
     43 H20        -6.3190   -1.2910   -6.6160 h1        1 VGH      0.085700
     44 H81C       -5.3140    0.6940   -7.7670 hc        1 VGH      0.061200
     45 H82C       -4.4280   -0.3900   -8.9200 hc        1 VGH      0.061200
     46 H91C       -4.6280   -2.9740   -8.6180 hc        1 VGH      0.061200
     47 H92C       -5.6480   -3.6170   -7.2630 hc        1 VGH      0.061200
     48 H101       -6.4860    0.4260   -9.9840 h1        1 VGH      0.034200
     49 H102       -7.4830   -0.0440   -8.5340 h1        1 VGH      0.034200
     50 H25        -7.6430   -1.6230  -10.3380 hn        1 VGH      0.368800
     51 H111       -6.8050   -3.6890   -9.5040 h1        1 VGH      0.034200
     52 H112       -7.6930   -2.7530   -8.2180 h1        1 VGH      0.034200
@<TRIPOS>BOND
     1    1    2 1   
     2    2    3 ar  
     3    2    7 ar  
     4    3    4 ar  
     5    3   31 1   
     6    4    5 ar  
     7    4   32 1   
     8    5    6 1   
     9    5    8 ar  
    10    7    8 ar  
    11    7   10 1   
    12    8    9 1   
    13   10   11 1   
    14   10   12 1   
    15   10   33 1   
    16   11   34 1   
    17   11   35 1   
    18   11   36 1   
    19   12   13 1   
    20   13   14 ar  
    21   13   15 ar  
    22   14   19 ar  
    23   14   37 1   
    24   15   16 1   
    25   15   17 ar  
    26   16   38 1   
    27   16   39 1   
    28   17   18 ar  
    29   18   19 ar  
    30   18   40 1   
    31   19   20 1   
    32   20   21 1   
    33   20   22 2   
    34   21   24 2   
    35   21   41 1   
    36   22   23 1   
    37   22   42 1   
    38   23   24 1   
    39   23   25 1   
    40   25   26 1   
    41   25   30 1   
    42   25   43 1   
    43   26   27 1   
    44   26   44 1   
    45   26   45 1   
    46   27   28 1   
    47   27   48 1   
    48   27   49 1   
    49   28   29 1   
    50   28   50 1   
    51   29   30 1   
    52   29   51 1   
    53   29   52 1   
    54   30   46 1   
    55   30   47 1   
@<TRIPOS>SUBSTRUCTURE
     1 VGH         1 TEMP              0 ****  ****    0 ROOT
