@<TRIPOS>MOLECULE
VGI
   41    44     1     0     0
SMALL
bcc


@<TRIPOS>ATOM
      1 C14         0.0750    0.5920    0.1570 ca        1 VGI     -0.086000
      2 C15         1.4700    0.5820    0.1690 ca        1 VGI     -0.021900
      3 Br1         2.4140    1.3910   -1.2350 br        1 VGI     -0.091100
      4 C16         2.1680   -0.0270    1.2150 ca        1 VGI     -0.104000
      5 C17         1.4600   -0.6270    2.2530 ca        1 VGI     -0.128000
      6 C18         0.0690   -0.6250    2.2640 ca        1 VGI     -0.097000
      7 C13        -0.6410   -0.0150    1.2100 ca        1 VGI      0.042600
      8 N2         -2.0710   -0.0120    1.2040 n         1 VGI     -0.412600
      9 C9         -2.7570   -1.2310    1.4230 c         1 VGI      0.735100
     10 O1         -2.1160   -2.2760    1.6380 o         1 VGI     -0.611500
     11 C12        -2.7500    1.2050    0.9810 c         1 VGI      0.725100
     12 O2         -2.1110    2.2550    0.7890 o         1 VGI     -0.604500
     13 C8         -4.2330    1.2000    0.9790 ca        1 VGI     -0.166600
     14 C10        -4.9080    2.3890    0.7800 ca        1 VGI     -0.026000
     15 C11        -6.3170    2.3980    0.7710 ca        1 VGI     -0.166000
     16 C7         -7.0260    1.2320    0.9550 ca        1 VGI     -0.065000
     17 C1         -6.3650   -0.0080    1.1570 ca        1 VGI     -0.102000
     18 C2         -4.9460   -0.0150    1.1760 ca        1 VGI      0.062000
     19 C3         -4.2320   -1.2210    1.3900 ca        1 VGI     -0.220600
     20 C4         -4.9240   -2.4050    1.5740 ca        1 VGI      0.016000
     21 C5         -6.3230   -2.4300    1.5490 ca        1 VGI     -0.252000
     22 C6         -7.0710   -1.2590    1.3530 ca        1 VGI      0.230600
     23 N1         -8.4570   -1.2700    1.4150 nu        1 VGI     -0.733600
     24 C19        -9.1720   -2.5230    1.3630 c3        1 VGI      0.192800
     25 C20       -10.6940   -2.3370    1.3070 c3        1 VGI      0.117400
     26 O3        -10.9940   -1.6340    0.1130 oh        1 VGI     -0.609800
     27 H14        -0.4690    1.0940   -0.6600 ha        1 VGI      0.161000
     28 H16         3.2690   -0.0360    1.2240 ha        1 VGI      0.146000
     29 H17         2.0070   -1.1110    3.0770 ha        1 VGI      0.139000
     30 H18        -0.4730   -1.1250    3.0820 ha        1 VGI      0.152000
     31 H10        -4.3440    3.3250    0.6280 ha        1 VGI      0.166000
     32 H11        -6.8440    3.3520    0.6160 ha        1 VGI      0.144000
     33 H7         -8.1260    1.2900    0.9480 ha        1 VGI      0.134000
     34 H4         -4.3640   -3.3430    1.7380 ha        1 VGI      0.162000
     35 H5         -6.8220   -3.4000    1.6930 ha        1 VGI      0.143000
     36 H1         -8.9260   -0.5230    0.9460 hn        1 VGI      0.428800
     37 H191       -8.9330   -3.1100    2.2960 h1        1 VGI      0.055700
     38 H192       -8.8550   -3.1340    0.4670 h1        1 VGI      0.055700
     39 H201      -11.0650   -1.7590    2.1950 h1        1 VGI      0.039200
     40 H202      -11.1760   -3.3500    1.2950 h1        1 VGI      0.039200
     41 H3        -11.9540   -1.5670    0.0610 ho        1 VGI      0.412000
@<TRIPOS>BOND
     1    1    2 ar  
     2    1    7 ar  
     3    1   27 1   
     4    2    3 1   
     5    2    4 ar  
     6    4    5 ar  
     7    4   28 1   
     8    5    6 ar  
     9    5   29 1   
    10    6    7 ar  
    11    6   30 1   
    12    7    8 1   
    13    8    9 1   
    14    8   11 1   
    15    9   10 2   
    16    9   19 1   
    17   11   12 2   
    18   11   13 1   
    19   13   14 ar  
    20   13   18 ar  
    21   14   15 ar  
    22   14   31 1   
    23   15   16 ar  
    24   15   32 1   
    25   16   17 ar  
    26   16   33 1   
    27   17   18 ar  
    28   17   22 ar  
    29   18   19 ar  
    30   19   20 ar  
    31   20   21 ar  
    32   20   34 1   
    33   21   22 ar  
    34   21   35 1   
    35   22   23 1   
    36   23   24 1   
    37   23   36 1   
    38   24   25 1   
    39   24   37 1   
    40   24   38 1   
    41   25   26 1   
    42   25   39 1   
    43   25   40 1   
    44   26   41 1   
@<TRIPOS>SUBSTRUCTURE
     1 VGI         1 TEMP              0 ****  ****    0 ROOT
