@<TRIPOS>MOLECULE
VGI
   41    44     1     0     0
SMALL
bcc


@<TRIPOS>ATOM
      1 C14         0.0720    0.6090    0.1600 ca        1 VGI     -0.086000
      2 C15         1.4670    0.6000    0.1680 ca        1 VGI     -0.021900
      3 BR1         2.4060    1.4300   -1.2260 br        1 VGI     -0.091100
      4 C16         2.1680   -0.0250    1.2020 ca        1 VGI     -0.104000
      5 C17         1.4640   -0.6420    2.2340 ca        1 VGI     -0.128000
      6 C18         0.0720   -0.6400    2.2480 ca        1 VGI     -0.097000
      7 C13        -0.6410   -0.0140    1.2060 ca        1 VGI      0.042600
      8 N2         -2.0710   -0.0120    1.2050 n         1 VGI     -0.412600
      9 C9         -2.7560   -1.2340    1.4070 c         1 VGI      0.735100
     10 O1         -2.1150   -2.2820    1.6040 o         1 VGI     -0.611500
     11 C12        -2.7510    1.2080    1.0020 c         1 VGI      0.725100
     12 O2         -2.1130    2.2620    0.8260 o         1 VGI     -0.604500
     13 C8         -4.2340    1.2020    1.0050 ca        1 VGI     -0.166600
     14 C10        -4.9100    2.3940    0.8260 ca        1 VGI     -0.026000
     15 C11        -6.3190    2.4040    0.8220 ca        1 VGI     -0.166000
     16 C7         -7.0270    1.2350    0.9890 ca        1 VGI     -0.065000
     17 C1         -6.3650   -0.0080    1.1710 ca        1 VGI     -0.102000
     18 C2         -4.9460   -0.0150    1.1850 ca        1 VGI      0.062000
     19 C3         -4.2320   -1.2240    1.3780 ca        1 VGI     -0.220600
     20 C4         -4.9230   -2.4120    1.5460 ca        1 VGI      0.016000
     21 C5         -6.3210   -2.4360    1.5240 ca        1 VGI     -0.252000
     22 C6         -7.0700   -1.2630    1.3480 ca        1 VGI      0.230600
     23 N1         -8.4570   -1.2760    1.4140 nh        1 VGI     -0.733600
     24 C19        -9.1710   -2.5280    1.3440 c3        1 VGI      0.192800
     25 C20       -10.6930   -2.3410    1.2940 c3        1 VGI      0.117400
     26 O3        -10.9960   -1.6200    0.1110 oh        1 VGI     -0.609800
     27 H14        -0.4750    1.1230   -0.6470 ha        1 VGI      0.161000
     28 H16         3.2690   -0.0340    1.2080 ha        1 VGI      0.146000
     29 H17         2.0130   -1.1380    3.0490 ha        1 VGI      0.139000
     30 H18        -0.4670   -1.1530    3.0610 ha        1 VGI      0.152000
     31 H10        -4.3460    3.3330    0.6880 ha        1 VGI      0.166000
     32 H11        -6.8460    3.3600    0.6830 ha        1 VGI      0.144000
     33 H7         -8.1270    1.2920    0.9860 ha        1 VGI      0.134000
     34 H4         -4.3620   -3.3520    1.6940 ha        1 VGI      0.162000
     35 H5         -6.8190   -3.4090    1.6550 ha        1 VGI      0.143000
     36 H1         -8.9270   -0.5210    0.9570 hn        1 VGI      0.428800
     37 H191       -8.9300   -3.1290    2.2670 h1        1 VGI      0.055700
     38 H192       -8.8550   -3.1240    0.4380 h1        1 VGI      0.055700
     39 H201      -11.0620   -1.7770    2.1920 h1        1 VGI      0.039200
     40 H202      -11.1750   -3.3540    1.2680 h1        1 VGI      0.039200
     41 H3        -11.9570   -1.5530    0.0630 ho        1 VGI      0.412000
@<TRIPOS>BOND
     1    1    2 ar  
     2    1    7 ar  
     3    1   27 1   
     4    2    3 1   
     5    2    4 ar  
     6    4    5 ar  
     7    4   28 1   
     8    5    6 ar  
     9    5   29 1   
    10    6    7 ar  
    11    6   30 1   
    12    7    8 1   
    13    8    9 1   
    14    8   11 1   
    15    9   10 2   
    16    9   19 1   
    17   11   12 2   
    18   11   13 1   
    19   13   14 ar  
    20   13   18 ar  
    21   14   15 ar  
    22   14   31 1   
    23   15   16 ar  
    24   15   32 1   
    25   16   17 ar  
    26   16   33 1   
    27   17   18 ar  
    28   17   22 ar  
    29   18   19 ar  
    30   19   20 ar  
    31   20   21 ar  
    32   20   34 1   
    33   21   22 ar  
    34   21   35 1   
    35   22   23 1   
    36   23   24 1   
    37   23   36 1   
    38   24   25 1   
    39   24   37 1   
    40   24   38 1   
    41   25   26 1   
    42   25   39 1   
    43   25   40 1   
    44   26   41 1   
@<TRIPOS>SUBSTRUCTURE
     1 VGI         1 TEMP              0 ****  ****    0 ROOT
