@<TRIPOS>MOLECULE
VGI
   42    45     1     0     0
SMALL
bcc


@<TRIPOS>ATOM
      1 C14         0.0350   -0.1270   -0.0250 ca        1 VGI     -0.079000
      2 C15         1.4310   -0.1270   -0.0570 ca        1 VGI     -0.023900
      3 BR1         2.3180   -0.2970   -1.6960 br        1 VGI     -0.061100
      4 C16         2.1640   -0.0000    1.1260 ca        1 VGI     -0.079000
      5 C17         1.4980    0.1270    2.3440 ca        1 VGI     -0.121000
      6 C18         0.1070    0.1280    2.3980 ca        1 VGI     -0.090000
      7 C13        -0.6330    0.0010    1.2070 ca        1 VGI      0.016600
      8 N2         -2.0700    0.0020    1.2440 n         1 VGI     -0.407600
      9 C9         -2.7380   -1.2310    1.2570 c         1 VGI      0.711100
     10 O1         -2.1210   -2.3070    1.2600 o         1 VGI     -0.551500
     11 C12        -2.7390    1.2420    1.2590 c         1 VGI      0.715100
     12 O2         -2.1060    2.3080    1.2660 o         1 VGI     -0.546500
     13 C8         -4.2300    1.2400    1.2680 ca        1 VGI     -0.122600
     14 C10        -4.9060    2.4410    1.2720 ca        1 VGI     -0.034000
     15 C11        -6.3210    2.4500    1.2800 ca        1 VGI     -0.081000
     16 C7         -7.0320    1.2730    1.2830 ca        1 VGI     -0.144000
     17 C1         -6.3620    0.0170    1.2780 ca        1 VGI     -0.038000
     18 C2         -4.9420    0.0090    1.2710 ca        1 VGI      0.013000
     19 C3         -4.2340   -1.2220    1.2670 ca        1 VGI     -0.076600
     20 C4         -4.9120   -2.4220    1.2700 ca        1 VGI     -0.066000
     21 C5         -6.3230   -2.4410    1.2760 ca        1 VGI     -0.080000
     22 C6         -7.0340   -1.2520    1.2790 ca        1 VGI     -0.028400
     23 N1         -8.5010   -1.2360    1.2860 n4        1 VGI     -0.626400
     24 C19        -9.1660   -2.5670    1.1680 c3        1 VGI      0.096800
     25 C20       -10.6960   -2.4330    1.1340 c3        1 VGI      0.107400
     26 O3        -11.0100   -1.4600    0.1560 oh        1 VGI     -0.631800
     27 H14        -0.5360   -0.2280   -0.9620 ha        1 VGI      0.153000
     28 H16         3.2670    0.0010    1.1040 ha        1 VGI      0.160000
     29 H17         2.0780    0.2280    3.2750 ha        1 VGI      0.152000
     30 H18        -0.4010    0.2320    3.3690 ha        1 VGI      0.144000
     31 H10        -4.3450    3.3950    1.2680 ha        1 VGI      0.193000
     32 H11        -6.8460    3.4200    1.2820 ha        1 VGI      0.169000
     33 H7         -8.1300    1.3300    1.2890 ha        1 VGI      0.127000
     34 H4         -4.3530   -3.3770    1.2670 ha        1 VGI      0.198000
     35 H5         -6.8140   -3.4290    1.2760 ha        1 VGI      0.160000
     36 H1         -8.8240   -0.6550    0.4920 hn        1 VGI      0.465800
     37 H191       -8.8730   -3.2060    2.0480 hx        1 VGI      0.115200
     38 H192       -8.8080   -3.0470    0.2120 hx        1 VGI      0.115200
     39 H201      -11.1250   -3.4400    0.8820 h1        1 VGI      0.076700
     40 H202      -11.0940   -2.0960    2.1300 h1        1 VGI      0.076700
     41 H3        -11.8920   -1.6540   -0.1900 ho        1 VGI      0.456000
     42 H12        -8.8130   -0.7820    2.1550 hn        1 VGI      0.465800
@<TRIPOS>BOND
     1    1    2 ar  
     2    1    7 ar  
     3    1   27 1   
     4    2    3 1   
     5    2    4 ar  
     6    4    5 ar  
     7    4   28 1   
     8    5    6 ar  
     9    5   29 1   
    10    6    7 ar  
    11    6   30 1   
    12    7    8 1   
    13    8    9 1   
    14    8   11 1   
    15    9   10 2   
    16    9   19 1   
    17   11   12 2   
    18   11   13 1   
    19   13   14 ar  
    20   13   18 ar  
    21   14   15 ar  
    22   14   31 1   
    23   15   16 ar  
    24   15   32 1   
    25   16   17 ar  
    26   16   33 1   
    27   17   18 ar  
    28   17   22 ar  
    29   18   19 ar  
    30   19   20 ar  
    31   20   21 ar  
    32   20   34 1   
    33   21   22 ar  
    34   21   35 1   
    35   22   23 1   
    36   23   24 1   
    37   23   36 1   
    38   23   42 1   
    39   24   25 1   
    40   24   37 1   
    41   24   38 1   
    42   25   26 1   
    43   25   39 1   
    44   25   40 1   
    45   26   41 1   
@<TRIPOS>SUBSTRUCTURE
     1 VGI         1 TEMP              0 ****  ****    0 ROOT
