@<TRIPOS>MOLECULE
VGI
   41    44     1     0     0
SMALL
bcc


@<TRIPOS>ATOM
      1 C14        -3.1540   -0.5130   -0.1460 ca        1 VGI     -0.086000
      2 C15        -4.5220   -0.4110    0.1100 ca        1 VGI     -0.021900
      3 BR1        -5.7490   -0.7250   -1.2720 br        1 VGI     -0.091100
      4 C16        -4.9830   -0.0750    1.3850 ca        1 VGI     -0.104000
      5 C17        -4.0660    0.1580    2.4070 ca        1 VGI     -0.128000
      6 C18        -2.6970    0.0580    2.1740 ca        1 VGI     -0.097000
      7 C13        -2.2250   -0.2780    0.8890 ca        1 VGI      0.042600
      8 N2         -0.8220   -0.3780    0.6340 n         1 VGI     -0.412600
      9 C9          0.0230    0.6800    1.0480 c         1 VGI      0.735100
     10 O1         -0.4540    1.6640    1.6420 o         1 VGI     -0.611500
     11 C12        -0.3270   -1.5260   -0.0200 c         1 VGI      0.725100
     12 O2         -1.1030   -2.4330   -0.3710 o         1 VGI     -0.604500
     13 C8          1.1310   -1.6220   -0.2780 ca        1 VGI     -0.166600
     14 C10         1.6280   -2.7500   -0.9010 ca        1 VGI     -0.026000
     15 C11         3.0100   -2.8540   -1.1570 ca        1 VGI     -0.166000
     16 C7          3.8670   -1.8390   -0.7950 ca        1 VGI     -0.065000
     17 C1          3.3890   -0.6640   -0.1570 ca        1 VGI     -0.102000
     18 C2          1.9990   -0.5650    0.1090 ca        1 VGI      0.062000
     19 C3          1.4670    0.5780    0.7580 ca        1 VGI     -0.220600
     20 C4          2.3090    1.6120    1.1290 ca        1 VGI      0.016000
     21 C5          3.6820    1.5460    0.8690 ca        1 VGI     -0.252000
     22 C6          4.2550    0.4300    0.2400 ca        1 VGI      0.230600
     23 N1          5.6270    0.3280    0.0610 nh        1 VGI     -0.733600
     24 C19         6.4640    1.4920    0.2220 c3        1 VGI      0.192800
     25 C20         7.9300    1.2250   -0.1450 c3        1 VGI      0.117400
     26 O3          7.9680    0.8690   -1.5170 oh        1 VGI     -0.609800
     27 H14        -2.7980   -0.8000   -1.1490 ha        1 VGI      0.161000
     28 H16        -6.0620    0.0070    1.5880 ha        1 VGI      0.146000
     29 H17        -4.4250    0.4260    3.4120 ha        1 VGI      0.139000
     30 H18        -1.9870    0.2680    2.9900 ha        1 VGI      0.152000
     31 H10         0.9450   -3.5650   -1.1970 ha        1 VGI      0.166000
     32 H11         3.3960   -3.7590   -1.6500 ha        1 VGI      0.144000
     33 H7          4.9400   -1.9670   -1.0080 ha        1 VGI      0.134000
     34 H4          1.8900    2.5020    1.6320 ha        1 VGI      0.162000
     35 H5          4.3040    2.4000    1.1780 ha        1 VGI      0.143000
     36 H1          5.9330   -0.2870   -0.6640 hn        1 VGI      0.428800
     37 H191        6.0900    2.3510   -0.4080 h1        1 VGI      0.055700
     38 H192        6.4350    1.8070    1.3050 h1        1 VGI      0.055700
     39 H201        8.5180    2.1650    0.0310 h1        1 VGI      0.039200
     40 H202        8.3600    0.3960    0.4780 h1        1 VGI      0.039200
     41 H3          8.8960    0.7530   -1.7500 ho        1 VGI      0.412000
@<TRIPOS>BOND
     1    1    2 ar  
     2    1    7 ar  
     3    1   27 1   
     4    2    3 1   
     5    2    4 ar  
     6    4    5 ar  
     7    4   28 1   
     8    5    6 ar  
     9    5   29 1   
    10    6    7 ar  
    11    6   30 1   
    12    7    8 1   
    13    8    9 1   
    14    8   11 1   
    15    9   10 2   
    16    9   19 1   
    17   11   12 2   
    18   11   13 1   
    19   13   14 ar  
    20   13   18 ar  
    21   14   15 ar  
    22   14   31 1   
    23   15   16 ar  
    24   15   32 1   
    25   16   17 ar  
    26   16   33 1   
    27   17   18 ar  
    28   17   22 ar  
    29   18   19 ar  
    30   19   20 ar  
    31   20   21 ar  
    32   20   34 1   
    33   21   22 ar  
    34   21   35 1   
    35   22   23 1   
    36   23   24 1   
    37   23   36 1   
    38   24   25 1   
    39   24   37 1   
    40   24   38 1   
    41   25   26 1   
    42   25   39 1   
    43   25   40 1   
    44   26   41 1   
@<TRIPOS>SUBSTRUCTURE
     1 VGI         1 TEMP              0 ****  ****    0 ROOT
