@<TRIPOS>MOLECULE
VGJ
   61    60     1     0     0
SMALL
bcc


@<TRIPOS>ATOM
      1 O1          1.1030    1.9120    0.0580 o         1 VGJ     -0.852300
      2 C15         1.2840    0.7660   -0.4510 c         1 VGJ      0.907600
      3 O2          0.7460   -0.2900   -0.0090 o         1 VGJ     -0.852300
      4 C14         2.2000    0.6490   -1.6830 c3        1 VGJ     -0.192400
      5 C13         3.6590    0.5330   -1.2710 c3        1 VGJ     -0.046700
      6 C16         4.1610    1.8560   -0.7320 c3        1 VGJ     -0.094100
      7 C12         4.5020    0.0540   -2.4460 c3        1 VGJ     -0.076400
      8 C11         5.9210   -0.2830   -2.0380 c3        1 VGJ     -0.079400
      9 C10         6.7090   -0.8370   -3.2070 c3        1 VGJ     -0.076400
     10 C9          8.1650   -1.1140   -2.8510 c3        1 VGJ     -0.065700
     11 C17         8.2800   -2.3420   -1.9710 c3        1 VGJ     -0.088100
     12 C8          8.9870   -1.2760   -4.1230 c3        1 VGJ     -0.076400
     13 C7         10.4760   -1.1850   -3.8640 c3        1 VGJ     -0.079400
     14 C6         11.2580   -1.2870   -5.1570 c3        1 VGJ     -0.076400
     15 C5         12.7610   -1.1540   -4.9400 c3        1 VGJ     -0.065700
     16 C18        13.3300   -2.4130   -4.3200 c3        1 VGJ     -0.088100
     17 C4         13.4480   -0.8390   -6.2620 c3        1 VGJ     -0.076400
     18 C3         14.8670   -0.3450   -6.0740 c3        1 VGJ     -0.079400
     19 C2         15.4910    0.0330   -7.4010 c3        1 VGJ     -0.076400
     20 C1         16.9140    0.5470   -7.2460 c3        1 VGJ     -0.068700
     21 C19        17.8860   -0.5830   -6.9780 c3        1 VGJ     -0.089600
     22 C20        17.3320    1.3100   -8.4870 c3        1 VGJ     -0.089600
     23 H141        1.8990   -0.2570   -2.2660 hc        1 VGJ      0.021200
     24 H142        2.0600    1.5500   -2.3310 hc        1 VGJ      0.021200
     25 H13         3.7240   -0.2370   -0.4510 hc        1 VGJ      0.051700
     26 H161        5.1270    1.7230   -0.1870 hc        1 VGJ      0.031700
     27 H162        4.3220    2.5860   -1.5610 hc        1 VGJ      0.031700
     28 H163        3.3940    2.2780   -0.0300 hc        1 VGJ      0.031700
     29 H121        4.5170    0.8440   -3.2410 hc        1 VGJ      0.028200
     30 H122        4.0230   -0.8580   -2.8920 hc        1 VGJ      0.028200
     31 H111        5.8990   -1.0310   -1.2020 hc        1 VGJ      0.038200
     32 H112        6.4270    0.6380   -1.6460 hc        1 VGJ      0.038200
     33 H101        6.2290   -1.7830   -3.5710 hc        1 VGJ      0.035200
     34 H102        6.6680   -0.0990   -4.0510 hc        1 VGJ      0.035200
     35 H9          8.5640   -0.2280   -2.2810 hc        1 VGJ      0.046700
     36 H171        9.3420   -2.5150   -1.6740 hc        1 VGJ      0.031367
     37 H172        7.9100   -3.2480   -2.5100 hc        1 VGJ      0.031367
     38 H173        7.6720   -2.2120   -1.0430 hc        1 VGJ      0.031367
     39 H81C        8.7460   -2.2630   -4.5980 hc        1 VGJ      0.037700
     40 H82C        8.6960   -0.4760   -4.8550 hc        1 VGJ      0.037700
     41 H71C       10.7900   -2.0050   -3.1660 hc        1 VGJ      0.039700
     42 H72C       10.7110   -0.2110   -3.3590 hc        1 VGJ      0.039700
     43 H61C       10.9110   -0.4780   -5.8540 hc        1 VGJ      0.038700
     44 H62C       11.0400   -2.2680   -5.6540 hc        1 VGJ      0.038700
     45 H5         12.9410   -0.2940   -4.2330 hc        1 VGJ      0.047700
     46 H181       13.1890   -3.2860   -5.0020 hc        1 VGJ      0.031700
     47 H182       14.4220   -2.2930   -4.1210 hc        1 VGJ      0.031700
     48 H183       12.8200   -2.6360   -3.3520 hc        1 VGJ      0.031700
     49 H41C       13.4500   -1.7560   -6.9080 hc        1 VGJ      0.038700
     50 H42C       12.8600   -0.0520   -6.8060 hc        1 VGJ      0.038700
     51 H31C       14.8670    0.5460   -5.3910 hc        1 VGJ      0.039700
     52 H32C       15.4830   -1.1410   -5.5800 hc        1 VGJ      0.039700
     53 H21C       15.4870   -0.8560   -8.0850 hc        1 VGJ      0.039200
     54 H22C       14.8640    0.8270   -7.8870 hc        1 VGJ      0.039200
     55 HA         16.9430    1.2560   -6.3690 hc        1 VGJ      0.046700
     56 H191       17.8870   -1.3080   -7.8270 hc        1 VGJ      0.031533
     57 H192       17.6040   -1.1300   -6.0470 hc        1 VGJ      0.031533
     58 H193       18.9210   -0.1820   -6.8550 hc        1 VGJ      0.031533
     59 H201       18.3810    1.6770   -8.3830 hc        1 VGJ      0.031533
     60 H202       16.6630    2.1890   -8.6490 hc        1 VGJ      0.031533
     61 H203       17.2750    0.6510   -9.3870 hc        1 VGJ      0.031533
@<TRIPOS>BOND
     1    1    2 1   
     2    2    3 1   
     3    2    4 1   
     4    4    5 1   
     5    4   23 1   
     6    4   24 1   
     7    5    6 1   
     8    5    7 1   
     9    5   25 1   
    10    6   26 1   
    11    6   27 1   
    12    6   28 1   
    13    7    8 1   
    14    7   29 1   
    15    7   30 1   
    16    8    9 1   
    17    8   31 1   
    18    8   32 1   
    19    9   10 1   
    20    9   33 1   
    21    9   34 1   
    22   10   11 1   
    23   10   12 1   
    24   10   35 1   
    25   11   36 1   
    26   11   37 1   
    27   11   38 1   
    28   12   13 1   
    29   12   39 1   
    30   12   40 1   
    31   13   14 1   
    32   13   41 1   
    33   13   42 1   
    34   14   15 1   
    35   14   43 1   
    36   14   44 1   
    37   15   16 1   
    38   15   17 1   
    39   15   45 1   
    40   16   46 1   
    41   16   47 1   
    42   16   48 1   
    43   17   18 1   
    44   17   49 1   
    45   17   50 1   
    46   18   19 1   
    47   18   51 1   
    48   18   52 1   
    49   19   20 1   
    50   19   53 1   
    51   19   54 1   
    52   20   21 1   
    53   20   22 1   
    54   20   55 1   
    55   21   56 1   
    56   21   57 1   
    57   21   58 1   
    58   22   59 1   
    59   22   60 1   
    60   22   61 1   
@<TRIPOS>SUBSTRUCTURE
     1 VGJ         1 TEMP              0 ****  ****    0 ROOT
