@<TRIPOS>MOLECULE
VGJ
   61    60     1     0     0
SMALL
bcc


@<TRIPOS>ATOM
      1 O1          8.8120   -1.1310    1.5890 o         1 VGJ     -0.852300
      2 C15         8.3940   -0.7830    0.4450 c         1 VGJ      0.907600
      3 O2          9.0310   -0.0140   -0.3300 o         1 VGJ     -0.852300
      4 C14         7.0400   -1.3350   -0.0380 c3        1 VGJ     -0.192400
      5 C13         5.8870   -0.4880    0.4770 c3        1 VGJ     -0.046700
      6 C16         5.7060   -0.6940    1.9660 c3        1 VGJ     -0.094100
      7 C12         4.6120   -0.8090   -0.2900 c3        1 VGJ     -0.076400
      8 C11         3.4860    0.1510    0.0330 c3        1 VGJ     -0.079400
      9 C10         2.2600   -0.1400   -0.8070 c3        1 VGJ     -0.076400
     10 C9          1.0810    0.7580   -0.4520 c3        1 VGJ     -0.065700
     11 C17         1.3060    2.1670   -0.9590 c3        1 VGJ     -0.088100
     12 C8         -0.2050    0.1720   -1.0200 c3        1 VGJ     -0.076400
     13 C7         -1.4430    0.7930   -0.4060 c3        1 VGJ     -0.079400
     14 C6         -2.7000    0.1440   -0.9480 c3        1 VGJ     -0.076400
     15 C5         -3.9650    0.7140   -0.3190 c3        1 VGJ     -0.065700
     16 C18        -4.2630    2.0960   -0.8620 c3        1 VGJ     -0.088100
     17 C4         -5.1340   -0.2320   -0.5640 c3        1 VGJ     -0.076400
     18 C3         -6.3240    0.0780    0.3200 c3        1 VGJ     -0.079400
     19 C2         -7.4350   -0.9280    0.1060 c3        1 VGJ     -0.076400
     20 C1         -8.6440   -0.6530    0.9900 c3        1 VGJ     -0.068700
     21 C19        -9.4500    0.5210    0.4750 c3        1 VGJ     -0.089600
     22 C20        -9.5180   -1.8870    1.0760 c3        1 VGJ     -0.089600
     23 H141        7.0350   -1.3390   -1.1570 hc        1 VGJ      0.021200
     24 H142        6.9240   -2.3890    0.3200 hc        1 VGJ      0.021200
     25 H13         6.1480    0.5930    0.2940 hc        1 VGJ      0.051700
     26 H161        5.2350   -1.6850    2.1740 hc        1 VGJ      0.031700
     27 H162        6.7110   -0.6670    2.4630 hc        1 VGJ      0.031700
     28 H163        5.0560    0.1020    2.4020 hc        1 VGJ      0.031700
     29 H121        4.8260   -0.7660   -1.3910 hc        1 VGJ      0.028200
     30 H122        4.2900   -1.8580   -0.0560 hc        1 VGJ      0.028200
     31 H111        3.2240    0.0700    1.1210 hc        1 VGJ      0.038200
     32 H112        3.8320    1.2020   -0.1470 hc        1 VGJ      0.038200
     33 H101        2.5090   -0.0150   -1.8940 hc        1 VGJ      0.035200
     34 H102        1.9670   -1.2130   -0.6570 hc        1 VGJ      0.035200
     35 H9          0.9900    0.7930    0.6710 hc        1 VGJ      0.046700
     36 H171        0.4620    2.8330   -0.6580 hc        1 VGJ      0.031367
     37 H172        2.2510    2.5850   -0.5360 hc        1 VGJ      0.031367
     38 H173        1.3840    2.1760   -2.0730 hc        1 VGJ      0.031367
     39 H81C       -0.2210    0.3180   -2.1320 hc        1 VGJ      0.037700
     40 H82C       -0.2220   -0.9340   -0.8310 hc        1 VGJ      0.037700
     41 H71C       -1.4090    0.6740    0.7090 hc        1 VGJ      0.039700
     42 H72C       -1.4610    1.8930   -0.6220 hc        1 VGJ      0.039700
     43 H61C       -2.7440    0.2790   -2.0610 hc        1 VGJ      0.038700
     44 H62C       -2.6510   -0.9600   -0.7500 hc        1 VGJ      0.038700
     45 H5         -3.8020    0.7940    0.7940 hc        1 VGJ      0.047700
     46 H181       -5.1650    2.5260   -0.3640 hc        1 VGJ      0.031700
     47 H182       -3.4010    2.7810   -0.6780 hc        1 VGJ      0.031700
     48 H183       -4.4530    2.0540   -1.9620 hc        1 VGJ      0.031700
     49 H41C       -5.4390   -0.1750   -1.6420 hc        1 VGJ      0.038700
     50 H42C       -4.8030   -1.2870   -0.3680 hc        1 VGJ      0.038700
     51 H31C       -6.0070    0.0650    1.3960 hc        1 VGJ      0.039700
     52 H32C       -6.7020    1.1110    0.0980 hc        1 VGJ      0.039700
     53 H21C       -7.7500   -0.9190   -0.9710 hc        1 VGJ      0.039200
     54 H22C       -7.0450   -1.9570    0.3280 hc        1 VGJ      0.039200
     55 HA         -8.2770   -0.4050    2.0260 hc        1 VGJ      0.046700
     56 H191       -9.8330    0.3140   -0.5530 hc        1 VGJ      0.031533
     57 H192      -10.3230    0.7140    1.1450 hc        1 VGJ      0.031533
     58 H193       -8.8220    1.4430    0.4390 hc        1 VGJ      0.031533
     59 H201       -8.9500   -2.7380    1.5240 hc        1 VGJ      0.031533
     60 H202      -10.4130   -1.6850    1.7130 hc        1 VGJ      0.031533
     61 H203       -9.8680   -2.1910    0.0600 hc        1 VGJ      0.031533
@<TRIPOS>BOND
     1    1    2 1   
     2    2    3 1   
     3    2    4 1   
     4    4    5 1   
     5    4   23 1   
     6    4   24 1   
     7    5    6 1   
     8    5    7 1   
     9    5   25 1   
    10    6   26 1   
    11    6   27 1   
    12    6   28 1   
    13    7    8 1   
    14    7   29 1   
    15    7   30 1   
    16    8    9 1   
    17    8   31 1   
    18    8   32 1   
    19    9   10 1   
    20    9   33 1   
    21    9   34 1   
    22   10   11 1   
    23   10   12 1   
    24   10   35 1   
    25   11   36 1   
    26   11   37 1   
    27   11   38 1   
    28   12   13 1   
    29   12   39 1   
    30   12   40 1   
    31   13   14 1   
    32   13   41 1   
    33   13   42 1   
    34   14   15 1   
    35   14   43 1   
    36   14   44 1   
    37   15   16 1   
    38   15   17 1   
    39   15   45 1   
    40   16   46 1   
    41   16   47 1   
    42   16   48 1   
    43   17   18 1   
    44   17   49 1   
    45   17   50 1   
    46   18   19 1   
    47   18   51 1   
    48   18   52 1   
    49   19   20 1   
    50   19   53 1   
    51   19   54 1   
    52   20   21 1   
    53   20   22 1   
    54   20   55 1   
    55   21   56 1   
    56   21   57 1   
    57   21   58 1   
    58   22   59 1   
    59   22   60 1   
    60   22   61 1   
@<TRIPOS>SUBSTRUCTURE
     1 VGJ         1 TEMP              0 ****  ****    0 ROOT
