@<TRIPOS>MOLECULE
VGJ
   61    60     1     0     0
SMALL
bcc


@<TRIPOS>ATOM
      1 O1          1.1080    1.9100    0.0700 o         1 VGJ     -0.852300
      2 C15         1.2920    0.7620   -0.4310 c         1 VGJ      0.907600
      3 O2          0.7600   -0.2930    0.0210 o         1 VGJ     -0.852300
      4 C14         2.2040    0.6390   -1.6650 c3        1 VGJ     -0.192400
      5 C13         3.6650    0.5300   -1.2580 c3        1 VGJ     -0.046700
      6 C16         4.1650    1.8590   -0.7300 c3        1 VGJ     -0.094100
      7 C12         4.5060    0.0450   -2.4320 c3        1 VGJ     -0.076400
      8 C11         5.9270   -0.2840   -2.0270 c3        1 VGJ     -0.079400
      9 C10         6.7130   -0.8440   -3.1940 c3        1 VGJ     -0.076400
     10 C9          8.1710   -1.1140   -2.8410 c3        1 VGJ     -0.065700
     11 C17         8.2920   -2.3360   -1.9540 c3        1 VGJ     -0.088100
     12 C8          8.9900   -1.2810   -4.1140 c3        1 VGJ     -0.076400
     13 C7         10.4800   -1.1830   -3.8610 c3        1 VGJ     -0.079400
     14 C6         11.2580   -1.2910   -5.1550 c3        1 VGJ     -0.076400
     15 C5         12.7610   -1.1500   -4.9430 c3        1 VGJ     -0.065700
     16 C18        13.3370   -2.4020   -4.3150 c3        1 VGJ     -0.088100
     17 C4         13.4430   -0.8430   -6.2700 c3        1 VGJ     -0.076400
     18 C3         14.8590   -0.3400   -6.0890 c3        1 VGJ     -0.079400
     19 C2         15.4790    0.0280   -7.4210 c3        1 VGJ     -0.076400
     20 C1         16.9000    0.5530   -7.2740 c3        1 VGJ     -0.068700
     21 C19        17.8780   -0.5690   -6.9960 c3        1 VGJ     -0.089600
     22 C20        17.3110    1.3040   -8.5240 c3        1 VGJ     -0.089600
     23 H141        1.9040   -0.2730   -2.2400 hc        1 VGJ      0.021200
     24 H142        2.0590    1.5340   -2.3200 hc        1 VGJ      0.021200
     25 H13         3.7350   -0.2330   -0.4320 hc        1 VGJ      0.051700
     26 H161        3.3990    2.2840   -0.0290 hc        1 VGJ      0.031700
     27 H162        4.3200    2.5830   -1.5650 hc        1 VGJ      0.031700
     28 H163        5.1320    1.7330   -0.1880 hc        1 VGJ      0.031700
     29 H121        4.0280   -0.8710   -2.8700 hc        1 VGJ      0.028200
     30 H122        4.5160    0.8300   -3.2330 hc        1 VGJ      0.028200
     31 H111        6.4320    0.6410   -1.6420 hc        1 VGJ      0.038200
     32 H112        5.9110   -1.0260   -1.1860 hc        1 VGJ      0.038200
     33 H101        6.2350   -1.7930   -3.5510 hc        1 VGJ      0.035200
     34 H102        6.6680   -0.1110   -4.0430 hc        1 VGJ      0.035200
     35 H9          8.5690   -0.2230   -2.2770 hc        1 VGJ      0.046700
     36 H171        7.6860   -2.2020   -1.0250 hc        1 VGJ      0.031367
     37 H172        9.3550   -2.5040   -1.6590 hc        1 VGJ      0.031367
     38 H173        7.9240   -3.2460   -2.4860 hc        1 VGJ      0.031367
     39 H81C        8.6940   -0.4860   -4.8500 hc        1 VGJ      0.037700
     40 H82C        8.7510   -2.2710   -4.5830 hc        1 VGJ      0.037700
     41 H71C       10.7980   -1.9970   -3.1580 hc        1 VGJ      0.039700
     42 H72C       10.7120   -0.2050   -3.3620 hc        1 VGJ      0.039700
     43 H61C       10.9060   -0.4890   -5.8570 hc        1 VGJ      0.038700
     44 H62C       11.0420   -2.2770   -5.6450 hc        1 VGJ      0.038700
     45 H5         12.9400   -0.2840   -4.2440 hc        1 VGJ      0.047700
     46 H181       14.4290   -2.2770   -4.1210 hc        1 VGJ      0.031700
     47 H182       13.1960   -3.2810   -4.9890 hc        1 VGJ      0.031700
     48 H183       12.8310   -2.6180   -3.3430 hc        1 VGJ      0.031700
     49 H41C       12.8490   -0.0640   -6.8190 hc        1 VGJ      0.038700
     50 H42C       13.4490   -1.7660   -6.9070 hc        1 VGJ      0.038700
     51 H31C       14.8560    0.5580   -5.4150 hc        1 VGJ      0.039700
     52 H32C       15.4820   -1.1270   -5.5880 hc        1 VGJ      0.039700
     53 H21C       15.4800   -0.8680   -8.0960 hc        1 VGJ      0.039200
     54 H22C       14.8470    0.8140   -7.9140 hc        1 VGJ      0.039200
     55 HA         16.9260    1.2700   -6.4050 hc        1 VGJ      0.046700
     56 H191       17.6020   -1.1080   -6.0580 hc        1 VGJ      0.031533
     57 H192       18.9110   -0.1610   -6.8780 hc        1 VGJ      0.031533
     58 H193       17.8830   -1.3030   -7.8370 hc        1 VGJ      0.031533
     59 H201       16.6360    2.1770   -8.6940 hc        1 VGJ      0.031533
     60 H202       18.3580    1.6790   -8.4250 hc        1 VGJ      0.031533
     61 H203       17.2560    0.6360   -9.4170 hc        1 VGJ      0.031533
@<TRIPOS>BOND
     1    1    2 1   
     2    2    3 1   
     3    2    4 1   
     4    4    5 1   
     5    4   23 1   
     6    4   24 1   
     7    5    6 1   
     8    5    7 1   
     9    5   25 1   
    10    6   26 1   
    11    6   27 1   
    12    6   28 1   
    13    7    8 1   
    14    7   29 1   
    15    7   30 1   
    16    8    9 1   
    17    8   31 1   
    18    8   32 1   
    19    9   10 1   
    20    9   33 1   
    21    9   34 1   
    22   10   11 1   
    23   10   12 1   
    24   10   35 1   
    25   11   36 1   
    26   11   37 1   
    27   11   38 1   
    28   12   13 1   
    29   12   39 1   
    30   12   40 1   
    31   13   14 1   
    32   13   41 1   
    33   13   42 1   
    34   14   15 1   
    35   14   43 1   
    36   14   44 1   
    37   15   16 1   
    38   15   17 1   
    39   15   45 1   
    40   16   46 1   
    41   16   47 1   
    42   16   48 1   
    43   17   18 1   
    44   17   49 1   
    45   17   50 1   
    46   18   19 1   
    47   18   51 1   
    48   18   52 1   
    49   19   20 1   
    50   19   53 1   
    51   19   54 1   
    52   20   21 1   
    53   20   22 1   
    54   20   55 1   
    55   21   56 1   
    56   21   57 1   
    57   21   58 1   
    58   22   59 1   
    59   22   60 1   
    60   22   61 1   
@<TRIPOS>SUBSTRUCTURE
     1 VGJ         1 TEMP              0 ****  ****    0 ROOT
