@<TRIPOS>MOLECULE
VGK
   47    49     1     0     0
SMALL
bcc


@<TRIPOS>ATOM
      1 C01         0.2260   -1.1580    0.0980 c3        1 VGK      0.112700
      2 O02         1.5260   -0.5790    0.0740 os        1 VGK     -0.320400
      3 C03         2.0480   -0.2200    1.3020 ca        1 VGK      0.137100
      4 C04         1.2940   -0.1370    2.4780 ca        1 VGK     -0.225000
      5 C05         1.8980    0.2770    3.6720 cp        1 VGK      0.063000
      6 C06         1.1120    0.3740    4.8930 cp        1 VGK     -0.239300
      7 C07        -0.2310    0.7990    4.8650 ca        1 VGK      0.446200
      8 N08        -1.0220    0.9060    5.9390 nb        1 VGK     -0.751000
      9 C09        -0.4920    0.5710    7.1640 ca        1 VGK      0.667200
     10 N10        -1.3290    0.5510    8.2690 nv        1 VGK     -0.948500
     11 C11         0.8890    0.1760    7.3020 cp        1 VGK     -0.179300
     12 C12         1.4740   -0.0920    8.6130 cp        1 VGK     -0.088000
     13 C13         1.5070    0.9110    9.5930 ca        1 VGK     -0.152000
     14 C14         2.0760    0.6570   10.8370 ca        1 VGK     -0.109500
     15 C15         2.6220   -0.5980   11.1280 ca        1 VGK     -0.113600
     16 C16         3.2370   -0.8700   12.4950 c         1 VGK      0.906200
     17 O17         3.1970    0.0560   13.3520 o         1 VGK     -0.825800
     18 O18         3.7510   -2.0060   12.6930 o         1 VGK     -0.825800
     19 C19         2.5960   -1.5940   10.1480 ca        1 VGK     -0.109500
     20 C20         2.0300   -1.3460    8.8990 ca        1 VGK     -0.152000
     21 C21         1.6610    0.0670    6.1500 ca        1 VGK     -0.037000
     22 C22         3.2600    0.6070    3.6870 ca        1 VGK     -0.225000
     23 C23         4.0170    0.5130    2.5150 ca        1 VGK      0.137100
     24 O24         5.3540    0.8490    2.4310 os        1 VGK     -0.320400
     25 C25         6.0200    1.0740    3.6710 c3        1 VGK      0.112700
     26 C26         3.4250    0.0850    1.3080 ca        1 VGK      0.026100
     27 O27         4.1780   -0.1380    0.1690 os        1 VGK     -0.311900
     28 C28         4.5820    1.0620   -0.4900 c3        1 VGK      0.115700
     29 H011        0.0720   -1.4930   -0.9590 h1        1 VGK      0.044200
     30 H012       -0.5370   -0.3930    0.3820 h1        1 VGK      0.044200
     31 H013        0.1860   -2.0280    0.7970 h1        1 VGK      0.044200
     32 H04         0.2280   -0.4030    2.4770 ha        1 VGK      0.145500
     33 H22         3.7220    0.9430    4.6260 ha        1 VGK      0.145500
     34 H07        -0.7070    1.0880    3.9090 h4        1 VGK      0.009100
     35 H21         2.7080   -0.2660    6.2340 ha        1 VGK      0.146000
     36 H101       -2.1910    1.0380    8.2180 hn        1 VGK      0.428300
     37 H102       -0.8830    0.5060    9.1580 hn        1 VGK      0.428300
     38 H13         1.0980    1.9060    9.3680 ha        1 VGK      0.110500
     39 H20         2.0110   -2.1350    8.1330 ha        1 VGK      0.110500
     40 H14         2.1130    1.4340   11.6190 ha        1 VGK      0.155500
     41 H19         3.0340   -2.5760   10.3910 ha        1 VGK      0.155500
     42 H251        5.6320    2.0010    4.1590 h1        1 VGK      0.044200
     43 H252        7.0900    1.2060    3.3690 h1        1 VGK      0.044200
     44 H253        5.9070    0.1950    4.3510 h1        1 VGK      0.044200
     45 H281        3.6890    1.6330   -0.8410 h1        1 VGK      0.037033
     46 H282        5.1860    0.6980   -1.3570 h1        1 VGK      0.037033
     47 H283        5.2040    1.6900    0.1940 h1        1 VGK      0.037033
@<TRIPOS>BOND
     1    1    2 1   
     2    1   29 1   
     3    1   30 1   
     4    1   31 1   
     5    2    3 1   
     6    3    4 ar  
     7    3   26 ar  
     8    4    5 ar  
     9    4   32 1   
    10    5    6 1   
    11    5   22 ar  
    12    6    7 ar  
    13    6   21 ar  
    14    7    8 ar  
    15    7   34 1   
    16    8    9 ar  
    17    9   10 1   
    18    9   11 ar  
    19   10   36 1   
    20   10   37 1   
    21   11   12 1   
    22   11   21 ar  
    23   12   13 ar  
    24   12   20 ar  
    25   13   14 ar  
    26   13   38 1   
    27   14   15 ar  
    28   14   40 1   
    29   15   16 1   
    30   15   19 ar  
    31   16   17 1   
    32   16   18 1   
    33   19   20 ar  
    34   19   41 1   
    35   20   39 1   
    36   21   35 1   
    37   22   23 ar  
    38   22   33 1   
    39   23   24 1   
    40   23   26 ar  
    41   24   25 1   
    42   25   42 1   
    43   25   43 1   
    44   25   44 1   
    45   26   27 1   
    46   27   28 1   
    47   28   45 1   
    48   28   46 1   
    49   28   47 1   
@<TRIPOS>SUBSTRUCTURE
     1 VGK         1 TEMP              0 ****  ****    0 ROOT
