@<TRIPOS>MOLECULE
VGK
   47    39     1     0     0
SMALL
bcc


@<TRIPOS>ATOM
      1 C01         2.1780   -3.0940   -3.2110 c3        1 VGK     -0.076000
      2 O02         1.0640   -2.5020   -3.8290 os        1 VGK     -0.231000
      3 C03         0.6750   -1.2350   -3.2470 c2        1 VGK      0.040000
      4 C04        -0.1360   -1.2100   -2.0950 c1        1 VGK     -0.143000
      5 C05        -0.4630    0.0150   -1.4900 c1        1 VGK     -0.079667
      6 C06        -1.3340    0.0400   -0.3590 c1        1 VGK     -0.079667
      7 C07        -2.7190   -0.0230   -0.5410 c1        1 VGK     -0.017000
      8 N08        -3.5470   -0.0770    0.5400 n1        1 VGK     -0.225000
      9 C09        -3.0280   -0.0710    1.7920 c1        1 VGK      0.148000
     10 N10        -3.9010    0.0290    2.9270 n3        1 VGK     -0.347000
     11 C11        -1.6400   -0.0080    1.9750 c1        1 VGK     -0.115000
     12 C12        -1.0910    0.0110    3.2980 c1        1 VGK     -0.079667
     13 C13        -0.7590   -1.2050    3.9390 c1        1 VGK     -0.137000
     14 C14        -0.1720   -1.1890    5.1920 c1        1 VGK     -0.137000
     15 C15         0.0950    0.0320    5.8280 c1        1 VGK     -0.093000
     16 C16         0.7210    0.0470    7.1990 c2        1 VGK      0.355000
     17 O17         2.0040    0.0570    7.3180 o         1 VGK     -0.561000
     18 O18        -0.0080   -0.0390    8.2260 o         1 VGK     -0.561000
     19 C19        -0.2350    1.2420    5.1940 c1        1 VGK     -0.109000
     20 C20        -0.8280    1.2280    3.9290 c1        1 VGK     -0.104667
     21 C21        -0.8160    0.0470    0.8960 c1        1 VGK     -0.104667
     22 C22         0.0210    1.2210   -2.0360 c1        1 VGK     -0.104667
     23 C23         0.8290    1.1980   -3.1830 c1        1 VGK      0.058000
     24 O24         1.2550    2.4270   -3.7790 os        1 VGK     -0.223000
     25 C25         2.4110    2.9900   -3.1740 c3        1 VGK     -0.073000
     26 C26         1.1570   -0.0360   -3.7900 c2        1 VGK     -0.017000
     27 O27         2.0050   -0.0640   -4.8940 os        1 VGK     -0.230000
     28 C28         1.3300    0.0370   -6.1430 c3        1 VGK     -0.074000
     29 H011        2.9590   -2.4790   -3.2770 h1        1 VGK      0.081667
     30 H012        1.9680   -3.2740   -2.2290 h1        1 VGK      0.081667
     31 H013        2.4010   -3.9830   -3.6830 h1        1 VGK      0.081667
     32 H04        -0.4620   -2.0630   -1.7000 ha        1 VGK      0.150000
     33 H22        -0.2490    2.1060   -1.6250 ha        1 VGK      0.139000
     34 H07        -3.1110   -0.0290   -1.4860 ha        1 VGK      0.149000
     35 H21         0.1540    0.0900    1.0250 ha        1 VGK      0.139000
     36 H101       -3.5310    0.1250    3.8090 hn        1 VGK      0.225500
     37 H102       -4.8490   -0.0560    2.8120 hn        1 VGK      0.225500
     38 H13        -0.8850   -2.0680    3.4620 ha        1 VGK      0.131000
     39 H20        -1.0610    2.0780    3.4820 ha        1 VGK      0.139000
     40 H14         0.0590   -2.0320    5.6350 ha        1 VGK      0.131000
     41 H19         0.0560    2.1430    5.6170 ha        1 VGK      0.156000
     42 H251        2.6140    3.8180   -3.5900 h1        1 VGK      0.082333
     43 H252        3.1360    2.4020   -3.2800 h1        1 VGK      0.082333
     44 H253        2.2370    3.1430   -2.1750 h1        1 VGK      0.082333
     45 H281        0.3390    0.1260   -5.9840 h1        1 VGK      0.082000
     46 H282        1.5010   -0.7470   -6.6630 h1        1 VGK      0.082000
     47 H283        1.6570    0.8310   -6.6290 h1        1 VGK      0.082000
@<TRIPOS>BOND
     1    1    2 1   
     2    1   29 1   
     3    1   30 1   
     4    1   31 1   
     5    2    3 1   
     6    3    4 1   
     7    3   26 1   
     8    4   32 1   
     9    5   22 1   
    10    6   21 1   
    11    7    8 1   
    12    7   34 1   
    13    9   10 1   
    14    9   11 1   
    15   10   36 1   
    16   10   37 1   
    17   12   20 1   
    18   13   14 1   
    19   13   38 1   
    20   14   40 1   
    21   15   16 1   
    22   15   19 1   
    23   16   17 1   
    24   16   18 1   
    25   19   41 1   
    26   20   39 1   
    27   21   35 1   
    28   22   33 1   
    29   23   24 1   
    30   23   26 1   
    31   24   25 1   
    32   25   42 1   
    33   25   43 1   
    34   25   44 1   
    35   26   27 1   
    36   27   28 1   
    37   28   45 1   
    38   28   46 1   
    39   28   47 1   
@<TRIPOS>SUBSTRUCTURE
     1 VGK         1 TEMP              0 ****  ****    0 ROOT
