@<TRIPOS>MOLECULE
VGK
   47    49     1     0     0
SMALL
bcc


@<TRIPOS>ATOM
      1 C01         5.6050    2.4160    0.8670 c3        1 VGK      0.112200
      2 O02         5.6370    1.0040    0.6880 os        1 VGK     -0.318400
      3 C03         4.4580    0.4190    0.2670 ca        1 VGK      0.139600
      4 C04         3.2480    1.1060    0.1260 ca        1 VGK     -0.228000
      5 C05         2.0950    0.4190   -0.2780 cp        1 VGK      0.064000
      6 C06         0.8370    1.1350   -0.4330 cp        1 VGK     -0.235300
      7 C07         0.8050    2.4490   -0.9450 ca        1 VGK      0.443200
      8 N08        -0.3060    3.1730   -1.1170 nb        1 VGK     -0.747000
      9 C09        -1.5070    2.6080   -0.7530 ca        1 VGK      0.656200
     10 N10        -2.6600    3.3820   -0.8340 nh        1 VGK     -0.939500
     11 C11        -1.5790    1.2610   -0.2440 cp        1 VGK     -0.174300
     12 C12        -2.8590    0.6330    0.0730 cp        1 VGK     -0.096000
     13 C13        -3.7270    1.1880    1.0240 ca        1 VGK     -0.147000
     14 C14        -4.9440    0.5720    1.3040 ca        1 VGK     -0.113500
     15 C15        -5.3180   -0.6030    0.6450 ca        1 VGK     -0.111600
     16 C16        -6.6590   -1.2630    0.9420 c         1 VGK      0.906200
     17 O17        -7.4240   -0.6950    1.7710 o         1 VGK     -0.825800
     18 O18        -6.9310   -2.3390    0.3380 o         1 VGK     -0.825800
     19 C19        -4.4450   -1.1630   -0.2930 ca        1 VGK     -0.113500
     20 C20        -3.2250   -0.5560   -0.5760 ca        1 VGK     -0.147000
     21 C21        -0.3930    0.5500   -0.0920 ca        1 VGK     -0.040000
     22 C22         2.1530   -0.9580   -0.5280 ca        1 VGK     -0.228000
     23 C23         3.3620   -1.6480   -0.3790 ca        1 VGK      0.139600
     24 O24         3.5100   -3.0050   -0.5810 os        1 VGK     -0.318400
     25 C25         2.3520   -3.7010   -1.0300 c3        1 VGK      0.112200
     26 C26         4.5360   -0.9640    0.0010 ca        1 VGK      0.023100
     27 O27         5.7480   -1.6310    0.0060 os        1 VGK     -0.312900
     28 C28         6.2190   -1.9380    1.3190 c3        1 VGK      0.116700
     29 H011        6.6590    2.6660    1.1460 h1        1 VGK      0.044367
     30 H012        5.3160    2.9300   -0.0820 h1        1 VGK      0.044367
     31 H013        4.9030    2.6920    1.6910 h1        1 VGK      0.044367
     32 H04         3.1860    2.1820    0.3400 ha        1 VGK      0.145500
     33 H22         1.2420   -1.4860   -0.8440 ha        1 VGK      0.145500
     34 H07         1.7400    2.9520   -1.2550 h4        1 VGK      0.010100
     35 H21        -0.4290   -0.4770    0.3050 ha        1 VGK      0.146000
     36 H101       -2.6390    4.1780   -1.4270 hn        1 VGK      0.422300
     37 H102       -3.5160    2.8740   -0.8070 hn        1 VGK      0.422300
     38 H13        -3.4370    2.1030    1.5600 ha        1 VGK      0.114000
     39 H20        -2.5430   -1.0020   -1.3140 ha        1 VGK      0.114000
     40 H14        -5.6390    0.9950    2.0480 ha        1 VGK      0.155500
     41 H19        -4.7510   -2.0940   -0.7980 ha        1 VGK      0.155500
     42 H251        2.0000   -3.2950   -2.0080 h1        1 VGK      0.044367
     43 H252        2.7150   -4.7540   -1.1470 h1        1 VGK      0.044367
     44 H253        1.5380   -3.6470   -0.2660 h1        1 VGK      0.044367
     45 H281        7.1940   -2.4530    1.1370 h1        1 VGK      0.037033
     46 H282        6.3660   -0.9990    1.9050 h1        1 VGK      0.037033
     47 H283        5.5030   -2.6180    1.8390 h1        1 VGK      0.037033
@<TRIPOS>BOND
     1    1    2 1   
     2    1   29 1   
     3    1   30 1   
     4    1   31 1   
     5    2    3 1   
     6    3    4 ar  
     7    3   26 ar  
     8    4    5 ar  
     9    4   32 1   
    10    5    6 1   
    11    5   22 ar  
    12    6    7 ar  
    13    6   21 ar  
    14    7    8 ar  
    15    7   34 1   
    16    8    9 ar  
    17    9   10 1   
    18    9   11 ar  
    19   10   36 1   
    20   10   37 1   
    21   11   12 1   
    22   11   21 ar  
    23   12   13 ar  
    24   12   20 ar  
    25   13   14 ar  
    26   13   38 1   
    27   14   15 ar  
    28   14   40 1   
    29   15   16 1   
    30   15   19 ar  
    31   16   17 1   
    32   16   18 1   
    33   19   20 ar  
    34   19   41 1   
    35   20   39 1   
    36   21   35 1   
    37   22   23 ar  
    38   22   33 1   
    39   23   24 1   
    40   23   26 ar  
    41   24   25 1   
    42   25   42 1   
    43   25   43 1   
    44   25   44 1   
    45   26   27 1   
    46   27   28 1   
    47   28   45 1   
    48   28   46 1   
    49   28   47 1   
@<TRIPOS>SUBSTRUCTURE
     1 VGK         1 TEMP              0 ****  ****    0 ROOT
