@<TRIPOS>MOLECULE
VGK
   47    49     1     0     0
SMALL
bcc


@<TRIPOS>ATOM
      1 C01         0.2070   -1.1470    0.1030 c3        1 VGK      0.112700
      2 O02         1.5080   -0.5690    0.0760 os        1 VGK     -0.320400
      3 C03         2.0340   -0.2130    1.3030 ca        1 VGK      0.137100
      4 C04         1.2840   -0.1320    2.4810 ca        1 VGK     -0.225000
      5 C05         1.8930    0.2800    3.6740 cp        1 VGK      0.063000
      6 C06         1.1110    0.3760    4.8980 cp        1 VGK     -0.239300
      7 C07        -0.2320    0.8020    4.8750 ca        1 VGK      0.446200
      8 N08        -1.0190    0.9080    5.9510 nb        1 VGK     -0.751000
      9 C09        -0.4860    0.5700    7.1750 ca        1 VGK      0.667200
     10 N10        -1.3190    0.5490    8.2830 nh        1 VGK     -0.948500
     11 C11         0.8950    0.1740    7.3070 cp        1 VGK     -0.179300
     12 C12         1.4850   -0.0970    8.6160 cp        1 VGK     -0.088000
     13 C13         1.5210    0.9050    9.5980 ca        1 VGK     -0.152000
     14 C14         2.0950    0.6490   10.8390 ca        1 VGK     -0.109500
     15 C15         2.6410   -0.6060   11.1260 ca        1 VGK     -0.113600
     16 C16         3.2600   -0.8810   12.4910 c         1 VGK      0.906200
     17 O17         3.2230    0.0440   13.3490 o         1 VGK     -0.825800
     18 O18         3.7740   -2.0180   12.6850 o         1 VGK     -0.825800
     19 C19         2.6100   -1.6010   10.1450 ca        1 VGK     -0.109500
     20 C20         2.0400   -1.3510    8.8980 ca        1 VGK     -0.152000
     21 C21         1.6630    0.0660    6.1530 ca        1 VGK     -0.037000
     22 C22         3.2560    0.6090    3.6850 ca        1 VGK     -0.225000
     23 C23         4.0080    0.5160    2.5100 ca        1 VGK      0.137100
     24 O24         5.3460    0.8500    2.4230 os        1 VGK     -0.320400
     25 C25         6.0160    1.0720    3.6610 c3        1 VGK      0.112700
     26 C26         3.4110    0.0910    1.3040 ca        1 VGK      0.026100
     27 O27         4.1600   -0.1320    0.1630 os        1 VGK     -0.311900
     28 C28         4.5640    1.0700   -0.4950 c3        1 VGK      0.115700
     29 H011        0.0490   -1.4800   -0.9540 h1        1 VGK      0.044200
     30 H012        0.1690   -2.0180    0.8010 h1        1 VGK      0.044200
     31 H013       -0.5530   -0.3810    0.3910 h1        1 VGK      0.044200
     32 H04         0.2180   -0.3970    2.4830 ha        1 VGK      0.145500
     33 H22         3.7210    0.9430    4.6230 ha        1 VGK      0.145500
     34 H07        -0.7110    1.0930    3.9210 h4        1 VGK      0.009100
     35 H21         2.7100   -0.2670    6.2330 ha        1 VGK      0.146000
     36 H101       -0.8700    0.5020    9.1690 hn        1 VGK      0.428300
     37 H102       -2.1800    1.0360    8.2350 hn        1 VGK      0.428300
     38 H13         1.1120    1.9010    9.3750 ha        1 VGK      0.110500
     39 H20         2.0190   -2.1390    8.1320 ha        1 VGK      0.110500
     40 H14         2.1340    1.4250   11.6220 ha        1 VGK      0.155500
     41 H19         3.0490   -2.5840   10.3850 ha        1 VGK      0.155500
     42 H251        5.9030    0.1920    4.3390 h1        1 VGK      0.044200
     43 H252        7.0850    1.2030    3.3560 h1        1 VGK      0.044200
     44 H253        5.6300    1.9980    4.1520 h1        1 VGK      0.044200
     45 H281        3.6700    1.6410   -0.8430 h1        1 VGK      0.037033
     46 H282        5.1880    1.6950    0.1880 h1        1 VGK      0.037033
     47 H283        5.1650    0.7050   -1.3650 h1        1 VGK      0.037033
@<TRIPOS>BOND
     1    1    2 1   
     2    1   29 1   
     3    1   30 1   
     4    1   31 1   
     5    2    3 1   
     6    3    4 ar  
     7    3   26 ar  
     8    4    5 ar  
     9    4   32 1   
    10    5    6 1   
    11    5   22 ar  
    12    6    7 ar  
    13    6   21 ar  
    14    7    8 ar  
    15    7   34 1   
    16    8    9 ar  
    17    9   10 1   
    18    9   11 ar  
    19   10   36 1   
    20   10   37 1   
    21   11   12 1   
    22   11   21 ar  
    23   12   13 ar  
    24   12   20 ar  
    25   13   14 ar  
    26   13   38 1   
    27   14   15 ar  
    28   14   40 1   
    29   15   16 1   
    30   15   19 ar  
    31   16   17 1   
    32   16   18 1   
    33   19   20 ar  
    34   19   41 1   
    35   20   39 1   
    36   21   35 1   
    37   22   23 ar  
    38   22   33 1   
    39   23   24 1   
    40   23   26 ar  
    41   24   25 1   
    42   25   42 1   
    43   25   43 1   
    44   25   44 1   
    45   26   27 1   
    46   27   28 1   
    47   28   45 1   
    48   28   46 1   
    49   28   47 1   
@<TRIPOS>SUBSTRUCTURE
     1 VGK         1 TEMP              0 ****  ****    0 ROOT
