@<TRIPOS>MOLECULE
VGK
   48    50     1     0     0
SMALL
bcc


@<TRIPOS>ATOM
      1 C01        -0.1160    1.1270    0.1340 c3        1 VGK      0.108700
      2 O02         1.2960    0.9410    0.1040 os        1 VGK     -0.305400
      3 C03         1.8770    0.4850    1.2660 ca        1 VGK      0.139100
      4 C04         1.1930    0.3060    2.4740 ca        1 VGK     -0.205500
      5 C05         1.8890   -0.1330    3.6070 cp        1 VGK     -0.016000
      6 C06         1.1790   -0.3170    4.8670 cp        1 VGK     -0.076300
      7 C07        -0.1400   -0.8620    4.8750 ca        1 VGK      0.409200
      8 N08        -0.8520   -1.0700    5.9810 nb        1 VGK     -0.652000
      9 C09        -0.2630   -0.7290    7.1670 ca        1 VGK      0.390200
     10 N10        -1.0360   -0.9850    8.3990 n4        1 VGK     -0.810300
     11 C11         1.0330   -0.1670    7.2860 cp        1 VGK     -0.017300
     12 C12         1.5780    0.1620    8.5920 cp        1 VGK     -0.184000
     13 C13         0.8650    1.0160    9.4560 ca        1 VGK     -0.147500
     14 C14         1.3290    1.2420   10.7440 ca        1 VGK     -0.104000
     15 C15         2.5050    0.6250   11.1930 ca        1 VGK     -0.085600
     16 C16         2.9500    0.8010   12.6520 c         1 VGK      0.909200
     17 O17         4.0720    0.3300   12.9630 o         1 VGK     -0.791800
     18 O18         2.1370    1.3850   13.4150 o         1 VGK     -0.791800
     19 C19         3.2450   -0.1690   10.3120 ca        1 VGK     -0.104000
     20 C20         2.7920   -0.3980    9.0160 ca        1 VGK     -0.147500
     21 C21         1.7530    0.0240    6.0910 ca        1 VGK     -0.086000
     22 C22         3.2620   -0.3920    3.5420 ca        1 VGK     -0.205500
     23 C23         3.9440   -0.2300    2.3300 ca        1 VGK      0.139100
     24 O24         5.2940   -0.4510    2.1670 os        1 VGK     -0.305400
     25 C25         5.9970   -0.9570    3.2990 c3        1 VGK      0.108700
     26 C26         3.2580    0.1990    1.1720 ca        1 VGK      0.069100
     27 O27         3.8620    0.2360   -0.0670 os        1 VGK     -0.307900
     28 C28         4.8360    1.2740   -0.2150 c3        1 VGK      0.113700
     29 H011       -0.3920    1.9320    0.8580 h1        1 VGK      0.050033
     30 H012       -0.6380    0.1720    0.3870 h1        1 VGK      0.050033
     31 H013       -0.3530    1.4410   -0.9150 h1        1 VGK      0.050033
     32 H04         0.1190    0.5270    2.5420 ha        1 VGK      0.144500
     33 H22         3.7960   -0.7380    4.4390 ha        1 VGK      0.144500
     34 H07        -0.6330   -1.1530    3.9270 h4        1 VGK      0.051100
     35 H21         2.7650    0.4590    6.1450 ha        1 VGK      0.181000
     36 H101       -0.3770   -0.9990    9.1980 hn        1 VGK      0.469133
     37 H102       -1.7080   -0.2240    8.5380 hn        1 VGK      0.469133
     38 H13        -0.0270    1.5450    9.0910 ha        1 VGK      0.114500
     39 H20         3.3700   -1.0320    8.3280 ha        1 VGK      0.114500
     40 H14         0.7920    1.9030   11.4490 ha        1 VGK      0.179000
     41 H19         4.1900   -0.6090   10.6790 ha        1 VGK      0.179000
     42 H251        7.0400   -1.0890    2.9120 h1        1 VGK      0.050033
     43 H252        5.5700   -1.9360    3.6250 h1        1 VGK      0.050033
     44 H253        5.9770   -0.2170    4.1360 h1        1 VGK      0.050033
     45 H281        5.2040    1.1310   -1.2620 h1        1 VGK      0.047367
     46 H282        5.6630    1.1400    0.5220 h1        1 VGK      0.047367
     47 H283        4.3560    2.2740   -0.0950 h1        1 VGK      0.047367
     48 H103       -1.5360   -1.8760    8.3350 hn        1 VGK      0.469133
@<TRIPOS>BOND
     1    1    2 1   
     2    1   29 1   
     3    1   30 1   
     4    1   31 1   
     5    2    3 1   
     6    3    4 ar  
     7    3   26 ar  
     8    4    5 ar  
     9    4   32 1   
    10    5    6 1   
    11    5   22 ar  
    12    6    7 ar  
    13    6   21 ar  
    14    7    8 ar  
    15    7   34 1   
    16    8    9 ar  
    17    9   10 1   
    18    9   11 ar  
    19   10   36 1   
    20   10   37 1   
    21   10   48 1   
    22   11   12 1   
    23   11   21 ar  
    24   12   13 ar  
    25   12   20 ar  
    26   13   14 ar  
    27   13   38 1   
    28   14   15 ar  
    29   14   40 1   
    30   15   16 1   
    31   15   19 ar  
    32   16   17 1   
    33   16   18 1   
    34   19   20 ar  
    35   19   41 1   
    36   20   39 1   
    37   21   35 1   
    38   22   23 ar  
    39   22   33 1   
    40   23   24 1   
    41   23   26 ar  
    42   24   25 1   
    43   25   42 1   
    44   25   43 1   
    45   25   44 1   
    46   26   27 1   
    47   27   28 1   
    48   28   45 1   
    49   28   46 1   
    50   28   47 1   
@<TRIPOS>SUBSTRUCTURE
     1 VGK         1 TEMP              0 ****  ****    0 ROOT
