@<TRIPOS>MOLECULE
VGL
   12    12     1     0     0
SMALL
bcc


@<TRIPOS>ATOM
      1 C1         -0.1720   -0.0520    0.0520 ca        1 VGL      0.288500
      2 C3          1.8080   -1.1910    0.2820 ca        1 VGL      0.265900
      3 C4          2.5360   -0.0420   -0.0900 ca        1 VGL      0.221900
      4 C2         -1.7120    0.0690    0.0960 c         1 VGL      0.828100
      5 C6          0.5770    1.1120   -0.3250 ca        1 VGL      0.275900
      6 O1         -2.2150    0.4480    1.1830 o         1 VGL     -0.804300
      7 O2         -2.3250   -0.1780   -0.9720 o         1 VGL     -0.804300
      8 N2          0.4560   -1.2040    0.3550 nb        1 VGL     -0.635000
      9 N5          1.9170    1.1230   -0.3970 nb        1 VGL     -0.664000
     10 H6          0.0470    2.0470   -0.5700 h4        1 VGL      0.028100
     11 H3          2.3180   -2.1340    0.5300 h4        1 VGL      0.001100
     12 H4          3.6350   -0.0460   -0.1450 h4        1 VGL     -0.000900
@<TRIPOS>BOND
     1    1    4 1   
     2    1    5 ar  
     3    1    8 ar  
     4    2    3 ar  
     5    2    8 ar  
     6    2   11 1   
     7    3    9 ar  
     8    3   12 1   
     9    4    6 1   
    10    4    7 1   
    11    5    9 ar  
    12    5   10 1   
@<TRIPOS>SUBSTRUCTURE
     1 VGL         1 TEMP              0 ****  ****    0 ROOT
