@<TRIPOS>MOLECULE
VGL
   12    12     1     0     0
SMALL
bcc


@<TRIPOS>ATOM
      1 C1         -0.0620    0.0540    0.0240 ca        1 VGL      0.288500
      2 C3          0.0440    0.2830    2.3060 ca        1 VGL      0.265900
      3 C4          1.4040   -0.0910    2.3010 ca        1 VGL      0.221900
      4 C2         -0.7890    0.1010   -1.3380 c         1 VGL      0.828100
      5 C6          1.3210   -0.3250    0.0290 ca        1 VGL      0.275900
      6 O1         -0.7380    1.1870   -1.9660 o         1 VGL     -0.804300
      7 O2         -1.3300   -0.9670   -1.7220 o         1 VGL     -0.804300
      8 N2         -0.6950    0.3580    1.1740 nb        1 VGL     -0.635000
      9 N5          2.0520   -0.3990    1.1520 nb        1 VGL     -0.664000
     10 H6          1.8230   -0.5710   -0.9210 h4        1 VGL      0.028100
     11 H3         -0.4750    0.5320    3.2440 h4        1 VGL      0.001100
     12 H4          1.9920   -0.1480    3.2290 h4        1 VGL     -0.000900
@<TRIPOS>BOND
     1    1    4 1   
     2    1    5 ar  
     3    1    8 ar  
     4    2    3 ar  
     5    2    8 ar  
     6    2   11 1   
     7    3    9 ar  
     8    3   12 1   
     9    4    6 1   
    10    4    7 1   
    11    5    9 ar  
    12    5   10 1   
@<TRIPOS>SUBSTRUCTURE
     1 VGL         1 TEMP              0 ****  ****    0 ROOT
