@<TRIPOS>MOLECULE
VGM
   42    44     1     0     0
SMALL
bcc


@<TRIPOS>ATOM
      1 C01         6.1250    1.1600    1.4390 c3        1 VGM      0.120700
      2 O02         6.1060   -0.0970    0.7730 os        1 VGM     -0.348900
      3 C03         4.8880   -0.4790    0.2330 ca        1 VGM      0.045100
      4 C04         3.7620    0.3380    0.1450 ca        1 VGM     -0.155000
      5 C05         2.5840   -0.1580   -0.4360 cp        1 VGM     -0.026000
      6 C06         1.4070    0.6940   -0.5290 cp        1 VGM     -0.205300
      7 C07         1.5220    2.0670   -0.8480 ca        1 VGM      0.455200
      8 N08         0.4940    2.9110   -0.9540 nb        1 VGM     -0.727000
      9 C09        -0.7730    2.4250   -0.7180 ca        1 VGM      0.661200
     10 N10        -1.8420    3.3180   -0.7400 nh        1 VGM     -0.937500
     11 C11        -0.9910    1.0410   -0.3980 cp        1 VGM     -0.229300
     12 C12        -2.3280    0.5020   -0.1680 cp        1 VGM     -0.012000
     13 C13        -3.1720    1.0470    0.8090 ca        1 VGM     -0.133000
     14 C14        -4.4410    0.5120    1.0200 ca        1 VGM     -0.092500
     15 C15        -4.8780   -0.5830    0.2660 ca        1 VGM     -0.140600
     16 C16        -6.2490   -1.1090    0.5180 c         1 VGM      0.669700
     17 N17        -6.4520   -2.4650    0.4270 n         1 VGM     -0.673000
     18 O18        -7.2000   -0.3560    0.8120 o         1 VGM     -0.608100
     19 C19        -4.0400   -1.1330   -0.7090 ca        1 VGM     -0.092500
     20 C20        -2.7730   -0.5940   -0.9230 ca        1 VGM     -0.133000
     21 C21         0.1180    0.1950   -0.3140 ca        1 VGM     -0.033000
     22 C22         2.5530   -1.4700   -0.9240 ca        1 VGM     -0.119000
     23 C23         3.6730   -2.2930   -0.8410 ca        1 VGM     -0.136000
     24 C24         4.8500   -1.8050   -0.2610 ca        1 VGM      0.113100
     25 O25         5.9270   -2.6550   -0.2060 oh        1 VGM     -0.494100
     26 H011        7.1610    1.2150    1.8600 h1        1 VGM      0.046700
     27 H012        5.9520    1.9890    0.7100 h1        1 VGM      0.046700
     28 H013        5.3630    1.1890    2.2550 h1        1 VGM      0.046700
     29 H04         3.7850    1.3650    0.5360 ha        1 VGM      0.142000
     30 H22         1.6330   -1.8580   -1.3870 ha        1 VGM      0.136000
     31 H07         2.5150    2.5120   -1.0470 h4        1 VGM      0.024100
     32 H21        -0.0300   -0.8690   -0.0670 ha        1 VGM      0.144000
     33 H101       -1.6860    4.2030   -1.1650 hn        1 VGM      0.420300
     34 H102       -2.7340    2.9100   -0.9050 hn        1 VGM      0.420300
     35 H13        -2.8290    1.8950    1.4210 ha        1 VGM      0.146500
     36 H20        -2.1160   -1.0270   -1.6920 ha        1 VGM      0.146500
     37 H14        -5.1140    0.9490    1.7760 ha        1 VGM      0.147000
     38 H19        -4.3760   -1.9800   -1.3270 ha        1 VGM      0.147000
     39 H171       -5.7010   -3.0850    0.2730 hn        1 VGM      0.313000
     40 H172       -7.3480   -2.8350    0.6250 hn        1 VGM      0.313000
     41 H23         3.6520   -3.3220   -1.2260 ha        1 VGM      0.153000
     42 H25         6.6560   -2.1910    0.2340 ho        1 VGM      0.437000
@<TRIPOS>BOND
     1    1    2 1   
     2    1   26 1   
     3    1   27 1   
     4    1   28 1   
     5    2    3 1   
     6    3    4 ar  
     7    3   24 ar  
     8    4    5 ar  
     9    4   29 1   
    10    5    6 1   
    11    5   22 ar  
    12    6    7 ar  
    13    6   21 ar  
    14    7    8 ar  
    15    7   31 1   
    16    8    9 ar  
    17    9   10 1   
    18    9   11 ar  
    19   10   33 1   
    20   10   34 1   
    21   11   12 1   
    22   11   21 ar  
    23   12   13 ar  
    24   12   20 ar  
    25   13   14 ar  
    26   13   35 1   
    27   14   15 ar  
    28   14   37 1   
    29   15   16 1   
    30   15   19 ar  
    31   16   17 1   
    32   16   18 2   
    33   17   39 1   
    34   17   40 1   
    35   19   20 ar  
    36   19   38 1   
    37   20   36 1   
    38   21   32 1   
    39   22   23 ar  
    40   22   30 1   
    41   23   24 ar  
    42   23   41 1   
    43   24   25 1   
    44   25   42 1   
@<TRIPOS>SUBSTRUCTURE
     1 VGM         1 TEMP              0 ****  ****    0 ROOT
