@<TRIPOS>MOLECULE
VGM
   43    45     1     0     0
SMALL
bcc


@<TRIPOS>ATOM
      1 C01         0.2870   -1.3750    0.1670 c3        1 VGM      0.107700
      2 O02         1.6330   -0.9100    0.1800 os        1 VGM     -0.295900
      3 C03         2.0640   -0.3300    1.3530 ca        1 VGM      0.111100
      4 C04         1.3150   -0.2380    2.5230 ca        1 VGM     -0.169000
      5 C05         1.8650    0.3650    3.6680 cp        1 VGM     -0.049000
      6 C06         1.0740    0.4560    4.8880 cp        1 VGM     -0.178300
      7 C07        -0.3070    0.7910    4.8380 ca        1 VGM      0.484200
      8 N08        -1.1010    0.8750    5.9010 nb        1 VGM     -0.714000
      9 C09        -0.5550    0.6520    7.1510 ca        1 VGM      0.684200
     10 N10        -1.3850    0.7860    8.2590 nh        1 VGM     -0.937500
     11 C11         0.8350    0.3340    7.3040 cp        1 VGM     -0.288300
     12 C12         1.4610    0.1310    8.5970 cp        1 VGM      0.099000
     13 C13         1.2670    1.0240    9.6650 ca        1 VGM     -0.142000
     14 C14         1.9000    0.8190   10.8840 ca        1 VGM     -0.051500
     15 C15         2.7530   -0.2900   11.0680 ca        1 VGM     -0.235600
     16 C16         3.3680   -0.4240   12.3730 c         1 VGM      0.579700
     17 N17         4.3810   -1.5530   12.5470 n4        1 VGM     -0.764400
     18 O18         3.2150    0.2380   13.3900 o         1 VGM     -0.428100
     19 C19         2.9580   -1.1830    9.9990 ca        1 VGM     -0.051500
     20 C20         2.3250   -0.9720    8.7870 ca        1 VGM     -0.142000
     21 C21         1.6250    0.2260    6.1440 ca        1 VGM     -0.030000
     22 C22         3.1640    0.8760    3.6270 ca        1 VGM     -0.113000
     23 C23         3.9230    0.7930    2.4590 ca        1 VGM     -0.191000
     24 C24         3.3860    0.1940    1.3190 ca        1 VGM      0.121100
     25 O25         4.0700    0.0690    0.1370 oh        1 VGM     -0.464100
     26 H011        0.1470   -2.1970    0.9100 h1        1 VGM      0.048367
     27 H012        0.1620   -1.7620   -0.8770 h1        1 VGM      0.048367
     28 H013       -0.4250   -0.5380    0.3660 h1        1 VGM      0.048367
     29 H04         0.2930   -0.6430    2.5630 ha        1 VGM      0.143000
     30 H22         3.5940    1.3620    4.5150 ha        1 VGM      0.131000
     31 H07        -0.7940    1.0000    3.8640 h4        1 VGM      0.044100
     32 H21         2.6930   -0.0290    6.2370 ha        1 VGM      0.142000
     33 H101       -2.3620    0.8780    8.0900 hn        1 VGM      0.424800
     34 H102       -1.1330    0.2500    9.0550 hn        1 VGM      0.424800
     35 H13         0.6310    1.9170    9.5310 ha        1 VGM      0.177000
     36 H20         2.4860   -1.6750    7.9520 ha        1 VGM      0.177000
     37 H14         1.7440    1.5300   11.7150 ha        1 VGM      0.146000
     38 H19         3.6090   -2.0640   10.0970 ha        1 VGM      0.146000
     39 H171        4.7730   -1.5200   13.4970 hn        1 VGM      0.465467
     40 H172        5.1360   -1.4490   11.8650 hn        1 VGM      0.465467
     41 H23         4.9420    1.2050    2.4330 ha        1 VGM      0.142000
     42 H25         4.9310    0.5020    0.2440 ho        1 VGM      0.421000
     43 H173        3.9240   -2.4560   12.4030 hn        1 VGM      0.465467
@<TRIPOS>BOND
     1    1    2 1   
     2    1   26 1   
     3    1   27 1   
     4    1   28 1   
     5    2    3 1   
     6    3    4 ar  
     7    3   24 ar  
     8    4    5 ar  
     9    4   29 1   
    10    5    6 1   
    11    5   22 ar  
    12    6    7 ar  
    13    6   21 ar  
    14    7    8 ar  
    15    7   31 1   
    16    8    9 ar  
    17    9   10 1   
    18    9   11 ar  
    19   10   33 1   
    20   10   34 1   
    21   11   12 1   
    22   11   21 ar  
    23   12   13 ar  
    24   12   20 ar  
    25   13   14 ar  
    26   13   35 1   
    27   14   15 ar  
    28   14   37 1   
    29   15   16 1   
    30   15   19 ar  
    31   16   17 1   
    32   16   18 2   
    33   17   39 1   
    34   17   40 1   
    35   17   43 1   
    36   19   20 ar  
    37   19   38 1   
    38   20   36 1   
    39   21   32 1   
    40   22   23 ar  
    41   22   30 1   
    42   23   24 ar  
    43   23   41 1   
    44   24   25 1   
    45   25   42 1   
@<TRIPOS>SUBSTRUCTURE
     1 VGM         1 TEMP              0 ****  ****    0 ROOT
