@<TRIPOS>MOLECULE
VGM
   43    45     1     0     0
SMALL
bcc


@<TRIPOS>ATOM
      1 C01         0.3850   -1.2090    0.0780 c3        1 VGM      0.118700
      2 O02         1.7640   -0.8770    0.1920 os        1 VGM     -0.342900
      3 C03         2.1550   -0.2970    1.3860 ca        1 VGM      0.049100
      4 C04         1.3740   -0.2310    2.5370 ca        1 VGM     -0.149000
      5 C05         1.8950    0.3600    3.6990 cp        1 VGM     -0.055000
      6 C06         1.0860    0.4250    4.9080 cp        1 VGM     -0.178300
      7 C07        -0.3030    0.7210    4.8440 ca        1 VGM      0.483200
      8 N08        -1.1110    0.7780    5.8980 nb        1 VGM     -0.714000
      9 C09        -0.5750    0.5670    7.1530 ca        1 VGM      0.684200
     10 N10        -1.4190    0.6720    8.2520 nv        1 VGM     -0.938500
     11 C11         0.8230    0.2890    7.3210 cp        1 VGM     -0.288300
     12 C12         1.4420    0.1050    8.6200 cp        1 VGM      0.099000
     13 C13         1.2100    0.9900    9.6870 ca        1 VGM     -0.142000
     14 C14         1.8420    0.8070   10.9110 ca        1 VGM     -0.052000
     15 C15         2.7320   -0.2700   11.0990 ca        1 VGM     -0.235600
     16 C16         3.3460   -0.3820   12.4070 c         1 VGM      0.580700
     17 N17         4.4310   -1.4430   12.5730 nz        1 VGM     -0.764400
     18 O18         3.1440    0.2570   13.4310 o         1 VGM     -0.427100
     19 C19         2.9740   -1.1580   10.0330 ca        1 VGM     -0.052000
     20 C20         2.3400   -0.9690    8.8170 ca        1 VGM     -0.142000
     21 C21         1.6290    0.2060    6.1700 ca        1 VGM     -0.030000
     22 C22         3.1940    0.8840    3.6900 ca        1 VGM     -0.114000
     23 C23         3.9810    0.8250    2.5430 ca        1 VGM     -0.139000
     24 C24         3.4700    0.2340    1.3810 ca        1 VGM      0.130100
     25 O25         4.2890    0.1900    0.2840 oh        1 VGM     -0.485100
     26 H011       -0.2560   -0.3140    0.2680 h1        1 VGM      0.050033
     27 H012        0.1260   -2.0360    0.7830 h1        1 VGM      0.050033
     28 H013        0.2880   -1.5500   -0.9840 h1        1 VGM      0.050033
     29 H04         0.3560   -0.6470    2.5440 ha        1 VGM      0.142000
     30 H22         3.5980    1.3630    4.5940 ha        1 VGM      0.132000
     31 H07        -0.7850    0.9220    3.8660 h4        1 VGM      0.042100
     32 H21         2.7020   -0.0200    6.2750 ha        1 VGM      0.143000
     33 H101       -1.1610    0.1410    9.0500 hn        1 VGM      0.425300
     34 H102       -2.3980    0.7350    8.0730 hn        1 VGM      0.425300
     35 H13         0.5450    1.8600    9.5490 ha        1 VGM      0.177000
     36 H20         2.5290   -1.6690    7.9840 ha        1 VGM      0.177000
     37 H14         1.6550    1.5120   11.7400 ha        1 VGM      0.146000
     38 H19         3.6520   -2.0180   10.1370 ha        1 VGM      0.146000
     39 H171        4.8260   -1.3870   13.5200 hn        1 VGM      0.465467
     40 H172        4.0310   -2.3730   12.4300 hn        1 VGM      0.465467
     41 H23         4.9990    1.2410    2.5290 ha        1 VGM      0.160000
     42 H25         3.7920   -0.1960   -0.4550 ho        1 VGM      0.445000
     43 H173        5.1730   -1.2900   11.8860 hn        1 VGM      0.465467
@<TRIPOS>BOND
     1    1    2 1   
     2    1   26 1   
     3    1   27 1   
     4    1   28 1   
     5    2    3 1   
     6    3    4 ar  
     7    3   24 ar  
     8    4    5 ar  
     9    4   29 1   
    10    5    6 1   
    11    5   22 ar  
    12    6    7 ar  
    13    6   21 ar  
    14    7    8 ar  
    15    7   31 1   
    16    8    9 ar  
    17    9   10 1   
    18    9   11 ar  
    19   10   33 1   
    20   10   34 1   
    21   11   12 1   
    22   11   21 ar  
    23   12   13 ar  
    24   12   20 ar  
    25   13   14 ar  
    26   13   35 1   
    27   14   15 ar  
    28   14   37 1   
    29   15   16 1   
    30   15   19 ar  
    31   16   17 1   
    32   16   18 2   
    33   17   39 1   
    34   17   40 1   
    35   17   43 1   
    36   19   20 ar  
    37   19   38 1   
    38   20   36 1   
    39   21   32 1   
    40   22   23 ar  
    41   22   30 1   
    42   23   24 ar  
    43   23   41 1   
    44   24   25 1   
    45   25   42 1   
@<TRIPOS>SUBSTRUCTURE
     1 VGM         1 TEMP              0 ****  ****    0 ROOT
