@<TRIPOS>MOLECULE
VGM
   44    46     1     0     0
SMALL
bcc


@<TRIPOS>ATOM
      1 C01         0.3580    1.2650    0.0490 c3        1 VGM      0.103700
      2 O02         1.6750    0.7230    0.1120 os        1 VGM     -0.282900
      3 C03         2.0680    0.1990    1.3180 ca        1 VGM      0.117100
      4 C04         1.3050    0.1800    2.4780 ca        1 VGM     -0.154000
      5 C05         1.8290   -0.3760    3.6670 cp        1 VGM     -0.122000
      6 C06         1.0250   -0.3970    4.8690 cp        1 VGM     -0.011300
      7 C07        -0.3960   -0.5230    4.7950 ca        1 VGM      0.434200
      8 N08        -1.1940   -0.5520    5.8610 nb        1 VGM     -0.627000
      9 C09        -0.6140   -0.4500    7.0930 ca        1 VGM      0.409200
     10 N10        -1.5450   -0.5170    8.2380 n4        1 VGM     -0.811300
     11 C11         0.7800   -0.3130    7.2960 cp        1 VGM     -0.117300
     12 C12         1.4020   -0.1700    8.6140 cp        1 VGM     -0.013000
     13 C13         1.1450    0.9560    9.4090 ca        1 VGM     -0.123500
     14 C14         1.7940    1.1180   10.6320 ca        1 VGM     -0.054500
     15 C15         2.7160    0.1520   11.0710 ca        1 VGM     -0.185600
     16 C16         3.3380    0.3830   12.3780 c         1 VGM      0.564700
     17 N17         4.7260   -0.1880   12.5950 n4        1 VGM     -0.758400
     18 O18         2.8970    1.0100   13.3280 o         1 VGM     -0.375100
     19 C19         2.9710   -0.9790   10.2830 ca        1 VGM     -0.054500
     20 C20         2.3170   -1.1360    9.0630 ca        1 VGM     -0.123500
     21 C21         1.5910   -0.2970    6.1490 ca        1 VGM     -0.097000
     22 C22         3.1230   -0.9100    3.6670 ca        1 VGM     -0.072000
     23 C23         3.8940   -0.9090    2.5070 ca        1 VGM     -0.207000
     24 C24         3.3850   -0.3590    1.3270 ca        1 VGM      0.177100
     25 O25         4.0700   -0.3120    0.1520 oh        1 VGM     -0.439100
     26 H011        0.2790    1.6060   -1.0160 h1        1 VGM      0.056700
     27 H012        0.2540    2.1290    0.7490 h1        1 VGM      0.056700
     28 H013       -0.4040    0.4790    0.2700 h1        1 VGM      0.056700
     29 H04         0.2960    0.6200    2.4770 ha        1 VGM      0.146000
     30 H22         3.5390   -1.3610    4.5810 ha        1 VGM      0.128000
     31 H07        -0.9110   -0.6190    3.8150 h4        1 VGM      0.078100
     32 H21         2.6830   -0.1840    6.2600 ha        1 VGM      0.175000
     33 H101       -2.3910    0.0370    8.0400 hn        1 VGM      0.471133
     34 H102       -1.0820   -0.1530    9.0760 hn        1 VGM      0.471133
     35 H13         0.4650    1.7490    9.0540 ha        1 VGM      0.175500
     36 H20         2.5270   -2.0240    8.4410 ha        1 VGM      0.175500
     37 H14         1.5890    2.0100   11.2530 ha        1 VGM      0.168500
     38 H19         3.6690   -1.7670   10.6080 ha        1 VGM      0.168500
     39 H171        5.3500    0.1020   11.8350 hn        1 VGM      0.477133
     40 H172        4.6880   -1.2120   12.6220 hn        1 VGM      0.477133
     41 H23         4.9050   -1.3450    2.5160 ha        1 VGM      0.158000
     42 H25         4.9390   -0.7300    0.2810 ho        1 VGM      0.439000
     43 H103       -1.8250   -1.4950    8.3900 hn        1 VGM      0.471133
     44 H173        5.1050    0.1520   13.4920 hn        1 VGM      0.477133
@<TRIPOS>BOND
     1    1    2 1   
     2    1   26 1   
     3    1   27 1   
     4    1   28 1   
     5    2    3 1   
     6    3    4 ar  
     7    3   24 ar  
     8    4    5 ar  
     9    4   29 1   
    10    5    6 1   
    11    5   22 ar  
    12    6    7 ar  
    13    6   21 ar  
    14    7    8 ar  
    15    7   31 1   
    16    8    9 ar  
    17    9   10 1   
    18    9   11 ar  
    19   10   33 1   
    20   10   34 1   
    21   10   43 1   
    22   11   12 1   
    23   11   21 ar  
    24   12   13 ar  
    25   12   20 ar  
    26   13   14 ar  
    27   13   35 1   
    28   14   15 ar  
    29   14   37 1   
    30   15   16 1   
    31   15   19 ar  
    32   16   17 1   
    33   16   18 2   
    34   17   39 1   
    35   17   40 1   
    36   17   44 1   
    37   19   20 ar  
    38   19   38 1   
    39   20   36 1   
    40   21   32 1   
    41   22   23 ar  
    42   22   30 1   
    43   23   24 ar  
    44   23   41 1   
    45   24   25 1   
    46   25   42 1   
@<TRIPOS>SUBSTRUCTURE
     1 VGM         1 TEMP              0 ****  ****    0 ROOT
