@<TRIPOS>MOLECULE
VGN
   41    43     1     0     0
SMALL
bcc


@<TRIPOS>ATOM
      1 CB          2.7520   -1.5900    0.0630 ca        1 VGN     -0.197000
      2 CG          1.3650   -1.5320    0.0640 ca        1 VGN     -0.104000
      3 C16        -3.5810   -0.1280   -0.0040 cp        1 VGN     -0.076000
      4 O1          4.7750    2.2570   -0.5710 o         1 VGN     -0.829800
      5 C22        -7.1930   -1.1670    0.2200 ca        1 VGN     -0.134000
      6 C9         -1.5260   -1.2600   -0.6230 ca        1 VGN     -0.135000
      7 C19        -5.8010   -1.2280    0.2090 ca        1 VGN     -0.125500
      8 C17        -5.0400   -0.0670    0.0080 cp        1 VGN     -0.011000
      9 C8         -1.4290    0.8300    0.5800 ca        1 VGN     -0.135000
     10 C12        -2.8180    0.8890    0.5890 ca        1 VGN     -0.117500
     11 C18        -5.7030    1.1550   -0.1830 ca        1 VGN     -0.125500
     12 C6          3.5270   -0.4110   -0.0420 ca        1 VGN      0.104600
     13 C3          0.6970   -0.3060   -0.0340 cp        1 VGN     -0.121000
     14 C4          2.8560    0.8410   -0.1360 ca        1 VGN     -0.176600
     15 O2          2.8640    3.2200    0.0250 o         1 VGN     -0.829800
     16 C13        -2.9160   -1.2030   -0.6100 ca        1 VGN     -0.117500
     17 C5          3.5530    2.1940   -0.2330 c         1 VGN      0.914200
     18 C2          1.4630    0.8640   -0.1300 ca        1 VGN     -0.064000
     19 C21        -7.8430    0.0520    0.0300 ca        1 VGN     -0.143000
     20 C23        -0.7600   -0.2460   -0.0260 cp        1 VGN      0.021000
     21 C20        -7.0950    1.2110   -0.1720 ca        1 VGN     -0.134000
     22 N10         4.9270   -0.4390   -0.0600 n         1 VGN     -0.458100
     23 C1          7.2480   -1.2120    0.0390 c3        1 VGN     -0.174100
     24 C14         5.7630   -1.5180    0.1150 c         1 VGN      0.657100
     25 O15         5.3860   -2.6920    0.3260 o         1 VGN     -0.647100
     26 HB          3.2430   -2.5720    0.1490 ha        1 VGN      0.157000
     27 HG          0.7910   -2.4660    0.1540 ha        1 VGN      0.113000
     28 H12        -3.3240    1.7370    1.0740 ha        1 VGN      0.123000
     29 H13        -3.4990   -2.0030   -1.0900 ha        1 VGN      0.123000
     30 H21        -8.9410    0.0990    0.0380 ha        1 VGN      0.121000
     31 H9         -1.0200   -2.1020   -1.1170 ha        1 VGN      0.142000
     32 H18        -5.1160    2.0710   -0.3480 ha        1 VGN      0.136000
     33 H8         -0.8420    1.6330    1.0550 ha        1 VGN      0.142000
     34 H20        -7.6040    2.1740   -0.3240 ha        1 VGN      0.123500
     35 H10         5.3590    0.4640   -0.2280 hn        1 VGN      0.380500
     36 H2          0.9720    1.8510   -0.2020 ha        1 VGN      0.160000
     37 H11C        7.5350   -0.4810    0.8330 hc        1 VGN      0.058367
     38 H12C        7.8160   -2.1600    0.1900 hc        1 VGN      0.058367
     39 H13C        7.5070   -0.7820   -0.9580 hc        1 VGN      0.058367
     40 H22        -7.7790   -2.0830    0.3810 ha        1 VGN      0.123500
     41 H19        -5.2910   -2.1900    0.3660 ha        1 VGN      0.136000
@<TRIPOS>BOND
     1    1    2 ar  
     2    1   12 ar  
     3    1   26 1   
     4    2   13 ar  
     5    2   27 1   
     6    3    8 1   
     7    3   10 ar  
     8    3   16 ar  
     9    4   17 1   
    10    5    7 ar  
    11    5   19 ar  
    12    5   40 1   
    13    6   16 ar  
    14    6   20 ar  
    15    6   31 1   
    16    7    8 ar  
    17    7   41 1   
    18    8   11 ar  
    19    9   10 ar  
    20    9   20 ar  
    21    9   33 1   
    22   10   28 1   
    23   11   21 ar  
    24   11   32 1   
    25   12   14 ar  
    26   12   22 1   
    27   13   18 ar  
    28   13   20 1   
    29   14   17 1   
    30   14   18 ar  
    31   15   17 1   
    32   16   29 1   
    33   18   36 1   
    34   19   21 ar  
    35   19   30 1   
    36   21   34 1   
    37   22   24 1   
    38   22   35 1   
    39   23   24 1   
    40   23   37 1   
    41   23   38 1   
    42   23   39 1   
    43   24   25 2   
@<TRIPOS>SUBSTRUCTURE
     1 VGN         1 TEMP              0 ****  ****    0 ROOT
