@<TRIPOS>MOLECULE
VGN
   42    44     1     0     0
SMALL
bcc


@<TRIPOS>ATOM
      1 CB          0.0010    0.4270   -0.2090 ca        1 VGN     -0.166000
      2 CG          1.3840    0.3740   -0.3150 ca        1 VGN     -0.068000
      3 C16         6.4450   -0.1470    0.3990 cp        1 VGN     -0.030000
      4 O1         -1.2190    0.5230    4.0370 oh        1 VGN     -0.596100
      5 C22         9.9010    0.0140   -1.0830 ca        1 VGN     -0.130000
      6 C9          4.2300   -0.5600   -0.4990 ca        1 VGN     -0.118500
      7 C19         8.5140    0.0770   -0.9600 ca        1 VGN     -0.117000
      8 C17         7.8990   -0.2130    0.2670 cp        1 VGN     -0.041000
      9 C8          4.4740    0.4560    1.6790 ca        1 VGN     -0.118500
     10 C12         5.8580    0.3930    1.5530 ca        1 VGN     -0.118000
     11 C18         8.6960   -0.5670    1.3650 ca        1 VGN     -0.117000
     12 C6         -0.6370    0.1620    1.0240 ca        1 VGN      0.111600
     13 C3          2.1910    0.0470    0.7850 cp        1 VGN     -0.068000
     14 C4          0.1840   -0.1430    2.1440 ca        1 VGN     -0.238600
     15 O2         -0.2620   -1.4250    4.1640 o         1 VGN     -0.472000
     16 C13         5.6140   -0.6220   -0.6250 ca        1 VGN     -0.118000
     17 C5         -0.4000   -0.4200    3.4690 c         1 VGN      0.636700
     18 C2          1.5720   -0.2170    2.0100 ca        1 VGN     -0.044000
     19 C21        10.6870   -0.3400    0.0130 ca        1 VGN     -0.125000
     20 C23         3.6430   -0.0190    0.6540 cp        1 VGN     -0.037000
     21 C20        10.0820   -0.6310    1.2360 ca        1 VGN     -0.130000
     22 N10        -2.0280    0.1730    1.1820 n         1 VGN     -0.487100
     23 C1         -4.4270    0.3780    0.6700 c3        1 VGN     -0.179100
     24 C14        -2.9880    0.5540    0.2430 c         1 VGN      0.669100
     25 O15        -2.6960    1.0220   -0.8690 o         1 VGN     -0.577100
     26 HB         -0.5940    0.6810   -1.1030 ha        1 VGN      0.181000
     27 HG          1.8560    0.5940   -1.2870 ha        1 VGN      0.146000
     28 H12         6.4990    0.7770    2.3610 ha        1 VGN      0.138000
     29 H13         6.0610   -1.0580   -1.5320 ha        1 VGN      0.138000
     30 H21        11.7810   -0.3900   -0.0860 ha        1 VGN      0.132000
     31 H9          3.5900   -0.9480   -1.3070 ha        1 VGN      0.135500
     32 H18         8.2230   -0.8030    2.3290 ha        1 VGN      0.135000
     33 H8          4.0290    0.8910    2.5870 ha        1 VGN      0.135500
     34 H20        10.6990   -0.9130    2.1020 ha        1 VGN      0.133000
     35 H10        -1.1540    1.3550    3.5460 ho        1 VGN      0.433000
     36 H2          2.1790   -0.4960    2.8880 ha        1 VGN      0.154000
     37 H11C       -4.6410    0.9670    1.5940 hc        1 VGN      0.074033
     38 H12C       -4.6480   -0.7000    0.8630 hc        1 VGN      0.074033
     39 H13C       -5.0880    0.7420   -0.1540 hc        1 VGN      0.074033
     40 H19         7.8980    0.3620   -1.8250 ha        1 VGN      0.135000
     41 H102       -2.3730   -0.1940    2.0440 hn        1 VGN      0.326500
     42 H22        10.3750    0.2460   -2.0480 ha        1 VGN      0.133000
@<TRIPOS>BOND
     1    1    2 ar  
     2    1   12 ar  
     3    1   26 1   
     4    2   13 ar  
     5    2   27 1   
     6    3    8 1   
     7    3   10 ar  
     8    3   16 ar  
     9    4   17 1   
    10    4   35 1   
    11    5    7 ar  
    12    5   19 ar  
    13    5   42 1   
    14    6   16 ar  
    15    6   20 ar  
    16    6   31 1   
    17    7    8 ar  
    18    7   40 1   
    19    8   11 ar  
    20    9   10 ar  
    21    9   20 ar  
    22    9   33 1   
    23   10   28 1   
    24   11   21 ar  
    25   11   32 1   
    26   12   14 ar  
    27   12   22 1   
    28   13   18 ar  
    29   13   20 1   
    30   14   17 1   
    31   14   18 ar  
    32   15   17 2   
    33   16   29 1   
    34   18   36 1   
    35   19   21 ar  
    36   19   30 1   
    37   21   34 1   
    38   22   24 1   
    39   22   41 1   
    40   23   24 1   
    41   23   37 1   
    42   23   38 1   
    43   23   39 1   
    44   24   25 2   
@<TRIPOS>SUBSTRUCTURE
     1 VGN         1 TEMP              0 ****  ****    0 ROOT
