@<TRIPOS>MOLECULE
VGN
   41    43     1     0     0
SMALL
bcc


@<TRIPOS>ATOM
      1 CB          0.0190    0.4520   -0.1350 ca        1 VGN     -0.197000
      2 CG          1.3970    0.3700   -0.2750 ca        1 VGN     -0.104000
      3 C16         6.4680   -0.1600    0.3920 cp        1 VGN     -0.076000
      4 O1         -1.5140   -0.6100    3.8420 o         1 VGN     -0.829800
      5 C22         9.9160    0.0150   -1.1090 ca        1 VGN     -0.134000
      6 C9          4.2420   -0.5030   -0.5090 ca        1 VGN     -0.135000
      7 C19         8.5320    0.0870   -0.9740 ca        1 VGN     -0.125500
      8 C17         7.9190   -0.2350    0.2470 cp        1 VGN     -0.011000
      9 C8          4.5110    0.3970    1.7140 ca        1 VGN     -0.135000
     10 C12         5.8930    0.3230    1.5760 ca        1 VGN     -0.117500
     11 C18         8.7240   -0.6320    1.3260 ca        1 VGN     -0.125500
     12 C6         -0.5980    0.2230    1.1170 ca        1 VGN      0.104600
     13 C3          2.2140    0.0640    0.8200 cp        1 VGN     -0.121000
     14 C4          0.2250   -0.0830    2.2380 ca        1 VGN     -0.176600
     15 O2          0.5450   -0.2600    4.5940 o         1 VGN     -0.829800
     16 C13         5.6240   -0.5720   -0.6490 ca        1 VGN     -0.117500
     17 C5         -0.2900   -0.3330    3.6510 c         1 VGN      0.914200
     18 C2          1.6060   -0.1550    2.0630 ca        1 VGN     -0.064000
     19 C21        10.7080   -0.3800   -0.0320 ca        1 VGN     -0.143000
     20 C23         3.6630   -0.0150    0.6730 cp        1 VGN      0.021000
     21 C20        10.1080   -0.7030    1.1850 ca        1 VGN     -0.134000
     22 N10        -1.9870    0.2840    1.2860 ns        1 VGN     -0.458100
     23 C1         -4.3760    0.6170    0.8710 c3        1 VGN     -0.174100
     24 C14        -2.9440    0.6550    0.3700 c         1 VGN      0.657100
     25 O15        -2.7120    1.0100   -0.8070 o         1 VGN     -0.647100
     26 HB         -0.5910    0.7030   -1.0170 ha        1 VGN      0.157000
     27 HG          1.8470    0.5610   -1.2610 ha        1 VGN      0.113000
     28 H12         6.5410    0.6550    2.4010 ha        1 VGN      0.123000
     29 H13         6.0590   -0.9650   -1.5800 ha        1 VGN      0.123000
     30 H21        11.8000   -0.4370   -0.1410 ha        1 VGN      0.121000
     31 H9          3.5930   -0.8440   -1.3290 ha        1 VGN      0.142000
     32 H18         8.2530   -0.8940    2.2860 ha        1 VGN      0.136000
     33 H8          4.0720    0.7840    2.6480 ha        1 VGN      0.142000
     34 H20        10.7280   -1.0170    2.0370 ha        1 VGN      0.123500
     35 H10        -2.3060    0.0140    2.2110 hn        1 VGN      0.380500
     36 H2          2.2170   -0.3930    2.9530 ha        1 VGN      0.160000
     37 H11C       -4.6480   -0.4160    1.1960 hc        1 VGN      0.058367
     38 H12C       -5.0530    0.9320    0.0420 hc        1 VGN      0.058367
     39 H13C       -4.5050    1.3130    1.7340 hc        1 VGN      0.058367
     40 H22        10.3850    0.2720   -2.0700 ha        1 VGN      0.123500
     41 H19         7.9110    0.4060   -1.8250 ha        1 VGN      0.136000
@<TRIPOS>BOND
     1    1    2 ar  
     2    1   12 ar  
     3    1   26 1   
     4    2   13 ar  
     5    2   27 1   
     6    3    8 1   
     7    3   10 ar  
     8    3   16 ar  
     9    4   17 1   
    10    5    7 ar  
    11    5   19 ar  
    12    5   40 1   
    13    6   16 ar  
    14    6   20 ar  
    15    6   31 1   
    16    7    8 ar  
    17    7   41 1   
    18    8   11 ar  
    19    9   10 ar  
    20    9   20 ar  
    21    9   33 1   
    22   10   28 1   
    23   11   21 ar  
    24   11   32 1   
    25   12   14 ar  
    26   12   22 1   
    27   13   18 ar  
    28   13   20 1   
    29   14   17 1   
    30   14   18 ar  
    31   15   17 1   
    32   16   29 1   
    33   18   36 1   
    34   19   21 ar  
    35   19   30 1   
    36   21   34 1   
    37   22   24 1   
    38   22   35 1   
    39   23   24 1   
    40   23   37 1   
    41   23   38 1   
    42   23   39 1   
    43   24   25 2   
@<TRIPOS>SUBSTRUCTURE
     1 VGN         1 TEMP              0 ****  ****    0 ROOT
