@<TRIPOS>MOLECULE
VGP
   64    68     1     0     0
SMALL
bcc


@<TRIPOS>ATOM
      1 C           5.6920    1.2050    1.4980 c3        1 VGP      0.111700
      2 O          -5.9570    0.4220    0.7610 oh        1 VGP     -0.598800
      3 C01        -2.7140    2.9870   -0.5260 ca        1 VGP     -0.162000
      4 O01         0.1050   -1.1740   -0.0990 os        1 VGP     -0.359900
      5 C02        -3.0080    1.6600   -0.1870 ca        1 VGP     -0.066000
      6 C03        -2.0050    0.7280    0.0180 ca        1 VGP     -0.100300
      7 C04        -0.6420    1.1030   -0.1700 ca        1 VGP      0.013000
      8 O04         4.4900    1.0540    0.7490 os        1 VGP     -0.329900
      9 C05        -0.3220    2.4710   -0.4170 ca        1 VGP     -0.081000
     10 O05         0.7350   -2.0200   -2.0720 oh        1 VGP     -0.604800
     11 C06        -1.3900    3.3950   -0.6220 ca        1 VGP      0.150100
     12 O06        -3.5990   -0.5600    1.2790 os        1 VGP     -0.427600
     13 C07         0.4490    0.1690   -0.1350 ca        1 VGP      0.088100
     14 O07        -4.3820   -3.3840   -0.6860 oh        1 VGP     -0.595800
     15 C08         1.7830    0.5610   -0.1420 ca        1 VGP     -0.053000
     16 O08        -2.3040   -1.2580   -1.9130 oh        1 VGP     -0.592800
     17 C09         2.0820    1.9360   -0.3030 ca        1 VGP     -0.179000
     18 C10         1.0630    2.8500   -0.4480 ca        1 VGP      0.122100
     19 C11         1.0320   -2.0760   -0.7020 c3        1 VGP      0.380200
     20 C12         2.4610   -1.7810   -0.3590 ca        1 VGP     -0.135300
     21 C13         2.8210   -0.4580   -0.0380 ca        1 VGP     -0.021000
     22 C14         3.3810   -2.8240   -0.3280 ca        1 VGP     -0.116000
     23 C15         4.7120   -2.5780    0.0380 ca        1 VGP     -0.022800
     24 C16         5.0840   -1.2810    0.4060 ca        1 VGP     -0.178000
     25 C17         4.1530   -0.2350    0.3810 ca        1 VGP      0.139100
     26 C19         6.9880   -3.5510   -0.0360 c2        1 VGP     -0.196000
     27 C20        -2.6130   -1.6920   -0.6090 c3        1 VGP      0.100100
     28 C21        -2.3820   -0.6400    0.5020 c3        1 VGP      0.170400
     29 C22        -4.1260   -2.0000   -0.5560 c3        1 VGP      0.115100
     30 C23        -4.5350   -1.5650    0.8610 c3        1 VGP      0.105100
     31 C24        -5.9530   -0.9810    0.9460 c3        1 VGP      0.145100
     32 C25        -6.6010   -1.3520    2.2680 c3        1 VGP     -0.130100
     33 C26         2.6410    4.6460   -0.5270 c3        1 VGP      0.118700
     34 H           5.6470    2.2690    1.8450 h1        1 VGP      0.047367
     35 HA          5.7150    0.5070    2.3690 h1        1 VGP      0.047367
     36 HB          6.5810    1.0460    0.8400 h1        1 VGP      0.047367
     37 HO         -5.4220    0.8040    1.4710 ho        1 VGP      0.414000
     38 H01        -3.5230    3.7120   -0.6980 ha        1 VGP      0.156000
     39 H02        -4.0640    1.3550   -0.0840 ha        1 VGP      0.167000
     40 HO02       -0.4190    4.8580   -1.4130 ho        1 VGP      0.438000
     41 HO07       -4.0990   -3.6280   -1.5770 ho        1 VGP      0.415000
     42 HO08       -1.3480   -1.1000   -1.9300 ho        1 VGP      0.425000
     43 H09         3.1340    2.2530   -0.3300 ha        1 VGP      0.164000
     44 H14         3.0630   -3.8430   -0.5960 ha        1 VGP      0.144000
     45 H16         6.1210   -1.0920    0.7220 ha        1 VGP      0.144000
     46 H18         5.2040   -4.6830    0.1110 ha        1 VGP      0.130000
     47 H19         7.6550   -4.4240   -0.0300 ha        1 VGP      0.116500
     48 H19A        7.4970   -2.5820   -0.1200 ha        1 VGP      0.116500
     49 H20        -2.0150   -2.6150   -0.3670 h1        1 VGP      0.055700
     50 H21        -1.6030   -1.0090    1.2310 h1        1 VGP      0.081700
     51 H22        -4.6740   -1.4200   -1.3470 h1        1 VGP      0.077700
     52 H23        -4.4360   -2.4380    1.5640 h1        1 VGP      0.070700
     53 H24        -6.5670   -1.3750    0.0860 h1        1 VGP      0.080700
     54 H25        -5.9680   -1.0090    3.1210 hc        1 VGP      0.046700
     55 H25A       -7.6010   -0.8620    2.3460 hc        1 VGP      0.046700
     56 H25B       -6.7320   -2.4570    2.3360 hc        1 VGP      0.046700
     57 H26         2.5530    5.7580   -0.6270 h1        1 VGP      0.048367
     58 H26A        3.0720    4.3700    0.4660 h1        1 VGP      0.048367
     59 H26B        3.2580    4.2220   -1.3570 h1        1 VGP      0.048367
     60 H27         1.1460   -1.2290   -2.4460 ho        1 VGP      0.419000
     61 H28         0.6920   -3.0950   -0.3500 h2        1 VGP      0.120700
     62 C18         5.6630   -3.6800    0.0450 ce        1 VGP     -0.121200
     63 O02        -1.2120    4.7350   -0.8710 oh        1 VGP     -0.502100
     64 O03         1.2930    4.2020   -0.6330 os        1 VGP     -0.348900
@<TRIPOS>BOND
     1    1    8 1   
     2    1   34 1   
     3    1   35 1   
     4    1   36 1   
     5    2   31 1   
     6    2   37 1   
     7    3    5 ar  
     8    3   11 ar  
     9    3   38 1   
    10    4   13 1   
    11    4   19 1   
    12    5    6 ar  
    13    5   39 1   
    14    6    7 ar  
    15    6   28 1   
    16    7    9 ar  
    17    7   13 ar  
    18    8   25 1   
    19    9   11 ar  
    20    9   18 ar  
    21   10   19 1   
    22   10   60 1   
    23   11   63 1   
    24   12   28 1   
    25   12   30 1   
    26   13   15 ar  
    27   14   29 1   
    28   14   41 1   
    29   15   17 ar  
    30   15   21 1   
    31   16   27 1   
    32   16   42 1   
    33   17   18 ar  
    34   17   43 1   
    35   18   64 1   
    36   19   20 1   
    37   19   61 1   
    38   20   21 ar  
    39   20   22 ar  
    40   21   25 ar  
    41   22   23 ar  
    42   22   44 1   
    43   23   24 ar  
    44   23   62 1   
    45   24   25 ar  
    46   24   45 1   
    47   26   47 1   
    48   26   48 1   
    49   26   62 2   
    50   27   28 1   
    51   27   29 1   
    52   27   49 1   
    53   28   50 1   
    54   29   30 1   
    55   29   51 1   
    56   30   31 1   
    57   30   52 1   
    58   31   32 1   
    59   31   53 1   
    60   32   54 1   
    61   32   55 1   
    62   32   56 1   
    63   33   57 1   
    64   33   58 1   
    65   33   59 1   
    66   33   64 1   
    67   40   63 1   
    68   46   62 1   
@<TRIPOS>SUBSTRUCTURE
     1 VGP         1 TEMP              0 ****  ****    0 ROOT
