@<TRIPOS>MOLECULE
VH0
   27    28     1     0     0
SMALL
bcc


@<TRIPOS>ATOM
      1 N11         1.9820    0.5930   -1.3610 n3        1 VH0     -0.792200
      2 C23         1.0260    1.6880   -1.3590 c3        1 VH0      0.140800
      3 C10         2.1970    0.1650    0.0270 c3        1 VH0      0.017500
      4 C8          1.9910   -1.3650    0.2630 c         1 VH0      0.908600
      5 O9          1.1400   -1.9680   -0.4580 o         1 VH0     -0.833300
      6 C25         1.2440    0.9470    0.9540 c3        1 VH0     -0.091400
      7 C24         0.2980    1.7420    0.0250 c3        1 VH0      0.031000
      8 N26        -1.0520    1.1970   -0.0260 na        1 VH0      0.059400
      9 N27        -2.1950    1.9240    0.0360 nc        1 VH0     -0.209800
     10 N28        -3.2040    1.1560   -0.0640 nd        1 VH0     -0.376000
     11 C30        -1.3610   -0.1590   -0.1880 cc        1 VH0     -0.202600
     12 C29        -2.7710   -0.1840   -0.2100 cd        1 VH0      0.166600
     13 C31        -3.6790   -1.3540   -0.3570 c3        1 VH0      0.148500
     14 N32        -3.0450   -2.6460   -0.4270 n3        1 VH0     -0.909800
     15 H231        1.6040    2.6470   -1.4660 h1        1 VH0      0.041700
     16 H232        0.3070    1.6210   -2.2160 h1        1 VH0      0.041700
     17 H10         3.2630    0.4120    0.2870 h1        1 VH0      0.062700
     18 H24         0.2210    2.8110    0.3670 h1        1 VH0      0.069700
     19 H251        0.7030    0.2480    1.6360 hc        1 VH0      0.056700
     20 H252        1.8180    1.6690    1.5850 hc        1 VH0      0.056700
     21 H30        -0.5850   -0.9410   -0.2690 h4        1 VH0      0.264000
     22 H311       -4.3970   -1.3660    0.5140 h1        1 VH0      0.050700
     23 H312       -4.2910   -1.2170   -1.2970 h1        1 VH0      0.050700
     24 H32        -2.4100   -2.6890   -1.2020 hn        1 VH0      0.355300
     25 H2          1.6130   -0.1890   -1.8820 hn        1 VH0      0.373800
     26 H3         -2.5220   -2.8300    0.4090 hn        1 VH0      0.355300
     27 OXT         2.6690   -1.9030    1.1740 o         1 VH0     -0.833300
@<TRIPOS>BOND
     1    1    2 1   
     2    1    3 1   
     3    1   25 1   
     4    2    7 1   
     5    2   15 1   
     6    2   16 1   
     7    3    4 1   
     8    3    6 1   
     9    3   17 1   
    10    4    5 1   
    11    4   27 1   
    12    6    7 1   
    13    6   19 1   
    14    6   20 1   
    15    7    8 1   
    16    7   18 1   
    17    8    9 1   
    18    8   11 1   
    19    9   10 2   
    20   10   12 1   
    21   11   12 2   
    22   11   21 1   
    23   12   13 1   
    24   13   14 1   
    25   13   22 1   
    26   13   23 1   
    27   14   24 1   
    28   14   26 1   
@<TRIPOS>SUBSTRUCTURE
     1 VH0         1 TEMP              0 ****  ****    0 ROOT
