@<TRIPOS>MOLECULE
VH1
   40    43     1     0     0
SMALL
bcc


@<TRIPOS>ATOM
      1 CAJ         0.0860    0.0580   -0.0280 ca        1 VH1     -0.074500
      2 CAH         1.4730    0.1530   -0.0160 ca        1 VH1     -0.195000
      3 CAQ         2.1750    0.1910    1.2100 ca        1 VH1      0.122600
      4 NAA         3.5680    0.3720    1.2330 nh        1 VH1     -0.811200
      5 CAI         1.4380    0.1130    2.4140 ca        1 VH1     -0.195000
      6 CAK         0.0520    0.0180    2.3840 ca        1 VH1     -0.074500
      7 CAR        -0.6350    0.0010    1.1670 ca        1 VH1     -0.144300
      8 CAP        -2.1340   -0.0710    1.1460 c3        1 VH1      0.137300
      9 NAZ        -2.6720   -1.4210    1.1590 n         1 VH1     -0.495400
     10 CAU        -2.9040   -2.0440    2.4100 c         1 VH1      0.733100
     11 OAC        -2.6660   -1.4000    3.4500 o         1 VH1     -0.630500
     12 CAX        -3.4310   -3.4210    2.4240 ca        1 VH1     -0.211600
     13 CAY        -3.6730   -4.0890    1.1930 ca        1 VH1      0.039000
     14 CAO        -3.6860   -4.0650    3.6240 ca        1 VH1      0.074000
     15 CAS        -4.1940   -5.3820    3.6440 ca        1 VH1     -0.264500
     16 SBA        -4.5400   -6.1980    5.2100 s6        1 VH1      1.461100
     17 OAF        -4.5750   -7.5660    4.8660 o         1 VH1     -0.737200
     18 OAE        -3.4630   -5.8220    6.0350 o         1 VH1     -0.737200
     19 OAD        -5.7840   -5.6740    5.6070 o         1 VH1     -0.737200
     20 CAN        -4.4270   -6.0390    2.4610 ca        1 VH1      0.006000
     21 CAV        -4.1750   -5.4150    1.2060 ca        1 VH1     -0.087000
     22 CAL        -4.4090   -6.0720   -0.0280 ca        1 VH1     -0.059000
     23 CAG        -4.1550   -5.4360   -1.2230 ca        1 VH1     -0.184000
     24 CAM        -3.6550   -4.1170   -1.2390 ca        1 VH1     -0.046000
     25 CAW        -3.4170   -3.4520   -0.0500 ca        1 VH1     -0.165600
     26 CAT        -2.8880   -2.0700   -0.0670 c         1 VH1      0.728100
     27 OAB        -2.6460   -1.4710   -1.1360 o         1 VH1     -0.654500
     28 HAJ        -0.4560    0.0100   -0.9880 ha        1 VH1      0.153000
     29 HAH         2.0200    0.2000   -0.9690 ha        1 VH1      0.126500
     30 HAA1        4.0220    0.0340    0.4120 hn        1 VH1      0.376300
     31 HAA2        3.9960    0.0280    2.0660 hn        1 VH1      0.376300
     32 HAI         1.9570    0.1240    3.3830 ha        1 VH1      0.126500
     33 HAK        -0.5180   -0.0650    3.3260 ha        1 VH1      0.153000
     34 HAP1       -2.5390    0.4710    2.0510 h1        1 VH1      0.072700
     35 HAP2       -2.5140    0.4460    0.2170 h1        1 VH1      0.072700
     36 HAO        -3.4820   -3.5540    4.5840 ha        1 VH1      0.175000
     37 HAN        -4.8060   -7.0770    2.4780 ha        1 VH1      0.162000
     38 HAL        -4.7980   -7.1020   -0.0100 ha        1 VH1      0.135000
     39 HAG        -4.3380   -5.9480   -2.1790 ha        1 VH1      0.127000
     40 HAM        -3.4530   -3.6140   -2.1980 ha        1 VH1      0.147000
@<TRIPOS>BOND
     1    1    2 ar  
     2    1    7 ar  
     3    1   28 1   
     4    2    3 ar  
     5    2   29 1   
     6    3    4 1   
     7    3    5 ar  
     8    4   30 1   
     9    4   31 1   
    10    5    6 ar  
    11    5   32 1   
    12    6    7 ar  
    13    6   33 1   
    14    7    8 1   
    15    8    9 1   
    16    8   34 1   
    17    8   35 1   
    18    9   10 1   
    19    9   26 1   
    20   10   11 2   
    21   10   12 1   
    22   12   13 ar  
    23   12   14 ar  
    24   13   21 ar  
    25   13   25 ar  
    26   14   15 ar  
    27   14   36 1   
    28   15   16 1   
    29   15   20 ar  
    30   16   17 1   
    31   16   18 1   
    32   16   19 1   
    33   20   21 ar  
    34   20   37 1   
    35   21   22 ar  
    36   22   23 ar  
    37   22   38 1   
    38   23   24 ar  
    39   23   39 1   
    40   24   25 ar  
    41   24   40 1   
    42   25   26 1   
    43   26   27 2   
@<TRIPOS>SUBSTRUCTURE
     1 VH1         1 TEMP              0 ****  ****    0 ROOT
