@<TRIPOS>MOLECULE
VH1
   40    43     1     0     0
SMALL
bcc


@<TRIPOS>ATOM
      1 CAJ        -4.6380   -0.3490    0.0670 ca        1 VH1     -0.074500
      2 CAH        -5.5360    0.2060   -0.8370 ca        1 VH1     -0.195000
      3 CAQ        -5.5130    1.5940   -1.1060 ca        1 VH1      0.122600
      4 NAA        -6.4710    2.1760   -1.9530 nh        1 VH1     -0.811200
      5 CAI        -4.5490    2.3930   -0.4490 ca        1 VH1     -0.195000
      6 CAK        -3.6580    1.8230    0.4510 ca        1 VH1     -0.074500
      7 CAR        -3.7020    0.4520    0.7240 ca        1 VH1     -0.144300
      8 CAP        -2.7560   -0.1490    1.7220 c3        1 VH1      0.137300
      9 NAZ        -1.4830   -0.5760    1.1630 n         1 VH1     -0.495400
     10 CAU        -0.4260    0.3640    1.0940 c         1 VH1      0.733100
     11 OAC        -0.6180    1.5110    1.5420 o         1 VH1     -0.630500
     12 CAX         0.8590   -0.0620    0.5080 ca        1 VH1     -0.211600
     13 CAY         0.9960   -1.3880    0.0160 ca        1 VH1      0.039000
     14 CAO         1.9250    0.8200    0.4330 ca        1 VH1      0.074000
     15 CAS         3.1580    0.4160   -0.1220 ca        1 VH1     -0.264500
     16 SBA         4.5400    1.5670   -0.1950 s6        1 VH1      1.461100
     17 OAF         5.3840    1.0030   -1.1760 o         1 VH1     -0.737200
     18 OAE         3.9460    2.7910   -0.5560 o         1 VH1     -0.737200
     19 OAD         5.0770    1.5450    1.1060 o         1 VH1     -0.737200
     20 CAN         3.3010   -0.8600   -0.6070 ca        1 VH1      0.006000
     21 CAV         2.2300   -1.7970   -0.5510 ca        1 VH1     -0.087000
     22 CAL         2.3530   -3.1200   -1.0430 ca        1 VH1     -0.059000
     23 CAG         1.2950   -4.0000   -0.9720 ca        1 VH1     -0.184000
     24 CAM         0.0670   -3.5950   -0.4080 ca        1 VH1     -0.046000
     25 CAW        -0.0830   -2.3100    0.0790 ca        1 VH1     -0.165600
     26 CAT        -1.3730   -1.8840    0.6660 c         1 VH1      0.728100
     27 OAB        -2.3500   -2.6600    0.7400 o         1 VH1     -0.654500
     28 HAJ        -4.6480   -1.4350    0.2580 ha        1 VH1      0.153000
     29 HAH        -6.2660   -0.4430   -1.3420 ha        1 VH1      0.126500
     30 HAA1       -6.8260    1.5450   -2.6380 hn        1 VH1      0.376300
     31 HAA2       -6.1680    3.0360   -2.3570 hn        1 VH1      0.376300
     32 HAI        -4.4970    3.4740   -0.6490 ha        1 VH1      0.126500
     33 HAK        -2.8930    2.4460    0.9450 ha        1 VH1      0.153000
     34 HAP1       -2.5400    0.6120    2.5270 h1        1 VH1      0.072700
     35 HAP2       -3.2450   -1.0490    2.1980 h1        1 VH1      0.072700
     36 HAO         1.8150    1.8580    0.8000 ha        1 VH1      0.175000
     37 HAN         4.2610   -1.1690   -1.0590 ha        1 VH1      0.162000
     38 HAL         3.3140   -3.4300   -1.4830 ha        1 VH1      0.135000
     39 HAG         1.3940   -5.0260   -1.3530 ha        1 VH1      0.127000
     40 HAM        -0.7760   -4.3020   -0.3550 ha        1 VH1      0.147000
@<TRIPOS>BOND
     1    1    2 ar  
     2    1    7 ar  
     3    1   28 1   
     4    2    3 ar  
     5    2   29 1   
     6    3    4 1   
     7    3    5 ar  
     8    4   30 1   
     9    4   31 1   
    10    5    6 ar  
    11    5   32 1   
    12    6    7 ar  
    13    6   33 1   
    14    7    8 1   
    15    8    9 1   
    16    8   34 1   
    17    8   35 1   
    18    9   10 1   
    19    9   26 1   
    20   10   11 2   
    21   10   12 1   
    22   12   13 ar  
    23   12   14 ar  
    24   13   21 ar  
    25   13   25 ar  
    26   14   15 ar  
    27   14   36 1   
    28   15   16 1   
    29   15   20 ar  
    30   16   17 1   
    31   16   18 1   
    32   16   19 1   
    33   20   21 ar  
    34   20   37 1   
    35   21   22 ar  
    36   22   23 ar  
    37   22   38 1   
    38   23   24 ar  
    39   23   39 1   
    40   24   25 ar  
    41   24   40 1   
    42   25   26 1   
    43   26   27 2   
@<TRIPOS>SUBSTRUCTURE
     1 VH1         1 TEMP              0 ****  ****    0 ROOT
