@<TRIPOS>MOLECULE
VH1
   40    43     1     0     0
SMALL
bcc


@<TRIPOS>ATOM
      1 CAJ         0.0850    0.0570   -0.0320 ca        1 VH1     -0.074500
      2 CAH         1.4720    0.1510   -0.0200 ca        1 VH1     -0.195000
      3 CAQ         2.1750    0.1900    1.2050 ca        1 VH1      0.122600
      4 NAA         3.5680    0.3710    1.2280 nv        1 VH1     -0.811200
      5 CAI         1.4380    0.1140    2.4090 ca        1 VH1     -0.195000
      6 CAK         0.0520    0.0190    2.3800 ca        1 VH1     -0.074500
      7 CAR        -0.6350    0.0000    1.1630 ca        1 VH1     -0.144300
      8 CAP        -2.1340   -0.0710    1.1430 c3        1 VH1      0.137300
      9 NAZ        -2.6730   -1.4210    1.1580 n         1 VH1     -0.495400
     10 CAU        -2.9040   -2.0430    2.4090 c         1 VH1      0.733100
     11 OAC        -2.6650   -1.3980    3.4480 o         1 VH1     -0.630500
     12 CAX        -3.4300   -3.4200    2.4260 ca        1 VH1     -0.211600
     13 CAY        -3.6740   -4.0900    1.1960 ca        1 VH1      0.039000
     14 CAO        -3.6850   -4.0630    3.6260 ca        1 VH1      0.074000
     15 CAS        -4.1930   -5.3800    3.6480 ca        1 VH1     -0.264500
     16 SBA        -4.5370   -6.1940    5.2150 s6        1 VH1      1.461100
     17 OAF        -4.5720   -7.5620    4.8720 o         1 VH1     -0.737200
     18 OAE        -3.4610   -5.8160    6.0390 o         1 VH1     -0.737200
     19 OAD        -5.7820   -5.6700    5.6120 o         1 VH1     -0.737200
     20 CAN        -4.4260   -6.0380    2.4660 ca        1 VH1      0.006000
     21 CAV        -4.1750   -5.4150    1.2100 ca        1 VH1     -0.087000
     22 CAL        -4.4100   -6.0740   -0.0230 ca        1 VH1     -0.059000
     23 CAG        -4.1560   -5.4390   -1.2190 ca        1 VH1     -0.184000
     24 CAM        -3.6560   -4.1200   -1.2370 ca        1 VH1     -0.046000
     25 CAW        -3.4180   -3.4540   -0.0490 ca        1 VH1     -0.165600
     26 CAT        -2.8890   -2.0720   -0.0670 c         1 VH1      0.728100
     27 OAB        -2.6470   -1.4740   -1.1380 o         1 VH1     -0.654500
     28 HAJ        -0.4570    0.0070   -0.9920 ha        1 VH1      0.153000
     29 HAH         2.0190    0.1960   -0.9730 ha        1 VH1      0.126500
     30 HAA1        4.0220    0.0310    0.4070 hn        1 VH1      0.376300
     31 HAA2        3.9960    0.0280    2.0610 hn        1 VH1      0.376300
     32 HAI         1.9580    0.1270    3.3790 ha        1 VH1      0.126500
     33 HAK        -0.5180   -0.0630    3.3220 ha        1 VH1      0.153000
     34 HAP1       -2.5150    0.4440    0.2140 h1        1 VH1      0.072700
     35 HAP2       -2.5390    0.4710    2.0470 h1        1 VH1      0.072700
     36 HAO        -3.4800   -3.5510    4.5860 ha        1 VH1      0.175000
     37 HAN        -4.8060   -7.0760    2.4850 ha        1 VH1      0.162000
     38 HAL        -4.7990   -7.1040   -0.0040 ha        1 VH1      0.135000
     39 HAG        -4.3390   -5.9520   -2.1740 ha        1 VH1      0.127000
     40 HAM        -3.4540   -3.6180   -2.1960 ha        1 VH1      0.147000
@<TRIPOS>BOND
     1    1    2 ar  
     2    1    7 ar  
     3    1   28 1   
     4    2    3 ar  
     5    2   29 1   
     6    3    4 1   
     7    3    5 ar  
     8    4   30 1   
     9    4   31 1   
    10    5    6 ar  
    11    5   32 1   
    12    6    7 ar  
    13    6   33 1   
    14    7    8 1   
    15    8    9 1   
    16    8   34 1   
    17    8   35 1   
    18    9   10 1   
    19    9   26 1   
    20   10   11 2   
    21   10   12 1   
    22   12   13 ar  
    23   12   14 ar  
    24   13   21 ar  
    25   13   25 ar  
    26   14   15 ar  
    27   14   36 1   
    28   15   16 1   
    29   15   20 ar  
    30   16   17 1   
    31   16   18 1   
    32   16   19 1   
    33   20   21 ar  
    34   20   37 1   
    35   21   22 ar  
    36   22   23 ar  
    37   22   38 1   
    38   23   24 ar  
    39   23   39 1   
    40   24   25 ar  
    41   24   40 1   
    42   25   26 1   
    43   26   27 2   
@<TRIPOS>SUBSTRUCTURE
     1 VH1         1 TEMP              0 ****  ****    0 ROOT
