@<TRIPOS>MOLECULE
VH1
   41    44     1     0     0
SMALL
bcc


@<TRIPOS>ATOM
      1 CAJ        -0.1070    0.3880   -0.1130 ca        1 VH1     -0.069000
      2 CAH         1.2660    0.5900   -0.1740 ca        1 VH1     -0.201000
      3 CAQ         2.0340    0.6460    1.0140 ca        1 VH1      0.151600
      4 NAA         3.4250    0.7600    0.9590 nh        1 VH1     -0.822200
      5 CAI         1.3690    0.5010    2.2550 ca        1 VH1     -0.201000
      6 CAK        -0.0050    0.3010    2.2970 ca        1 VH1     -0.069000
      7 CAR        -0.7550    0.2530    1.1180 ca        1 VH1     -0.169300
      8 CAP        -2.2420    0.0830    1.1750 c3        1 VH1      0.140300
      9 NAZ        -2.6890   -1.3060    1.1500 n         1 VH1     -0.485400
     10 CAU        -2.8030   -1.9960    2.3700 c         1 VH1      0.725100
     11 OAC        -2.5750   -1.4090    3.4440 o         1 VH1     -0.606500
     12 CAX        -3.2160   -3.4220    2.3430 ca        1 VH1     -0.165600
     13 CAY        -3.4560   -4.0580    1.0950 ca        1 VH1      0.067000
     14 CAO        -3.3580   -4.1250    3.5200 ca        1 VH1      0.044000
     15 CAS        -3.7440   -5.4910    3.5100 ca        1 VH1     -0.434500
     16 SBA        -3.9080   -6.3200    4.9410 sy        1 VH1      1.666800
     17 OAF        -4.7680   -7.3880    4.7940 o         1 VH1     -0.661800
     18 OAE        -2.4100   -7.0060    5.1170 oh        1 VH1     -0.757700
     19 OAD        -3.9630   -5.4760    6.0340 o         1 VH1     -0.661800
     20 CAN        -3.9800   -6.1140    2.2960 ca        1 VH1      0.078000
     21 CAV        -3.8450   -5.4210    1.0690 ca        1 VH1     -0.098000
     22 CAL        -4.0830   -6.0470   -0.1860 ca        1 VH1     -0.057000
     23 CAG        -3.9390   -5.3380   -1.3550 ca        1 VH1     -0.155000
     24 CAM        -3.5520   -3.9780   -1.3300 ca        1 VH1     -0.011000
     25 CAW        -3.3150   -3.3450   -0.1250 ca        1 VH1     -0.167600
     26 CAT        -2.9080   -1.9180   -0.0970 c         1 VH1      0.725100
     27 OAB        -2.7770   -1.2630   -1.1470 o         1 VH1     -0.611500
     28 HAJ        -0.6960    0.3280   -1.0440 ha        1 VH1      0.147500
     29 HAH         1.7540    0.6950   -1.1540 ha        1 VH1      0.132500
     30 HAA1        3.7750    1.1770    0.1260 hn        1 VH1      0.391800
     31 HAA2        3.8460    1.1140    1.7880 hn        1 VH1      0.391800
     32 HAI         1.9390    0.5360    3.1950 ha        1 VH1      0.132500
     33 HAK        -0.5130    0.1720    3.2670 ha        1 VH1      0.147500
     34 HAP1       -2.6350    0.5490    2.1250 h1        1 VH1      0.079200
     35 HAP2       -2.7120    0.6080    0.2930 h1        1 VH1      0.079200
     36 HAO        -3.1780   -3.6170    4.4890 ha        1 VH1      0.186000
     37 HAN        -4.2890   -7.1780    2.2760 ha        1 VH1      0.166000
     38 HAL        -4.3850   -7.1060   -0.2010 ha        1 VH1      0.148000
     39 HAG        -4.1220   -5.8200   -2.3280 ha        1 VH1      0.151000
     40 HAM        -3.4380   -3.4180   -2.2750 ha        1 VH1      0.170000
     41 HAA3       -1.8910   -6.7430    5.8750 ho        1 VH1      0.484000
@<TRIPOS>BOND
     1    1    2 ar  
     2    1    7 ar  
     3    1   28 1   
     4    2    3 ar  
     5    2   29 1   
     6    3    4 1   
     7    3    5 ar  
     8    4   30 1   
     9    4   31 1   
    10    5    6 ar  
    11    5   32 1   
    12    6    7 ar  
    13    6   33 1   
    14    7    8 1   
    15    8    9 1   
    16    8   34 1   
    17    8   35 1   
    18    9   10 1   
    19    9   26 1   
    20   10   11 2   
    21   10   12 1   
    22   12   13 ar  
    23   12   14 ar  
    24   13   21 ar  
    25   13   25 ar  
    26   14   15 ar  
    27   14   36 1   
    28   15   16 1   
    29   15   20 ar  
    30   16   17 2   
    31   16   18 1   
    32   16   19 2   
    33   18   41 1   
    34   20   21 ar  
    35   20   37 1   
    36   21   22 ar  
    37   22   23 ar  
    38   22   38 1   
    39   23   24 ar  
    40   23   39 1   
    41   24   25 ar  
    42   24   40 1   
    43   25   26 1   
    44   26   27 2   
@<TRIPOS>SUBSTRUCTURE
     1 VH1         1 TEMP              0 ****  ****    0 ROOT
