@<TRIPOS>MOLECULE
VH1
   40    35     1     0     0
SMALL
bcc


@<TRIPOS>ATOM
      1 CAJ         1.9830    2.5210    0.7310 c1        1 VH1     -0.072000
      2 CAH         3.3270    2.7950    0.9760 c1        1 VH1     -0.193000
      3 CAQ         4.1750    3.1140   -0.0760 c1        1 VH1      0.041000
      4 NAA         5.5630    3.3100    0.1650 n2        1 VH1     -0.320000
      5 CAI         3.6850    3.1620   -1.3690 c2        1 VH1     -0.197000
      6 CAK         2.3410    2.8890   -1.6170 c1        1 VH1     -0.077000
      7 CAR         1.4900    2.5680   -0.5620 c1        1 VH1     -0.137000
      8 CAP        -0.0390    2.4640   -0.8090 c3        1 VH1      0.014000
      9 NAZ        -0.4640    1.0970   -0.6250 n         1 VH1     -0.324000
     10 CAU        -1.2890    0.7520    0.4780 c2        1 VH1      0.370000
     11 OAC        -1.5550    1.5830    1.3210 o         1 VH1     -0.355000
     12 CAX        -1.8070   -0.6900    0.6290 c2        1 VH1     -0.191000
     13 CAY        -1.4360   -1.6810   -0.3170 c2        1 VH1      0.039000
     14 CAO        -2.6740   -1.0210    1.6970 c1        1 VH1      0.074000
     15 CAS        -3.1510   -2.3360    1.8330 c1        1 VH1     -0.709000
     16 SBA        -4.0470   -2.8150    3.3070 s4        1 VH1      2.090800
     17 OAF        -4.6980   -1.6190    3.9680 o         1 VH1     -0.670400
     18 OAE        -5.2520   -3.6520    2.9660 o         1 VH1     -0.670400
     19 OAD        -3.1310   -3.5370    4.2630 os        1 VH1     -1.056000
     20 CAN        -2.7670   -3.3200    0.9110 c1        1 VH1      0.006000
     21 CAV        -1.8900   -2.9850   -0.1700 c1        1 VH1     -0.087000
     22 CAL        -1.5500   -3.9640   -1.1310 c1        1 VH1     -0.059000
     23 CAG        -0.7510   -3.6220   -2.2240 c1        1 VH1     -0.115000
     24 CAM        -0.2870   -2.3130   -2.3680 c1        1 VH1     -0.115000
     25 CAW        -0.6240   -1.3390   -1.4120 c1        1 VH1     -0.145000
     26 CAT        -0.1210    0.1190   -1.5800 c2        1 VH1      0.365000
     27 OAB         0.5140    0.4330   -2.5680 o         1 VH1     -0.379000
     28 HAJ         1.3890    2.2970    1.4700 ha        1 VH1      0.158000
     29 HAH         3.6760    2.7610    1.8920 ha        1 VH1      0.129000
     30 HAA1        5.9670    4.1030   -0.0810 hn        1 VH1      0.171500
     31 HAA2        6.0560    2.6460    0.5360 hn        1 VH1      0.171500
     32 HAI         4.2820    3.3870   -2.1090 ha        1 VH1      0.124000
     33 HAK         1.9980    2.9230   -2.5260 ha        1 VH1      0.148000
     34 HAP1       -0.5140    3.0440   -0.1720 h1        1 VH1      0.112000
     35 HAP2       -0.2430    2.7510   -1.7300 h1        1 VH1      0.112000
     36 HAO        -2.8740   -0.3590    2.3830 ha        1 VH1      0.175000
     37 HAN        -3.1000   -4.2360    1.0060 ha        1 VH1      0.162000
     38 HAL        -1.8740   -4.8780   -1.0310 ha        1 VH1      0.135000
     39 HAG        -0.5800   -4.2800   -2.9270 ha        1 VH1      0.137000
     40 HAM         0.2720   -2.0750   -3.1310 ha        1 VH1      0.137000
@<TRIPOS>BOND
     1    1    7 1   
     2    1   28 1   
     3    2    3 1   
     4    2   29 1   
     5    3    5 1   
     6    4   30 1   
     7    4   31 1   
     8    5    6 1   
     9    5   32 1   
    10    6   33 1   
    11    7    8 1   
    12    8    9 1   
    13    8   34 1   
    14    8   35 1   
    15    9   10 1   
    16    9   26 1   
    17   10   11 1   
    18   10   12 1   
    19   12   13 1   
    20   12   14 1   
    21   13   21 1   
    22   13   25 1   
    23   14   36 1   
    24   15   16 1   
    25   15   20 1   
    26   16   17 1   
    27   16   18 1   
    28   20   37 1   
    29   21   22 1   
    30   22   38 1   
    31   23   24 1   
    32   23   39 1   
    33   24   40 1   
    34   25   26 1   
    35   26   27 1   
@<TRIPOS>SUBSTRUCTURE
     1 VH1         1 TEMP              0 ****  ****    0 ROOT
