@<TRIPOS>MOLECULE
VH2
   43    46     1     0     0
SMALL
bcc


@<TRIPOS>ATOM
      1 CBA         0.0460    0.1190    0.0660 ca        1 VH2      0.068000
      2 CAP         1.4610    0.2720    0.1330 ca        1 VH2     -0.155000
      3 CAG         2.1090    0.3480    1.3410 ca        1 VH2     -0.095000
      4 CAF         1.3850    0.2790    2.5550 ca        1 VH2     -0.136000
      5 CAN         0.0200    0.1430    2.5270 ca        1 VH2     -0.103000
      6 CAZ        -0.6760    0.0640    1.2890 ca        1 VH2     -0.070000
      7 CAO        -2.0900   -0.0680    1.2660 ca        1 VH2     -0.038000
      8 CAH        -2.7610   -0.1490    0.0710 ca        1 VH2     -0.172000
      9 CAK        -2.0410   -0.1120   -1.1400 ca        1 VH2      0.032000
     10 CAW        -0.6620    0.0220   -1.1710 ca        1 VH2     -0.385500
     11 SBB         0.0700    0.0600   -2.6830 sy        1 VH2      1.516200
     12 OAB        -0.9080    0.2360   -3.6720 o         1 VH2     -0.638800
     13 OAC         1.1420    0.9750   -2.7210 o         1 VH2     -0.638800
     14 NAR         0.7840   -1.4330   -2.7990 nh        1 VH2     -0.832800
     15 CAV         0.1280   -2.6500   -2.8490 cc        1 VH2      0.687300
     16 SAS         0.9820   -4.1450   -3.0860 ss        1 VH2     -0.096300
     17 NAQ        -1.2110   -2.7820   -2.7280 nd        1 VH2     -0.750000
     18 CAX        -1.5280   -4.1390   -2.8390 cd        1 VH2      0.592600
     19 OAA        -2.8180   -4.5960   -2.7660 oh        1 VH2     -0.594300
     20 CAY        -0.4620   -5.0180   -3.0240 cc        1 VH2     -0.237700
     21 CAE        -0.5580   -6.4810   -3.1340 c3        1 VH2      0.054200
     22 CAU        -0.6680   -6.9590   -4.5440 ca        1 VH2     -0.068300
     23 CAL         0.3190   -7.7800   -5.0980 ca        1 VH2     -0.123500
     24 CAI         0.1960   -8.2440   -6.4070 ca        1 VH2     -0.103000
     25 CAT        -0.9160   -7.8880   -7.1740 ca        1 VH2     -0.027900
     26 BR         -1.0820   -8.5110   -8.9320 br        1 VH2     -0.092100
     27 CAJ        -1.9070   -7.0670   -6.6250 ca        1 VH2     -0.103000
     28 CAM        -1.7810   -6.6070   -5.3160 ca        1 VH2     -0.123500
     29 HAP         2.0450    0.3610   -0.7990 ha        1 VH2      0.155000
     30 HAG         3.2020    0.4710    1.3780 ha        1 VH2      0.139000
     31 HAF         1.9270    0.3400    3.5100 ha        1 VH2      0.138000
     32 HAN        -0.5620    0.0960    3.4610 ha        1 VH2      0.135000
     33 HAO        -2.6340   -0.1030    2.2240 ha        1 VH2      0.138000
     34 HAH        -3.8560   -0.2470    0.0420 ha        1 VH2      0.145000
     35 HAK        -2.6030   -0.1940   -2.0920 ha        1 VH2      0.170000
     36 HAR         1.7770   -1.5070   -2.8440 hn        1 VH2      0.462800
     37 HAA        -3.4090   -3.8370   -2.6250 ho        1 VH2      0.442000
     38 HAE1        0.3340   -6.9560   -2.6380 hc        1 VH2      0.066700
     39 HAE2       -1.4740   -6.8230   -2.5700 hc        1 VH2      0.066700
     40 HAL         1.1980   -8.0660   -4.5020 ha        1 VH2      0.143000
     41 HAM        -2.5570   -5.9580   -4.8780 ha        1 VH2      0.143000
     42 HAI         0.9820   -8.8900   -6.8290 ha        1 VH2      0.146000
     43 HAJ        -2.7880   -6.7800   -7.2200 ha        1 VH2      0.146000
@<TRIPOS>BOND
     1    1    2 ar  
     2    1    6 ar  
     3    1   10 ar  
     4    2    3 ar  
     5    2   29 1   
     6    3    4 ar  
     7    3   30 1   
     8    4    5 ar  
     9    4   31 1   
    10    5    6 ar  
    11    5   32 1   
    12    6    7 ar  
    13    7    8 ar  
    14    7   33 1   
    15    8    9 ar  
    16    8   34 1   
    17    9   10 ar  
    18    9   35 1   
    19   10   11 1   
    20   11   12 2   
    21   11   13 2   
    22   11   14 1   
    23   14   15 1   
    24   14   36 1   
    25   15   16 1   
    26   15   17 2   
    27   16   20 1   
    28   17   18 1   
    29   18   19 1   
    30   18   20 2   
    31   19   37 1   
    32   20   21 1   
    33   21   22 1   
    34   21   38 1   
    35   21   39 1   
    36   22   23 ar  
    37   22   28 ar  
    38   23   24 ar  
    39   23   40 1   
    40   24   25 ar  
    41   24   42 1   
    42   25   26 1   
    43   25   27 ar  
    44   27   28 ar  
    45   27   43 1   
    46   28   41 1   
@<TRIPOS>SUBSTRUCTURE
     1 VH2         1 TEMP              0 ****  ****    0 ROOT
