@<TRIPOS>MOLECULE
VH2
   44    46     1     0     0
SMALL
bcc


@<TRIPOS>ATOM
      1 CBA         0.2470    0.4430    0.1600 ca        1 VH2      0.098000
      2 CAP         1.5140    0.9460   -0.2320 ca        1 VH2     -0.211000
      3 CAG         2.3770    1.4990    0.6900 ca        1 VH2     -0.033000
      4 CAF         2.0250    1.5790    2.0560 ca        1 VH2     -0.129000
      5 CAN         0.8060    1.1020    2.4710 ca        1 VH2     -0.071000
      6 CAZ        -0.1040    0.5280    1.5380 ca        1 VH2     -0.096000
      7 CAO        -1.3580    0.0490    1.9840 ca        1 VH2      0.061000
      8 CAH        -2.2550   -0.5110    1.0890 ca        1 VH2     -0.191000
      9 CAK        -1.9200   -0.6020   -0.2570 ca        1 VH2      0.082000
     10 CAW        -0.6880   -0.1370   -0.7720 ca        1 VH2     -0.597500
     11 SBB        -0.4660   -0.2760   -2.3170 s4        1 VH2      1.662300
     12 OAB        -1.5450   -0.6280   -3.0690 o         1 VH2     -0.440900
     13 OAC         0.6230    0.2860   -2.9120 o         1 VH2     -0.440900
     14 NAR         0.5750   -2.3410   -2.1940 nh        1 VH2     -0.950500
     15 CAV        -0.3530   -3.3690   -2.5400 cc        1 VH2      0.401300
     16 SAS        -0.1110   -4.4830   -3.8110 ss        1 VH2      0.119700
     17 NAQ        -1.5350   -3.5030   -1.8770 nd        1 VH2     -0.701000
     18 CAX        -2.2300   -4.5500   -2.4570 cd        1 VH2      0.565600
     19 OAA        -3.4630   -4.9710   -2.0440 oh        1 VH2     -0.570300
     20 CAY        -1.5890   -5.1910   -3.5380 cc        1 VH2     -0.201700
     21 CAE        -2.1810   -6.3100   -4.2920 c3        1 VH2      0.038200
     22 CAU        -1.2690   -6.8670   -5.3310 ca        1 VH2     -0.113300
     23 CAL        -0.3950   -7.9130   -5.0170 ca        1 VH2     -0.121500
     24 CAI         0.4400   -8.4530   -5.9940 ca        1 VH2     -0.101000
     25 CAT         0.4050   -7.9520   -7.2990 ca        1 VH2     -0.018900
     26 BR          1.5290   -8.6690   -8.6100 br        1 VH2     -0.058100
     27 CAJ        -0.4780   -6.9170   -7.6220 ca        1 VH2     -0.101000
     28 CAM        -1.3110   -6.3800   -6.6420 ca        1 VH2     -0.121500
     29 HAP         1.8360    0.9230   -1.2870 ha        1 VH2      0.167000
     30 HAG         3.3550    1.8900    0.3630 ha        1 VH2      0.164000
     31 HAF         2.7320    2.0260    2.7730 ha        1 VH2      0.168000
     32 HAN         0.5100    1.1580    3.5310 ha        1 VH2      0.159000
     33 HAO        -1.6140    0.1260    3.0570 ha        1 VH2      0.169000
     34 HAH        -3.2330   -0.8830    1.4360 ha        1 VH2      0.176000
     35 HAK        -2.6540   -1.0580   -0.9550 ha        1 VH2      0.180000
     36 HAR         0.9020   -2.4670   -1.2450 hn        1 VH2      0.421300
     37 HAA        -3.7450   -4.4360   -1.2830 ho        1 VH2      0.443000
     38 HAE1       -3.1390   -5.9550   -4.7700 hc        1 VH2      0.088200
     39 HAE2       -2.4710   -7.1200   -3.5610 hc        1 VH2      0.088200
     40 HAL        -0.3730   -8.3250   -3.9960 ha        1 VH2      0.142000
     41 HAM        -2.0160   -5.5770   -6.9090 ha        1 VH2      0.142000
     42 HAI         1.1190   -9.2800   -5.7310 ha        1 VH2      0.157000
     43 HAJ        -0.5270   -6.5250   -8.6500 ha        1 VH2      0.157000
     44 HAR2        1.3650   -2.3680   -2.8220 hn        1 VH2      0.421300
@<TRIPOS>BOND
     1    1    2 ar  
     2    1    6 ar  
     3    1   10 ar  
     4    2    3 ar  
     5    2   29 1   
     6    3    4 ar  
     7    3   30 1   
     8    4    5 ar  
     9    4   31 1   
    10    5    6 ar  
    11    5   32 1   
    12    6    7 ar  
    13    7    8 ar  
    14    7   33 1   
    15    8    9 ar  
    16    8   34 1   
    17    9   10 ar  
    18    9   35 1   
    19   10   11 1   
    20   11   12 1   
    21   11   13 1   
    22   14   15 1   
    23   14   36 1   
    24   14   44 1   
    25   15   16 1   
    26   15   17 2   
    27   16   20 1   
    28   17   18 1   
    29   18   19 1   
    30   18   20 2   
    31   19   37 1   
    32   20   21 1   
    33   21   22 1   
    34   21   38 1   
    35   21   39 1   
    36   22   23 ar  
    37   22   28 ar  
    38   23   24 ar  
    39   23   40 1   
    40   24   25 ar  
    41   24   42 1   
    42   25   26 1   
    43   25   27 ar  
    44   27   28 ar  
    45   27   43 1   
    46   28   41 1   
@<TRIPOS>SUBSTRUCTURE
     1 VH2         1 TEMP              0 ****  ****    0 ROOT
