@<TRIPOS>MOLECULE
VH2
   43    46     1     0     0
SMALL
bcc


@<TRIPOS>ATOM
      1 CBA         5.0860   -0.0500    0.1170 ca        1 VH2      0.068000
      2 CAP         5.3460   -0.4840    1.4490 ca        1 VH2     -0.155000
      3 CAG         6.2750    0.1550    2.2320 ca        1 VH2     -0.095000
      4 CAF         7.0010    1.2630    1.7350 ca        1 VH2     -0.136000
      5 CAN         6.7830    1.7000    0.4530 ca        1 VH2     -0.103000
      6 CAZ         5.8280    1.0540   -0.3810 ca        1 VH2     -0.070000
      7 CAO         5.6130    1.5050   -1.7100 ca        1 VH2     -0.038000
      8 CAH         4.6880    0.8850   -2.5140 ca        1 VH2     -0.172000
      9 CAK         3.9400   -0.1990   -2.0120 ca        1 VH2      0.032000
     10 CAW         4.1170   -0.6800   -0.7240 ca        1 VH2     -0.385500
     11 SBB         3.1650   -1.9830   -0.2550 sy        1 VH2      1.516200
     12 OAB         2.5450   -2.5390   -1.3840 o         1 VH2     -0.638800
     13 OAC         3.8830   -2.8910    0.5510 o         1 VH2     -0.638800
     14 NAR         2.0540   -1.2960    0.7670 nh        1 VH2     -0.832800
     15 CAV         1.0880   -0.3700    0.4190 cc        1 VH2      0.687300
     16 SAS        -0.0970    0.1950    1.5580 ss        1 VH2     -0.096300
     17 NAQ         0.9760    0.1640   -0.8180 nd        1 VH2     -0.750000
     18 CAX        -0.1080    1.0460   -0.8170 cd        1 VH2      0.592600
     19 OAA        -0.4850    1.7410   -1.9360 oh        1 VH2     -0.594300
     20 CAY        -0.7950    1.1920    0.3880 cc        1 VH2     -0.237700
     21 CAE        -1.9400    2.0840    0.6270 c3        1 VH2      0.054200
     22 CAU        -3.2580    1.4130    0.4250 ca        1 VH2     -0.068300
     23 CAL        -4.1610    1.2820    1.4850 ca        1 VH2     -0.123500
     24 CAI        -5.4020    0.6780    1.2840 ca        1 VH2     -0.103000
     25 CAT        -5.7490    0.1990    0.0180 ca        1 VH2     -0.027900
     26 BR         -7.4150   -0.6130   -0.2530 br        1 VH2     -0.092100
     27 CAJ        -4.8500    0.3280   -1.0460 ca        1 VH2     -0.103000
     28 CAM        -3.6130    0.9330   -0.8410 ca        1 VH2     -0.123500
     29 HAP         4.8170   -1.3650    1.8490 ha        1 VH2      0.155000
     30 HAG         6.4700   -0.1940    3.2580 ha        1 VH2      0.139000
     31 HAF         7.7380    1.7590    2.3830 ha        1 VH2      0.138000
     32 HAN         7.3440    2.5550    0.0440 ha        1 VH2      0.135000
     33 HAO         6.2020    2.3600   -2.0820 ha        1 VH2      0.138000
     34 HAH         4.5160    1.2230   -3.5460 ha        1 VH2      0.145000
     35 HAK         3.1880   -0.6740   -2.6730 ha        1 VH2      0.170000
     36 HAR         2.0420   -1.5480    1.7300 hn        1 VH2      0.462800
     37 HAA         0.1180    1.5120   -2.6620 ho        1 VH2      0.442000
     38 HAE1       -1.8800    2.5040    1.6690 hc        1 VH2      0.066700
     39 HAE2       -1.8710    2.9540   -0.0890 hc        1 VH2      0.066700
     40 HAL        -3.8970    1.6570    2.4850 ha        1 VH2      0.143000
     41 HAM        -2.8990    1.0360   -1.6750 ha        1 VH2      0.143000
     42 HAI        -6.1010    0.5830    2.1290 ha        1 VH2      0.146000
     43 HAJ        -5.1130   -0.0470   -2.0470 ha        1 VH2      0.146000
@<TRIPOS>BOND
     1    1    2 ar  
     2    1    6 ar  
     3    1   10 ar  
     4    2    3 ar  
     5    2   29 1   
     6    3    4 ar  
     7    3   30 1   
     8    4    5 ar  
     9    4   31 1   
    10    5    6 ar  
    11    5   32 1   
    12    6    7 ar  
    13    7    8 ar  
    14    7   33 1   
    15    8    9 ar  
    16    8   34 1   
    17    9   10 ar  
    18    9   35 1   
    19   10   11 1   
    20   11   12 2   
    21   11   13 2   
    22   11   14 1   
    23   14   15 1   
    24   14   36 1   
    25   15   16 1   
    26   15   17 2   
    27   16   20 1   
    28   17   18 1   
    29   18   19 1   
    30   18   20 2   
    31   19   37 1   
    32   20   21 1   
    33   21   22 1   
    34   21   38 1   
    35   21   39 1   
    36   22   23 ar  
    37   22   28 ar  
    38   23   24 ar  
    39   23   40 1   
    40   24   25 ar  
    41   24   42 1   
    42   25   26 1   
    43   25   27 ar  
    44   27   28 ar  
    45   27   43 1   
    46   28   41 1   
@<TRIPOS>SUBSTRUCTURE
     1 VH2         1 TEMP              0 ****  ****    0 ROOT
