@<TRIPOS>MOLECULE
VHA
   49    52     1     0     0
SMALL
bcc


@<TRIPOS>ATOM
      1 C1          0.2190    0.3580   -0.2280 ca        1 VHA     -0.131000
      2 C2          1.5440   -0.1040   -0.1730 cp        1 VHA     -0.177500
      3 C3          2.0000   -0.8250    0.9400 ca        1 VHA     -0.037300
      4 C4          3.3930   -1.3150    1.0430 c3        1 VHA     -0.056800
      5 C5          1.0940   -1.1020    1.9780 ca        1 VHA     -0.109000
      6 C6         -0.2310   -0.6830    1.9200 ca        1 VHA     -0.129000
      7 C7         -0.6660    0.0540    0.8090 ca        1 VHA      0.112100
      8 O8         -1.9430    0.5710    0.6910 os        1 VHA     -0.342900
      9 C9         -2.9970   -0.3880    0.8990 c3        1 VHA      0.127400
     10 C10        -4.1200   -0.0450   -0.0640 c3        1 VHA     -0.089400
     11 C11        -3.8650   -0.4780   -1.4920 c3        1 VHA     -0.107400
     12 C12        -3.1390    0.5920   -2.2900 c3        1 VHA      0.132400
     13 O13        -3.2520    0.3190   -3.6950 os        1 VHA     -0.335900
     14 C14        -2.2010   -0.3730   -4.2690 ca        1 VHA      0.104100
     15 C15        -0.9180    0.1800   -4.3480 ca        1 VHA     -0.121000
     16 C16        -2.4970   -1.5910   -4.9070 ca        1 VHA     -0.086000
     17 C17        -1.4940   -2.2510   -5.6100 ca        1 VHA     -0.120000
     18 C18        -0.2050   -1.7210   -5.6690 ca        1 VHA     -0.075000
     19 C19         0.0860   -0.5000   -5.0490 ca        1 VHA     -0.112100
     20 S20         1.6270    0.1580   -5.3450 ss        1 VHA     -0.018200
     21 C21         2.3600    0.2790   -3.8250 ca        1 VHA      0.504600
     22 N22         3.6300    0.7890   -3.7880 nb        1 VHA     -0.691000
     23 C23         1.7080   -0.0850   -2.6230 ca        1 VHA     -0.350600
     24 C24         2.3410    0.1530   -1.3830 cp        1 VHA      0.565800
     25 N25         3.6060    0.6560   -1.3200 nb        1 VHA     -0.692000
     26 C26         4.1660    0.9260   -2.5410 ca        1 VHA      0.712900
     27 N27         5.5610    1.4710   -2.4990 n4        1 VHA     -0.817300
     28 H1         -0.1330    0.9680   -1.0740 ha        1 VHA      0.147000
     29 H4          3.4930   -2.0720    1.8610 hc        1 VHA      0.052367
     30 H4A         3.7210   -1.7920    0.0870 hc        1 VHA      0.052367
     31 H4B         4.0820   -0.4630    1.2710 hc        1 VHA      0.052367
     32 H5          1.4430   -1.6690    2.8560 ha        1 VHA      0.153000
     33 H6         -0.9340   -0.9200    2.7330 ha        1 VHA      0.158000
     34 H9         -3.3390   -0.2660    1.9620 h1        1 VHA      0.050700
     35 H9A        -2.6260   -1.4330    0.7420 h1        1 VHA      0.050700
     36 H10        -5.0440   -0.5610    0.3120 hc        1 VHA      0.067700
     37 H10A       -4.3110    1.0610   -0.0250 hc        1 VHA      0.067700
     38 H11        -4.8490   -0.6840   -1.9940 hc        1 VHA      0.056200
     39 H11A       -3.2770   -1.4310   -1.5140 hc        1 VHA      0.056200
     40 H12        -2.0700    0.6810   -1.9710 h1        1 VHA      0.058200
     41 H12A       -3.6510    1.5880   -2.1820 h1        1 VHA      0.058200
     42 H15        -0.7140    1.1530   -3.8740 ha        1 VHA      0.149000
     43 H16        -3.5200   -1.9960   -4.8550 ha        1 VHA      0.167000
     44 H17        -1.7170   -3.2020   -6.1210 ha        1 VHA      0.158000
     45 H18         0.5850   -2.2610   -6.2170 ha        1 VHA      0.154000
     46 H23         0.7080   -0.5480   -2.6410 ha        1 VHA      0.197000
     47 HN27        6.1850    0.7520   -2.1160 hn        1 VHA      0.477800
     48 HN2A        5.5790    2.3000   -1.8930 hn        1 VHA      0.477800
     49 H273        5.8660    1.7260   -3.4470 hn        1 VHA      0.477800
@<TRIPOS>BOND
     1    1    2 ar  
     2    1    7 ar  
     3    1   28 1   
     4    2    3 ar  
     5    2   24 1   
     6    3    4 1   
     7    3    5 ar  
     8    4   29 1   
     9    4   30 1   
    10    4   31 1   
    11    5    6 ar  
    12    5   32 1   
    13    6    7 ar  
    14    6   33 1   
    15    7    8 1   
    16    8    9 1   
    17    9   10 1   
    18    9   34 1   
    19    9   35 1   
    20   10   11 1   
    21   10   36 1   
    22   10   37 1   
    23   11   12 1   
    24   11   38 1   
    25   11   39 1   
    26   12   13 1   
    27   12   40 1   
    28   12   41 1   
    29   13   14 1   
    30   14   15 ar  
    31   14   16 ar  
    32   15   19 ar  
    33   15   42 1   
    34   16   17 ar  
    35   16   43 1   
    36   17   18 ar  
    37   17   44 1   
    38   18   19 ar  
    39   18   45 1   
    40   19   20 1   
    41   20   21 1   
    42   21   22 ar  
    43   21   23 ar  
    44   22   26 ar  
    45   23   24 ar  
    46   23   46 1   
    47   24   25 ar  
    48   25   26 ar  
    49   26   27 1   
    50   27   47 1   
    51   27   48 1   
    52   27   49 1   
@<TRIPOS>SUBSTRUCTURE
     1 VHA         1 TEMP              0 ****  ****    0 ROOT
