@<TRIPOS>MOLECULE
VHA
   48    51     1     0     0
SMALL
bcc


@<TRIPOS>ATOM
      1 C1         -0.0210   -0.0490    0.1930 ca        1 VHA     -0.162000
      2 C2          1.3590   -0.2520    0.0690 cp        1 VHA     -0.133500
      3 C3          2.0870   -0.8320    1.1190 ca        1 VHA     -0.051300
      4 C4          3.5460   -1.0680    1.0220 c3        1 VHA     -0.054800
      5 C5          1.4100   -1.2000    2.2920 ca        1 VHA     -0.118000
      6 C6          0.0410   -1.0120    2.4270 ca        1 VHA     -0.129000
      7 C7         -0.6760   -0.4370    1.3640 ca        1 VHA      0.101100
      8 O8         -2.0280   -0.2230    1.5850 os        1 VHA     -0.336900
      9 C9         -2.8900   -0.5410    0.4860 c3        1 VHA      0.125400
     10 C10        -3.4250    0.7350   -0.1440 c3        1 VHA     -0.108400
     11 C11        -3.9340    0.4860   -1.5490 c3        1 VHA     -0.088400
     12 C12        -2.7750    0.4570   -2.5300 c3        1 VHA      0.121400
     13 O13        -3.2030   -0.2880   -3.6790 os        1 VHA     -0.328900
     14 C14        -2.1750   -0.8340   -4.4260 ca        1 VHA      0.130100
     15 C15        -0.8460   -0.4030   -4.3440 ca        1 VHA     -0.192000
     16 C16        -2.5450   -1.8610   -5.3130 ca        1 VHA     -0.146000
     17 C17        -1.5600   -2.4640   -6.0880 ca        1 VHA     -0.095000
     18 C18        -0.2250   -2.0780   -5.9740 ca        1 VHA     -0.136000
     19 C19         0.1370   -1.0410   -5.1050 ca        1 VHA     -0.014100
     20 S20         1.7680   -0.5740   -5.1600 ss        1 VHA     -0.138200
     21 C21         2.1680    0.0450   -3.6010 ca        1 VHA      0.535600
     22 N22         3.1860    0.9340   -3.5980 nb        1 VHA     -0.739000
     23 C23         1.5410   -0.3780   -2.4120 ca        1 VHA     -0.419600
     24 C24         2.0130    0.1620   -1.1930 cp        1 VHA      0.541800
     25 N25         3.0290    1.0490   -1.1400 nb        1 VHA     -0.742000
     26 C26         3.6100    1.3910   -2.3580 ca        1 VHA      0.874900
     27 N27         4.7390    2.2150   -2.3240 nv        1 VHA     -0.925500
     28 H1         -0.5830    0.4270   -0.6240 ha        1 VHA      0.139000
     29 H4          3.8230   -1.4500    0.0080 hc        1 VHA      0.051367
     30 H4A         3.8830   -1.8160    1.7820 hc        1 VHA      0.051367
     31 H4B         4.1010   -0.1120    1.2000 hc        1 VHA      0.051367
     32 H5          1.9780   -1.6500    3.1220 ha        1 VHA      0.138000
     33 H6         -0.4870   -1.2970    3.3480 ha        1 VHA      0.150000
     34 H9         -2.3670   -1.1830   -0.2690 h1        1 VHA      0.055200
     35 H9A        -3.7250   -1.1290    0.9550 h1        1 VHA      0.055200
     36 H10        -4.2590    1.1340    0.4910 hc        1 VHA      0.059200
     37 H10A       -2.6200    1.5160   -0.1550 hc        1 VHA      0.059200
     38 H11        -4.4930   -0.4860   -1.5970 hc        1 VHA      0.061700
     39 H11A       -4.6510    1.2950   -1.8440 hc        1 VHA      0.061700
     40 H12        -2.4950    1.4910   -2.8630 h1        1 VHA      0.043200
     41 H12A       -1.8840   -0.0430   -2.0640 h1        1 VHA      0.043200
     42 H15        -0.5650    0.4410   -3.6960 ha        1 VHA      0.147000
     43 H16        -3.5980   -2.1700   -5.3790 ha        1 VHA      0.152000
     44 H17        -1.8360   -3.2670   -6.7890 ha        1 VHA      0.139000
     45 H18         0.5480   -2.5870   -6.5710 ha        1 VHA      0.146000
     46 H23         0.7280   -1.1130   -2.4180 ha        1 VHA      0.164000
     47 HN27        4.8790    2.7450   -1.4950 hn        1 VHA      0.429300
     48 HN2A        4.9970    2.6540   -3.1780 hn        1 VHA      0.429300
@<TRIPOS>BOND
     1    1    2 ar  
     2    1    7 ar  
     3    1   28 1   
     4    2    3 ar  
     5    2   24 1   
     6    3    4 1   
     7    3    5 ar  
     8    4   29 1   
     9    4   30 1   
    10    4   31 1   
    11    5    6 ar  
    12    5   32 1   
    13    6    7 ar  
    14    6   33 1   
    15    7    8 1   
    16    8    9 1   
    17    9   10 1   
    18    9   34 1   
    19    9   35 1   
    20   10   11 1   
    21   10   36 1   
    22   10   37 1   
    23   11   12 1   
    24   11   38 1   
    25   11   39 1   
    26   12   13 1   
    27   12   40 1   
    28   12   41 1   
    29   13   14 1   
    30   14   15 ar  
    31   14   16 ar  
    32   15   19 ar  
    33   15   42 1   
    34   16   17 ar  
    35   16   43 1   
    36   17   18 ar  
    37   17   44 1   
    38   18   19 ar  
    39   18   45 1   
    40   19   20 1   
    41   20   21 1   
    42   21   22 ar  
    43   21   23 ar  
    44   22   26 ar  
    45   23   24 ar  
    46   23   46 1   
    47   24   25 ar  
    48   25   26 ar  
    49   26   27 1   
    50   27   47 1   
    51   27   48 1   
@<TRIPOS>SUBSTRUCTURE
     1 VHA         1 TEMP              0 ****  ****    0 ROOT
