@<TRIPOS>MOLECULE
VHA
   48    51     1     0     0
SMALL
bcc


@<TRIPOS>ATOM
      1 C1          1.6990    1.4980   -0.0370 ca        1 VHA     -0.162000
      2 C2          2.3600    0.3040    0.2770 cp        1 VHA     -0.133500
      3 C3          3.5650    0.3290    0.9960 ca        1 VHA     -0.051300
      4 C4          4.2890   -0.9140    1.3530 c3        1 VHA     -0.054800
      5 C5          4.0960    1.5670    1.3870 ca        1 VHA     -0.118000
      6 C6          3.4490    2.7590    1.0900 ca        1 VHA     -0.129000
      7 C7          2.2390    2.7190    0.3770 ca        1 VHA      0.101100
      8 O8          1.6750    3.9450    0.0610 os        1 VHA     -0.336900
      9 C9          0.2540    4.0280    0.2190 c3        1 VHA      0.125400
     10 C10        -0.4230    4.0660   -1.1420 c3        1 VHA     -0.108400
     11 C11        -1.8850    3.6840   -1.0440 c3        1 VHA     -0.088400
     12 C12        -2.0300    2.1730   -0.9850 c3        1 VHA      0.121400
     13 O13        -3.2920    1.8860   -0.3660 os        1 VHA     -0.328900
     14 C14        -3.3780    0.6330    0.2130 ca        1 VHA      0.130100
     15 C15        -2.5080   -0.4210   -0.0920 ca        1 VHA     -0.192000
     16 C16        -4.4250    0.4590    1.1360 ca        1 VHA     -0.146000
     17 C17        -4.5640   -0.7740    1.7650 ca        1 VHA     -0.095000
     18 C18        -3.6700   -1.8130    1.5080 ca        1 VHA     -0.136000
     19 C19        -2.6420   -1.6420    0.5730 ca        1 VHA     -0.014100
     20 S20        -1.7080   -3.0220    0.2490 ss        1 VHA     -0.138200
     21 C21        -0.1410   -2.4730   -0.2150 ca        1 VHA      0.535600
     22 N22         0.5390   -3.3330   -1.0080 nb        1 VHA     -0.739000
     23 C23         0.4260   -1.2650    0.2360 ca        1 VHA     -0.419600
     24 C24         1.7480   -0.9680   -0.1680 cp        1 VHA      0.541800
     25 N25         2.4670   -1.7960   -0.9550 nb        1 VHA     -0.742000
     26 C26         1.8420   -2.9820   -1.3330 ca        1 VHA      0.874900
     27 N27         2.6020   -3.9110   -2.0490 nh        1 VHA     -0.925500
     28 H1          0.7670    1.4740   -0.6200 ha        1 VHA      0.139000
     29 H4          4.8550   -1.2940    0.4650 hc        1 VHA      0.051367
     30 H4A         5.0170   -0.7300    2.1810 hc        1 VHA      0.051367
     31 H4B         3.5770   -1.7100    1.6810 hc        1 VHA      0.051367
     32 H5          5.0450    1.5930    1.9460 ha        1 VHA      0.138000
     33 H6          3.8680    3.7280    1.3940 ha        1 VHA      0.150000
     34 H9         -0.1360    3.1860    0.8480 h1        1 VHA      0.055200
     35 H9A         0.0960    4.9990    0.7640 h1        1 VHA      0.055200
     36 H10        -0.3330    5.1000   -1.5660 hc        1 VHA      0.059200
     37 H10A        0.1130    3.3770   -1.8470 hc        1 VHA      0.059200
     38 H11        -2.3490    4.1430   -0.1310 hc        1 VHA      0.061700
     39 H11A       -2.4430    4.0760   -1.9330 hc        1 VHA      0.061700
     40 H12        -2.0290    1.7220   -2.0110 h1        1 VHA      0.043200
     41 H12A       -1.1990    1.7260   -0.3760 h1        1 VHA      0.043200
     42 H15        -1.7270   -0.3040   -0.8580 ha        1 VHA      0.147000
     43 H16        -5.1110    1.2910    1.3450 ha        1 VHA      0.152000
     44 H17        -5.3810   -0.9260    2.4880 ha        1 VHA      0.139000
     45 H18        -3.7740   -2.7720    2.0380 ha        1 VHA      0.146000
     46 H23        -0.1230   -0.5810    0.8940 ha        1 VHA      0.164000
     47 HN27        2.1010   -4.6250   -2.5250 hn        1 VHA      0.429300
     48 HN2A        3.4160   -3.5660   -2.5020 hn        1 VHA      0.429300
@<TRIPOS>BOND
     1    1    2 ar  
     2    1    7 ar  
     3    1   28 1   
     4    2    3 ar  
     5    2   24 1   
     6    3    4 1   
     7    3    5 ar  
     8    4   29 1   
     9    4   30 1   
    10    4   31 1   
    11    5    6 ar  
    12    5   32 1   
    13    6    7 ar  
    14    6   33 1   
    15    7    8 1   
    16    8    9 1   
    17    9   10 1   
    18    9   34 1   
    19    9   35 1   
    20   10   11 1   
    21   10   36 1   
    22   10   37 1   
    23   11   12 1   
    24   11   38 1   
    25   11   39 1   
    26   12   13 1   
    27   12   40 1   
    28   12   41 1   
    29   13   14 1   
    30   14   15 ar  
    31   14   16 ar  
    32   15   19 ar  
    33   15   42 1   
    34   16   17 ar  
    35   16   43 1   
    36   17   18 ar  
    37   17   44 1   
    38   18   19 ar  
    39   18   45 1   
    40   19   20 1   
    41   20   21 1   
    42   21   22 ar  
    43   21   23 ar  
    44   22   26 ar  
    45   23   24 ar  
    46   23   46 1   
    47   24   25 ar  
    48   25   26 ar  
    49   26   27 1   
    50   27   47 1   
    51   27   48 1   
@<TRIPOS>SUBSTRUCTURE
     1 VHA         1 TEMP              0 ****  ****    0 ROOT
