@<TRIPOS>MOLECULE
VHA
   48    44     1     0     0
SMALL
bcc


@<TRIPOS>ATOM
      1 C1         -0.4870   -1.3710    1.4800 c1        1 VHA     -0.181000
      2 C2          0.9370   -1.3710    1.4800 c1        1 VHA     -0.018000
      3 C3          1.6740   -1.3710    2.6940 c1        1 VHA     -0.054000
      4 C4          3.2030   -1.3760    2.6430 c2        1 VHA     -0.177000
      5 C5          1.0360   -1.3710    3.9190 c2        1 VHA     -0.110000
      6 C6         -0.3210   -1.3710    4.0080 c1        1 VHA     -0.138000
      7 C7         -1.1070   -1.3710    2.8810 c1        1 VHA      0.069000
      8 O8         -2.5560   -1.3150    3.0220 os        1 VHA     -0.211000
      9 C9         -3.1770   -1.0480    1.7020 c3        1 VHA     -0.023000
     10 C10        -2.3180    0.0160    0.9190 c3        1 VHA     -0.197000
     11 C11        -3.2430    0.8040   -0.0880 c3        1 VHA     -0.188000
     12 C12        -2.7400    0.5650   -1.5640 c3        1 VHA     -0.023000
     13 O13        -2.8310    1.8060   -2.3150 os        1 VHA     -0.222000
     14 C14        -1.5260    2.4670   -2.3340 c2        1 VHA      0.055000
     15 C15        -0.3810    1.7370   -2.6260 c2        1 VHA     -0.138000
     16 C16        -1.4400    3.8380   -2.1140 c1        1 VHA     -0.125000
     17 C17        -0.2080    4.4770   -2.1860 c1        1 VHA     -0.111500
     18 C18         0.9360    3.7480   -2.4780 c1        1 VHA     -0.111500
     19 C19         0.8510    2.3780   -2.6980 c1        1 VHA     -0.265000
     20 S20         2.3630    1.4090   -2.9610 ss        1 VHA      0.411000
     21 C21         2.3310   -0.0520   -1.9100 c2        1 VHA     -0.119000
     22 N22         2.8470   -1.2100   -2.3710 n2        1 VHA     -0.216000
     23 C23         1.6940    0.0240   -0.5890 c1        1 VHA     -0.294000
     24 C24         1.6900   -1.2640    0.1370 c1        1 VHA      0.109000
     25 N25         2.2310   -2.3690   -0.4050 n1        1 VHA     -0.218000
     26 C26         2.8010   -2.3490   -1.6380 c1        1 VHA      0.157000
     27 N27         3.3410   -3.5550   -2.1830 n3        1 VHA     -0.323000
     28 H1         -1.0200   -1.3720    0.6620 ha        1 VHA      0.138000
     29 H4          3.5090   -0.7370    1.9720 ha        1 VHA      0.089000
     30 H4A         3.5180   -2.2700    2.4090 ha        1 VHA      0.089000
     31 H4B         3.5580   -1.1260    3.5170 ha        1 VHA      0.089000
     32 H5          1.5700   -1.3710    4.7370 ha        1 VHA      0.138000
     33 H6         -0.7440   -1.3710    4.8870 ha        1 VHA      0.150000
     34 H9         -4.0810   -0.7040    1.8330 h1        1 VHA      0.095500
     35 H9A        -3.2160   -1.8770    1.1880 h1        1 VHA      0.095500
     36 H10        -1.9190    0.6420    1.5520 hc        1 VHA      0.099000
     37 H10A       -1.6110   -0.4390    0.4220 hc        1 VHA      0.099000
     38 H11        -3.2070    1.7580    0.1160 hc        1 VHA      0.098000
     39 H11A       -4.1620    0.4870   -0.0020 hc        1 VHA      0.098000
     40 H12        -3.2970   -0.1150   -1.9900 h1        1 VHA      0.094000
     41 H12A       -1.8130    0.2620   -1.5460 h1        1 VHA      0.094000
     42 H15        -0.4410    0.7750   -2.7810 ha        1 VHA      0.149000
     43 H16        -2.2440    4.3510   -1.9080 ha        1 VHA      0.150000
     44 H17        -0.1470    5.4390   -2.0320 ha        1 VHA      0.144500
     45 H18         1.8010    4.1980   -2.5290 ha        1 VHA      0.144500
     46 H23         1.3130    0.8450   -0.2250 ha        1 VHA      0.162000
     47 HN27        3.2200   -4.3470   -1.7450 hn        1 VHA      0.223500
     48 HN2A        3.8140   -3.5320   -2.9620 hn        1 VHA      0.223500
@<TRIPOS>BOND
     1    1    7 1   
     2    1   28 1   
     3    2    3 1   
     4    2   24 1   
     5    3    5 1   
     6    4   29 1   
     7    4   30 1   
     8    4   31 1   
     9    5    6 1   
    10    5   32 1   
    11    6   33 1   
    12    7    8 1   
    13    8    9 1   
    14    9   10 1   
    15    9   34 1   
    16    9   35 1   
    17   10   11 1   
    18   10   36 1   
    19   10   37 1   
    20   11   12 1   
    21   11   38 1   
    22   11   39 1   
    23   12   13 1   
    24   12   40 1   
    25   12   41 1   
    26   13   14 1   
    27   14   15 1   
    28   14   16 1   
    29   15   19 1   
    30   15   42 1   
    31   16   43 1   
    32   17   18 1   
    33   17   44 1   
    34   18   45 1   
    35   19   20 1   
    36   20   21 1   
    37   21   22 1   
    38   21   23 1   
    39   22   26 1   
    40   23   46 1   
    41   24   25 1   
    42   26   27 1   
    43   27   47 1   
    44   27   48 1   
@<TRIPOS>SUBSTRUCTURE
     1 VHA         1 TEMP              0 ****  ****    0 ROOT
