@<TRIPOS>MOLECULE
VHC
   53    56     1     0     0
SMALL
bcc


@<TRIPOS>ATOM
      1 C1          0.1950   -0.4690   -0.2620 c3        1 VHC     -0.095800
      2 C2          1.6540   -0.2560   -0.1500 ca        1 VHC      0.064700
      3 C3          2.3320   -0.7180    0.9850 ca        1 VHC     -0.145000
      4 C4          3.7060   -0.5330    1.1620 ca        1 VHC      0.056700
      5 C5          4.3580   -1.0570    2.3820 c3        1 VHC     -0.081800
      6 C6          4.4280    0.1470    0.1590 cp        1 VHC     -0.191500
      7 C7          3.7690    0.6180   -0.9780 ca        1 VHC     -0.063000
      8 C8          2.3940    0.4090   -1.1570 ca        1 VHC     -0.217600
      9 C9          1.6860    0.8920   -2.3450 c         1 VHC      0.572700
     10 O10         0.5000    1.1620   -2.4690 o         1 VHC     -0.409100
     11 N11         2.5200    1.0760   -3.6020 n4        1 VHC     -0.679800
     12 C13         1.8370    0.5900   -4.8410 c3        1 VHC      0.112800
     13 C14         2.6600    0.8410   -6.0960 c3        1 VHC     -0.119400
     14 C15         3.9360    0.0210   -6.1710 c3        1 VHC      0.116400
     15 O16         4.7950    0.5100   -5.1270 os        1 VHC     -0.397900
     16 C17         6.0080   -0.1420   -4.9670 ca        1 VHC      0.108100
     17 C18         6.7780    0.3350   -3.8970 ca        1 VHC     -0.139000
     18 C19         6.4620   -1.2000   -5.7660 ca        1 VHC     -0.138000
     19 C20         7.6780   -1.8040   -5.4520 ca        1 VHC     -0.078000
     20 C21         8.4170   -1.3870   -4.3440 ca        1 VHC     -0.079000
     21 C22         7.9710   -0.3130   -3.5640 ca        1 VHC     -0.093100
     22 S23         9.0080    0.2090   -2.3210 ss        1 VHC      0.047800
     23 C24         8.0230    0.3960   -0.9620 ca        1 VHC      0.504600
     24 N25         8.6200    0.9450    0.1420 nb        1 VHC     -0.675000
     25 C26         6.6470    0.0470   -0.9180 ca        1 VHC     -0.362600
     26 C27         5.8860    0.3710    0.2220 cp        1 VHC      0.547800
     27 N28         6.4570    0.9240    1.3290 nb        1 VHC     -0.689000
     28 C29         7.8060    1.1480    1.2180 ca        1 VHC      0.732900
     29 N30         8.4760    1.7090    2.4330 n4        1 VHC     -0.818300
     30 H1         -0.0720   -0.9230   -1.2500 hc        1 VHC      0.084367
     31 H1A        -0.1850   -1.1410    0.5480 hc        1 VHC      0.084367
     32 H1B        -0.3410    0.5140   -0.1830 hc        1 VHC      0.084367
     33 H3          1.7560   -1.2440    1.7690 ha        1 VHC      0.181000
     34 H5          4.5390   -0.2180    3.1040 hc        1 VHC      0.074700
     35 H5A         3.7130   -1.8180    2.8910 hc        1 VHC      0.074700
     36 H5B         5.3380   -1.5370    2.1390 hc        1 VHC      0.074700
     37 H7          4.3610    1.1850   -1.7160 ha        1 VHC      0.129000
     38 HN11        2.7280    2.0760   -3.7160 hn        1 VHC      0.462300
     39 H13         1.6420   -0.5130   -4.7110 hx        1 VHC      0.117700
     40 H13A        0.8430    1.1230   -4.9190 hx        1 VHC      0.117700
     41 H14         2.0160    0.5560   -6.9760 hc        1 VHC      0.107200
     42 H14A        2.9050    1.9330   -6.2000 hc        1 VHC      0.107200
     43 H15         4.4370    0.1740   -7.1640 h1        1 VHC      0.075700
     44 H15A        3.7340   -1.0710   -6.0070 h1        1 VHC      0.075700
     45 H18         6.4410    1.2220   -3.3410 ha        1 VHC      0.140000
     46 H19         5.8830   -1.5520   -6.6340 ha        1 VHC      0.164000
     47 H20         8.0550   -2.6300   -6.0800 ha        1 VHC      0.175000
     48 H21         9.3600   -1.9020   -4.0900 ha        1 VHC      0.173000
     49 H26         6.1750   -0.4930   -1.7520 ha        1 VHC      0.186000
     50 HN30        7.8840    2.4400    2.8490 hn        1 VHC      0.486467
     51 HN3A        8.6110    0.9490    3.1130 hn        1 VHC      0.486467
     52 H112        3.4170    0.5780   -3.5110 hn        1 VHC      0.462300
     53 H303        9.3920    2.1070    2.1800 hn        1 VHC      0.486467
@<TRIPOS>BOND
     1    1    2 1   
     2    1   30 1   
     3    1   31 1   
     4    1   32 1   
     5    2    3 ar  
     6    2    8 ar  
     7    3    4 ar  
     8    3   33 1   
     9    4    5 1   
    10    4    6 ar  
    11    5   34 1   
    12    5   35 1   
    13    5   36 1   
    14    6    7 ar  
    15    6   26 1   
    16    7    8 ar  
    17    7   37 1   
    18    8    9 1   
    19    9   10 2   
    20    9   11 1   
    21   11   12 1   
    22   11   38 1   
    23   11   52 1   
    24   12   13 1   
    25   12   39 1   
    26   12   40 1   
    27   13   14 1   
    28   13   41 1   
    29   13   42 1   
    30   14   15 1   
    31   14   43 1   
    32   14   44 1   
    33   15   16 1   
    34   16   17 ar  
    35   16   18 ar  
    36   17   21 ar  
    37   17   45 1   
    38   18   19 ar  
    39   18   46 1   
    40   19   20 ar  
    41   19   47 1   
    42   20   21 ar  
    43   20   48 1   
    44   21   22 1   
    45   22   23 1   
    46   23   24 ar  
    47   23   25 ar  
    48   24   28 ar  
    49   25   26 ar  
    50   25   49 1   
    51   26   27 ar  
    52   27   28 ar  
    53   28   29 1   
    54   29   50 1   
    55   29   51 1   
    56   29   53 1   
@<TRIPOS>SUBSTRUCTURE
     1 VHC         1 TEMP              0 ****  ****    0 ROOT
