@<TRIPOS>MOLECULE
VHC
   51    54     1     0     0
SMALL
bcc


@<TRIPOS>ATOM
      1 C1          5.1960   -0.2780   -0.7790 c3        1 VHC     -0.066800
      2 C2          3.8960    0.3910   -0.5430 ca        1 VHC      0.003700
      3 C3          3.7950    1.7790   -0.6680 ca        1 VHC     -0.159000
      4 C4          2.5850    2.4560   -0.4680 ca        1 VHC      0.001700
      5 C5          2.5510    3.9270   -0.6390 c3        1 VHC     -0.059800
      6 C6          1.4450    1.7120   -0.1230 cp        1 VHC     -0.178500
      7 C7          1.5380    0.3180    0.0020 ca        1 VHC     -0.079000
      8 C8          2.7460   -0.3470   -0.2070 ca        1 VHC     -0.153600
      9 C9          2.8130   -1.8350   -0.1150 c         1 VHC      0.670700
     10 O10         3.5020   -2.5170   -0.9030 o         1 VHC     -0.613100
     11 N11         2.1150   -2.4440    0.9130 n         1 VHC     -0.559900
     12 C13         2.0450   -3.8760    1.0250 c3        1 VHC      0.089000
     13 C14         0.6970   -4.4040    1.5090 c3        1 VHC     -0.105400
     14 C15        -0.4370   -4.1370    0.5370 c3        1 VHC      0.126400
     15 O16        -0.8820   -2.7970    0.7920 os        1 VHC     -0.342900
     16 C17        -1.9020   -2.3360   -0.0190 ca        1 VHC      0.130100
     17 C18        -2.2310   -0.9830    0.1790 ca        1 VHC     -0.150000
     18 C19        -2.5840   -3.1060   -0.9670 ca        1 VHC     -0.191000
     19 C20        -3.5900   -2.5040   -1.7250 ca        1 VHC     -0.089000
     20 C21        -3.8950   -1.1560   -1.5650 ca        1 VHC     -0.136000
     21 C22        -3.2120   -0.3870   -0.6120 ca        1 VHC     -0.013100
     22 S23        -3.7150    1.2330   -0.4530 ss        1 VHC     -0.143200
     23 C24        -2.2850    2.0860   -0.0050 ca        1 VHC      0.535600
     24 N25        -2.4560    3.2130    0.7190 nb        1 VHC     -0.735000
     25 C26        -1.0110    1.6260   -0.3860 ca        1 VHC     -0.423600
     26 C27         0.1180    2.3150    0.1180 cp        1 VHC      0.546800
     27 N28        -0.0010    3.4430    0.8490 nb        1 VHC     -0.746000
     28 C29        -1.2980    3.8940    1.0780 ca        1 VHC      0.872900
     29 N30        -1.4480    5.1450    1.6870 nh        1 VHC     -0.921500
     30 H1          5.4230   -0.9960    0.0480 hc        1 VHC      0.058700
     31 H1A         5.1470   -0.8680   -1.7310 hc        1 VHC      0.058700
     32 H1B         6.0290    0.4630   -0.8540 hc        1 VHC      0.058700
     33 H3          4.6930    2.3580   -0.9370 ha        1 VHC      0.140000
     34 H5          1.6440    4.2400   -1.2130 hc        1 VHC      0.055033
     35 H5A         2.5250    4.4280    0.3620 hc        1 VHC      0.055033
     36 H5B         3.4560    4.2880   -1.1880 hc        1 VHC      0.055033
     37 H7          0.6290   -0.2540    0.2590 ha        1 VHC      0.143000
     38 HN11        1.4430   -1.9180    1.4220 hn        1 VHC      0.318500
     39 H13         2.2970   -4.3410    0.0270 h1        1 VHC      0.058700
     40 H13A        2.8350   -4.2090    1.7620 h1        1 VHC      0.058700
     41 H14         0.7920   -5.5140    1.6370 hc        1 VHC      0.066200
     42 H14A        0.4410   -3.9620    2.5080 hc        1 VHC      0.066200
     43 H15        -0.0970   -4.2220   -0.5280 h1        1 VHC      0.046700
     44 H15A       -1.2880   -4.8450    0.7220 h1        1 VHC      0.046700
     45 H18        -1.7010   -0.4140    0.9590 ha        1 VHC      0.156000
     46 H19        -2.3410   -4.1650   -1.1240 ha        1 VHC      0.142000
     47 H20        -4.1380   -3.1030   -2.4690 ha        1 VHC      0.139000
     48 H21        -4.6710   -0.6870   -2.1900 ha        1 VHC      0.147000
     49 H26        -0.8880    0.7620   -1.0510 ha        1 VHC      0.168000
     50 HN30       -2.3390    5.3400    2.0820 hn        1 VHC      0.426800
     51 HN3A       -0.6620    5.4890    2.1890 hn        1 VHC      0.426800
@<TRIPOS>BOND
     1    1    2 1   
     2    1   30 1   
     3    1   31 1   
     4    1   32 1   
     5    2    3 ar  
     6    2    8 ar  
     7    3    4 ar  
     8    3   33 1   
     9    4    5 1   
    10    4    6 ar  
    11    5   34 1   
    12    5   35 1   
    13    5   36 1   
    14    6    7 ar  
    15    6   26 1   
    16    7    8 ar  
    17    7   37 1   
    18    8    9 1   
    19    9   10 2   
    20    9   11 1   
    21   11   12 1   
    22   11   38 1   
    23   12   13 1   
    24   12   39 1   
    25   12   40 1   
    26   13   14 1   
    27   13   41 1   
    28   13   42 1   
    29   14   15 1   
    30   14   43 1   
    31   14   44 1   
    32   15   16 1   
    33   16   17 ar  
    34   16   18 ar  
    35   17   21 ar  
    36   17   45 1   
    37   18   19 ar  
    38   18   46 1   
    39   19   20 ar  
    40   19   47 1   
    41   20   21 ar  
    42   20   48 1   
    43   21   22 1   
    44   22   23 1   
    45   23   24 ar  
    46   23   25 ar  
    47   24   28 ar  
    48   25   26 ar  
    49   25   49 1   
    50   26   27 ar  
    51   27   28 ar  
    52   28   29 1   
    53   29   50 1   
    54   29   51 1   
@<TRIPOS>SUBSTRUCTURE
     1 VHC         1 TEMP              0 ****  ****    0 ROOT
