@<TRIPOS>MOLECULE
VHC
   52    55     1     0     0
SMALL
bcc


@<TRIPOS>ATOM
      1 C1          0.1580   -0.5290   -0.1750 c3        1 VHC     -0.085800
      2 C2          1.6160   -0.2980   -0.0790 ca        1 VHC      0.047700
      3 C3          2.2880   -0.6430    1.0990 ca        1 VHC     -0.159000
      4 C4          3.6640   -0.4450    1.2590 ca        1 VHC      0.060700
      5 C5          4.3190   -0.8350    2.5260 c3        1 VHC     -0.080800
      6 C6          4.3900    0.1280    0.1940 cp        1 VHC     -0.150500
      7 C7          3.7350    0.4860   -0.9820 ca        1 VHC     -0.075000
      8 C8          2.3560    0.2650   -1.1450 ca        1 VHC     -0.228600
      9 C9          1.6630    0.6070   -2.3820 c         1 VHC      0.579700
     10 O10         0.4600    0.6840   -2.6010 o         1 VHC     -0.445100
     11 N11         2.5490    0.9000   -3.5840 ny        1 VHC     -0.677800
     12 C13         1.8810    0.6820   -4.8990 c3        1 VHC      0.113800
     13 C14         2.7640    1.0720   -6.0750 c3        1 VHC     -0.117400
     14 C15         4.0240    0.2320   -6.2010 c3        1 VHC      0.116400
     15 O16         4.8510    0.5750   -5.0820 os        1 VHC     -0.397900
     16 C17         6.0500   -0.1210   -4.9650 ca        1 VHC      0.104100
     17 C18         6.7840    0.1990   -3.8110 ca        1 VHC     -0.152000
     18 C19         6.5150   -1.0640   -5.8840 ca        1 VHC     -0.176000
     19 C20         7.7240   -1.7110   -5.6190 ca        1 VHC     -0.079000
     20 C21         8.4350   -1.4440   -4.4540 ca        1 VHC     -0.115000
     21 C22         7.9690   -0.4850   -3.5390 ca        1 VHC     -0.019100
     22 S23         8.9950   -0.1880   -2.2180 ss        1 VHC     -0.085200
     23 C24         7.9730    0.2520   -0.9050 ca        1 VHC      0.545600
     24 N25         8.5680    0.9350    0.0920 nb        1 VHC     -0.732000
     25 C26         6.6070   -0.1010   -0.8590 ca        1 VHC     -0.458600
     26 C27         5.8510    0.3620    0.2380 cp        1 VHC      0.530800
     27 N28         6.3910    1.0430    1.2670 nb        1 VHC     -0.755000
     28 C29         7.7680    1.2760    1.1840 ca        1 VHC      0.914900
     29 N30         8.3800    1.8840    2.2590 nv        1 VHC     -0.940500
     30 H1         -0.2340   -1.0520    0.7330 hc        1 VHC      0.074033
     31 H1A        -0.0870   -1.1510   -1.0740 hc        1 VHC      0.074033
     32 H1B        -0.3810    0.4490   -0.2810 hc        1 VHC      0.074033
     33 H3          1.7120   -1.0850    1.9300 ha        1 VHC      0.167000
     34 H5          5.2910   -1.3540    2.3270 hc        1 VHC      0.076367
     35 H5A         4.5350    0.0820    3.1360 hc        1 VHC      0.076367
     36 H5B         3.6670   -1.5140    3.1280 hc        1 VHC      0.076367
     37 H7          4.3450    0.9650   -1.7660 ha        1 VHC      0.132000
     38 HN11        2.8640    1.8760   -3.5280 hn        1 VHC      0.465300
     39 H13         1.6010   -0.4080   -4.9590 hx        1 VHC      0.111700
     40 H13A        0.9300    1.2920   -4.9130 hx        1 VHC      0.111700
     41 H14         3.0430    2.1580   -6.0160 hc        1 VHC      0.097700
     42 H14A        2.1550    0.9270   -7.0100 hc        1 VHC      0.097700
     43 H15         3.7910   -0.8660   -6.1750 h1        1 VHC      0.068700
     44 H15A        4.5630    0.4830   -7.1540 h1        1 VHC      0.068700
     45 H18         6.4220    0.9950   -3.1430 ha        1 VHC      0.146000
     46 H19         5.9580   -1.2980   -6.8020 ha        1 VHC      0.147000
     47 H20         8.1110   -2.4510   -6.3390 ha        1 VHC      0.156000
     48 H21         9.3730   -1.9850   -4.2440 ha        1 VHC      0.163000
     49 H26         6.1510   -0.7400   -1.6230 ha        1 VHC      0.155000
     50 HN30        7.8280    2.2410    3.0000 hn        1 VHC      0.457300
     51 HN3A        9.3340    2.1470    2.1920 hn        1 VHC      0.457300
     52 H112        3.3920    0.3050   -3.5450 hn        1 VHC      0.465300
@<TRIPOS>BOND
     1    1    2 1   
     2    1   30 1   
     3    1   31 1   
     4    1   32 1   
     5    2    3 ar  
     6    2    8 ar  
     7    3    4 ar  
     8    3   33 1   
     9    4    5 1   
    10    4    6 ar  
    11    5   34 1   
    12    5   35 1   
    13    5   36 1   
    14    6    7 ar  
    15    6   26 1   
    16    7    8 ar  
    17    7   37 1   
    18    8    9 1   
    19    9   10 2   
    20    9   11 1   
    21   11   12 1   
    22   11   38 1   
    23   11   52 1   
    24   12   13 1   
    25   12   39 1   
    26   12   40 1   
    27   13   14 1   
    28   13   41 1   
    29   13   42 1   
    30   14   15 1   
    31   14   43 1   
    32   14   44 1   
    33   15   16 1   
    34   16   17 ar  
    35   16   18 ar  
    36   17   21 ar  
    37   17   45 1   
    38   18   19 ar  
    39   18   46 1   
    40   19   20 ar  
    41   19   47 1   
    42   20   21 ar  
    43   20   48 1   
    44   21   22 1   
    45   22   23 1   
    46   23   24 ar  
    47   23   25 ar  
    48   24   28 ar  
    49   25   26 ar  
    50   25   49 1   
    51   26   27 ar  
    52   27   28 ar  
    53   28   29 1   
    54   29   50 1   
    55   29   51 1   
@<TRIPOS>SUBSTRUCTURE
     1 VHC         1 TEMP              0 ****  ****    0 ROOT
