@<TRIPOS>MOLECULE
VHD
   41    43     1     0     0
SMALL
bcc


@<TRIPOS>ATOM
      1 C1          0.9470    0.8270    0.9220 c3        1 VHD     -0.088600
      2 C2          2.2520    0.4440    0.2490 c3        1 VHD     -0.015400
      3 C3          3.3830    0.4190    1.2600 c3        1 VHD     -0.088600
      4 C4          2.1280   -0.8740   -0.4470 ca        1 VHD     -0.133300
      5 C5          1.8310   -2.0360    0.2650 ca        1 VHD     -0.025000
      6 C6          1.7000   -3.2800   -0.3610 ca        1 VHD     -0.196600
      7 C7          1.4280   -4.4630    0.5020 c         1 VHD      0.690700
      8 O8          2.1550   -4.7230    1.4840 o         1 VHD     -0.604100
      9 N9          0.3630   -5.2900    0.1940 n         1 VHD     -0.457800
     10 C10        -0.0620   -6.3390    1.1260 c3        1 VHD      0.135800
     11 C11        -1.5140   -6.5820    0.8110 ca        1 VHD     -0.103800
     12 C12        -2.4160   -7.4520    1.3940 ca        1 VHD     -0.108500
     13 C13        -3.7280   -7.4820    0.8970 ca        1 VHD     -0.128000
     14 C14        -4.1130   -6.6580   -0.1570 ca        1 VHD     -0.128000
     15 C15        -3.1990   -5.7740   -0.7510 ca        1 VHD     -0.108500
     16 C16        -1.9070   -5.7420   -0.2630 ca        1 VHD     -0.103800
     17 C17        -0.7290   -4.9090   -0.6990 c3        1 VHD      0.135800
     18 C18         1.9020   -3.3650   -1.7500 ca        1 VHD      0.191100
     19 O19         1.7810   -4.5950   -2.3480 oh        1 VHD     -0.485100
     20 C20         2.2130   -2.2180   -2.4950 ca        1 VHD     -0.312000
     21 C21         2.3190   -0.9850   -1.8420 ca        1 VHD      0.182100
     22 O22         2.6140    0.1660   -2.5330 oh        1 VHD     -0.490100
     23 H11C        1.0500    1.8290    1.4050 hc        1 VHD      0.036700
     24 H12C        0.6730    0.0820    1.7070 hc        1 VHD      0.036700
     25 H13C        0.1210    0.8750    0.1730 hc        1 VHD      0.036700
     26 H2          2.4910    1.2350   -0.5210 hc        1 VHD      0.070700
     27 H31C        3.4820    1.4200    1.7440 hc        1 VHD      0.036700
     28 H32C        4.3480    0.1680    0.7580 hc        1 VHD      0.036700
     29 H33C        3.1890   -0.3410    2.0540 hc        1 VHD      0.036700
     30 H5          1.7040   -1.9810    1.3610 ha        1 VHD      0.157000
     31 H101        0.5550   -7.2620    0.9460 h1        1 VHD      0.067200
     32 H102        0.0900   -6.0130    2.1920 h1        1 VHD      0.067200
     33 H171       -0.4340   -5.1430   -1.7600 h1        1 VHD      0.067200
     34 H172       -0.9550   -3.8100   -0.6240 h1        1 VHD      0.067200
     35 H12        -2.1200   -8.1060    2.2260 ha        1 VHD      0.137000
     36 H13        -4.4590   -8.1690    1.3490 ha        1 VHD      0.132500
     37 H14        -5.1460   -6.6970   -0.5320 ha        1 VHD      0.132500
     38 H15        -3.5110   -5.1270   -1.5820 ha        1 VHD      0.137000
     39 H19         2.0610   -4.5100   -3.2720 ho        1 VHD      0.423000
     40 H20         2.3770   -2.2910   -3.5790 ha        1 VHD      0.138000
     41 H22         2.7380   -0.0640   -3.4660 ho        1 VHD      0.422000
@<TRIPOS>BOND
     1    1    2 1   
     2    1   23 1   
     3    1   24 1   
     4    1   25 1   
     5    2    3 1   
     6    2    4 1   
     7    2   26 1   
     8    3   27 1   
     9    3   28 1   
    10    3   29 1   
    11    4    5 ar  
    12    4   21 ar  
    13    5    6 ar  
    14    5   30 1   
    15    6    7 1   
    16    6   18 ar  
    17    7    8 2   
    18    7    9 1   
    19    9   10 1   
    20    9   17 1   
    21   10   11 1   
    22   10   31 1   
    23   10   32 1   
    24   11   12 ar  
    25   11   16 ar  
    26   12   13 ar  
    27   12   35 1   
    28   13   14 ar  
    29   13   36 1   
    30   14   15 ar  
    31   14   37 1   
    32   15   16 ar  
    33   15   38 1   
    34   16   17 1   
    35   17   33 1   
    36   17   34 1   
    37   18   19 1   
    38   18   20 ar  
    39   19   39 1   
    40   20   21 ar  
    41   20   40 1   
    42   21   22 1   
    43   22   41 1   
@<TRIPOS>SUBSTRUCTURE
     1 VHD         1 TEMP              0 ****  ****    0 ROOT
