@<TRIPOS>MOLECULE
VHD
   41    43     1     0     0
SMALL
bcc


@<TRIPOS>ATOM
      1 C1          0.9540    0.8440    0.8500 c3        1 VHD     -0.088600
      2 C2          2.2600    0.4450    0.1900 c3        1 VHD     -0.015400
      3 C3          3.3860    0.4350    1.2070 c3        1 VHD     -0.088600
      4 C4          2.1360   -0.8850   -0.4820 ca        1 VHD     -0.133300
      5 C5          1.8320   -2.0330    0.2500 ca        1 VHD     -0.025000
      6 C6          1.7010   -3.2880   -0.3550 ca        1 VHD     -0.196600
      7 C7          1.4210   -4.4540    0.5290 c         1 VHD      0.690700
      8 O8          2.1430   -4.6970    1.5180 o         1 VHD     -0.604100
      9 N9          0.3560   -5.2840    0.2300 n         1 VHD     -0.457800
     10 C10        -0.0770   -6.3150    1.1790 c3        1 VHD      0.135800
     11 C11        -1.5280   -6.5600    0.8600 ca        1 VHD     -0.103800
     12 C12        -2.4340   -7.4170    1.4540 ca        1 VHD     -0.108500
     13 C13        -3.7440   -7.4540    0.9500 ca        1 VHD     -0.128000
     14 C14        -4.1210   -6.6480   -0.1200 ca        1 VHD     -0.128000
     15 C15        -3.2020   -5.7770   -0.7250 ca        1 VHD     -0.108500
     16 C16        -1.9130   -5.7390   -0.2310 ca        1 VHD     -0.103800
     17 C17        -0.7310   -4.9170   -0.6750 c3        1 VHD      0.135800
     18 C18         1.9100   -3.3980   -1.7400 ca        1 VHD      0.191100
     19 O19         1.7880   -4.6390   -2.3170 oh        1 VHD     -0.485100
     20 C20         2.2280   -2.2660   -2.5050 ca        1 VHD     -0.312000
     21 C21         2.3340   -1.0210   -1.8740 ca        1 VHD      0.182100
     22 O22         2.6350    0.1160   -2.5840 oh        1 VHD     -0.490100
     23 H11C        0.1310    0.8800    0.0960 hc        1 VHD      0.036700
     24 H12C        1.0560    1.8540    1.3150 hc        1 VHD      0.036700
     25 H13C        0.6730    0.1140    1.6470 hc        1 VHD      0.036700
     26 H2          2.5050    1.2220   -0.5930 hc        1 VHD      0.070700
     27 H31C        3.1860   -0.3100    2.0140 hc        1 VHD      0.036700
     28 H32C        3.4860    1.4450    1.6730 hc        1 VHD      0.036700
     29 H33C        4.3530    0.1730    0.7150 hc        1 VHD      0.036700
     30 H5          1.7000   -1.9580    1.3430 ha        1 VHD      0.157000
     31 H101        0.5390   -7.2420    1.0190 h1        1 VHD      0.067200
     32 H102        0.0700   -5.9700    2.2400 h1        1 VHD      0.067200
     33 H171       -0.9550   -3.8160   -0.6220 h1        1 VHD      0.067200
     34 H172       -0.4310   -5.1710   -1.7310 h1        1 VHD      0.067200
     35 H12        -2.1450   -8.0570    2.2990 ha        1 VHD      0.137000
     36 H13        -4.4790   -8.1300    1.4120 ha        1 VHD      0.132500
     37 H14        -5.1520   -6.6910   -0.5000 ha        1 VHD      0.132500
     38 H15        -3.5090   -5.1440   -1.5700 ha        1 VHD      0.137000
     39 H19         2.0740   -4.5720   -3.2400 ho        1 VHD      0.423000
     40 H20         2.3970   -2.3590   -3.5870 ha        1 VHD      0.138000
     41 H22         2.7640   -0.1320   -3.5110 ho        1 VHD      0.422000
@<TRIPOS>BOND
     1    1    2 1   
     2    1   23 1   
     3    1   24 1   
     4    1   25 1   
     5    2    3 1   
     6    2    4 1   
     7    2   26 1   
     8    3   27 1   
     9    3   28 1   
    10    3   29 1   
    11    4    5 ar  
    12    4   21 ar  
    13    5    6 ar  
    14    5   30 1   
    15    6    7 1   
    16    6   18 ar  
    17    7    8 2   
    18    7    9 1   
    19    9   10 1   
    20    9   17 1   
    21   10   11 1   
    22   10   31 1   
    23   10   32 1   
    24   11   12 ar  
    25   11   16 ar  
    26   12   13 ar  
    27   12   35 1   
    28   13   14 ar  
    29   13   36 1   
    30   14   15 ar  
    31   14   37 1   
    32   15   16 ar  
    33   15   38 1   
    34   16   17 1   
    35   17   33 1   
    36   17   34 1   
    37   18   19 1   
    38   18   20 ar  
    39   19   39 1   
    40   20   21 ar  
    41   20   40 1   
    42   21   22 1   
    43   22   41 1   
@<TRIPOS>SUBSTRUCTURE
     1 VHD         1 TEMP              0 ****  ****    0 ROOT
