@<TRIPOS>MOLECULE
VHD
   41    43     1     0     0
SMALL
bcc


@<TRIPOS>ATOM
      1 C1          0.9360    0.8440    0.8610 c3        1 VHD     -0.088600
      2 C2          2.2460    0.4510    0.2030 c3        1 VHD     -0.015400
      3 C3          3.3700    0.4430    1.2230 c3        1 VHD     -0.088600
      4 C4          2.1280   -0.8780   -0.4730 ca        1 VHD     -0.133300
      5 C5          1.8270   -2.0280    0.2560 ca        1 VHD     -0.025000
      6 C6          1.7020   -3.2830   -0.3520 ca        1 VHD     -0.196600
      7 C7          1.4240   -4.4520    0.5280 c         1 VHD      0.690700
      8 O8          2.1440   -4.6950    1.5190 o         1 VHD     -0.604100
      9 N9          0.3630   -5.2850    0.2250 n         1 VHD     -0.457800
     10 C10        -0.0680   -6.3200    1.1710 c3        1 VHD      0.135800
     11 C11        -1.5170   -6.5700    0.8490 ca        1 VHD     -0.103800
     12 C12        -2.4220   -7.4320    1.4390 ca        1 VHD     -0.108500
     13 C13        -3.7300   -7.4720    0.9320 ca        1 VHD     -0.128000
     14 C14        -4.1080   -6.6650   -0.1370 ca        1 VHD     -0.128000
     15 C15        -3.1910   -5.7890   -0.7380 ca        1 VHD     -0.108500
     16 C16        -1.9030   -5.7480   -0.2410 ca        1 VHD     -0.103800
     17 C17        -0.7240   -4.9200   -0.6810 c3        1 VHD      0.135800
     18 C18         1.9140   -3.3890   -1.7370 ca        1 VHD      0.191100
     19 O19         1.7980   -4.6280   -2.3170 oh        1 VHD     -0.485100
     20 C20         2.2300   -2.2540   -2.4990 ca        1 VHD     -0.312000
     21 C21         2.3300   -1.0100   -1.8640 ca        1 VHD      0.182100
     22 O22         2.6280    0.1300   -2.5710 oh        1 VHD     -0.490100
     23 H11C        1.0340    1.8530    1.3290 hc        1 VHD      0.036700
     24 H12C        0.6570    0.1110    1.6560 hc        1 VHD      0.036700
     25 H13C        0.1160    0.8790    0.1060 hc        1 VHD      0.036700
     26 H2          2.4900    1.2300   -0.5770 hc        1 VHD      0.070700
     27 H31C        4.3390    0.1850    0.7320 hc        1 VHD      0.036700
     28 H32C        3.1710   -0.3050    2.0270 hc        1 VHD      0.036700
     29 H33C        3.4650    1.4520    1.6910 hc        1 VHD      0.036700
     30 H5          1.6920   -1.9560    1.3490 ha        1 VHD      0.157000
     31 H101        0.0760   -5.9770    2.2330 h1        1 VHD      0.067200
     32 H102        0.5520   -7.2440    1.0100 h1        1 VHD      0.067200
     33 H171       -0.9510   -3.8200   -0.6260 h1        1 VHD      0.067200
     34 H172       -0.4200   -5.1700   -1.7370 h1        1 VHD      0.067200
     35 H12        -2.1310   -8.0720    2.2830 ha        1 VHD      0.137000
     36 H13        -4.4630   -8.1520    1.3900 ha        1 VHD      0.132500
     37 H14        -5.1390   -6.7110   -0.5200 ha        1 VHD      0.132500
     38 H15        -3.4980   -5.1560   -1.5820 ha        1 VHD      0.137000
     39 H19         2.0850   -4.5580   -3.2400 ho        1 VHD      0.423000
     40 H20         2.4010   -2.3430   -3.5800 ha        1 VHD      0.138000
     41 H22         2.7590   -0.1150   -3.4990 ho        1 VHD      0.422000
@<TRIPOS>BOND
     1    1    2 1   
     2    1   23 1   
     3    1   24 1   
     4    1   25 1   
     5    2    3 1   
     6    2    4 1   
     7    2   26 1   
     8    3   27 1   
     9    3   28 1   
    10    3   29 1   
    11    4    5 ar  
    12    4   21 ar  
    13    5    6 ar  
    14    5   30 1   
    15    6    7 1   
    16    6   18 ar  
    17    7    8 2   
    18    7    9 1   
    19    9   10 1   
    20    9   17 1   
    21   10   11 1   
    22   10   31 1   
    23   10   32 1   
    24   11   12 ar  
    25   11   16 ar  
    26   12   13 ar  
    27   12   35 1   
    28   13   14 ar  
    29   13   36 1   
    30   14   15 ar  
    31   14   37 1   
    32   15   16 ar  
    33   15   38 1   
    34   16   17 1   
    35   17   33 1   
    36   17   34 1   
    37   18   19 1   
    38   18   20 ar  
    39   19   39 1   
    40   20   21 ar  
    41   20   40 1   
    42   21   22 1   
    43   22   41 1   
@<TRIPOS>SUBSTRUCTURE
     1 VHD         1 TEMP              0 ****  ****    0 ROOT
