@<TRIPOS>MOLECULE
VHD
   41    43     1     0     0
SMALL
bcc


@<TRIPOS>ATOM
      1 C1          1.8610    3.2350    0.8290 c3        1 VHD     -0.092600
      2 C2          3.0350    2.3420    0.4740 c3        1 VHD     -0.015400
      3 C3          4.0420    2.3390    1.6110 c3        1 VHD     -0.092600
      4 C4          2.6300    0.9470    0.1200 ca        1 VHD     -0.199300
      5 C5          1.4150    0.4120    0.5420 ca        1 VHD     -0.024000
      6 C6          1.0160   -0.8880    0.2070 ca        1 VHD     -0.263600
      7 C7         -0.2840   -1.4310    0.6720 c         1 VHD      0.675700
      8 O8         -0.3810   -2.6140    1.0720 o         1 VHD     -0.624100
      9 N9         -1.3970   -0.5930    0.7250 n         1 VHD     -0.442800
     10 C10        -2.7160   -1.1860    1.0000 c3        1 VHD      0.120800
     11 C11        -3.6910   -0.4270    0.1410 ca        1 VHD     -0.107800
     12 C12        -5.0530   -0.5950   -0.0170 ca        1 VHD     -0.105500
     13 C13        -5.7310    0.2650   -0.8950 ca        1 VHD     -0.126000
     14 C14        -5.0510    1.2600   -1.5900 ca        1 VHD     -0.126000
     15 C15        -3.6670    1.4330   -1.4310 ca        1 VHD     -0.105500
     16 C16        -2.9980    0.5880   -0.5660 ca        1 VHD     -0.107800
     17 C17        -1.5400    0.5440   -0.1930 c3        1 VHD      0.120800
     18 C18         1.8970   -1.7000   -0.5390 ca        1 VHD      0.219100
     19 O19         1.6380   -2.9910   -0.9050 oh        1 VHD     -0.499100
     20 C20         3.1240   -1.1870   -0.9880 ca        1 VHD     -0.209000
     21 C21         3.4800    0.1240   -0.6570 ca        1 VHD      0.184100
     22 O22         4.6990    0.5290   -1.1430 oh        1 VHD     -0.494100
     23 H11C        2.2000    4.2990    0.8730 hc        1 VHD      0.039867
     24 H12C        1.0550    3.1490    0.0610 hc        1 VHD      0.039867
     25 H13C        1.4390    2.9650    1.8270 hc        1 VHD      0.039867
     26 H2          3.5250    2.8010   -0.4370 hc        1 VHD      0.042700
     27 H31C        3.5780    1.9300    2.5410 hc        1 VHD      0.039867
     28 H32C        4.9260    1.7060    1.3550 hc        1 VHD      0.039867
     29 H33C        4.3910    3.3790    1.8160 hc        1 VHD      0.039867
     30 H5          0.7480    1.0240    1.1720 ha        1 VHD      0.147000
     31 H101       -2.7250   -2.2880    0.7700 h1        1 VHD      0.070950
     32 H102       -2.9440   -1.0470    2.0930 h1        1 VHD      0.070950
     33 H171       -1.2450    1.4860    0.3490 h1        1 VHD      0.070950
     34 H172       -0.8830    0.4320   -1.0990 h1        1 VHD      0.070950
     35 H12        -5.5980   -1.3790    0.5260 ha        1 VHD      0.138500
     36 H13        -6.8160    0.1450   -1.0340 ha        1 VHD      0.135000
     37 H14        -5.6000    1.9230   -2.2750 ha        1 VHD      0.135000
     38 H15        -3.1370    2.2210   -1.9830 ha        1 VHD      0.138500
     39 H19         0.8850   -3.3310   -0.3910 ho        1 VHD      0.457000
     40 H20         3.8010   -1.8160   -1.5830 ha        1 VHD      0.173000
     41 H22         4.9070    1.4040   -0.7840 ho        1 VHD      0.427000
@<TRIPOS>BOND
     1    1    2 1   
     2    1   23 1   
     3    1   24 1   
     4    1   25 1   
     5    2    3 1   
     6    2    4 1   
     7    2   26 1   
     8    3   27 1   
     9    3   28 1   
    10    3   29 1   
    11    4    5 ar  
    12    4   21 ar  
    13    5    6 ar  
    14    5   30 1   
    15    6    7 1   
    16    6   18 ar  
    17    7    8 2   
    18    7    9 1   
    19    9   10 1   
    20    9   17 1   
    21   10   11 1   
    22   10   31 1   
    23   10   32 1   
    24   11   12 ar  
    25   11   16 ar  
    26   12   13 ar  
    27   12   35 1   
    28   13   14 ar  
    29   13   36 1   
    30   14   15 ar  
    31   14   37 1   
    32   15   16 ar  
    33   15   38 1   
    34   16   17 1   
    35   17   33 1   
    36   17   34 1   
    37   18   19 1   
    38   18   20 ar  
    39   19   39 1   
    40   20   21 ar  
    41   20   40 1   
    42   21   22 1   
    43   22   41 1   
@<TRIPOS>SUBSTRUCTURE
     1 VHD         1 TEMP              0 ****  ****    0 ROOT
