@<TRIPOS>MOLECULE
VHE
   50    52     1     0     0
SMALL
bcc


@<TRIPOS>ATOM
      1 C1         -1.6980   -1.5890    0.0170 cp        1 VHE     -0.178500
      2 C2         -2.2390   -2.8200    0.4130 ca        1 VHE      0.001700
      3 C3         -1.3970   -3.9390    0.4570 ca        1 VHE     -0.155000
      4 C4         -0.0400   -3.8610    0.1280 ca        1 VHE      0.001700
      5 C5          0.4920   -2.6210   -0.2690 ca        1 VHE     -0.159600
      6 C6         -0.3450   -1.5100   -0.3470 ca        1 VHE     -0.082000
      7 C7          1.9360   -2.4710   -0.6160 c         1 VHE      0.668700
      8 C8          0.8120   -5.0710    0.1890 c3        1 VHE     -0.068800
      9 O9          2.5640   -3.3200   -1.2780 o         1 VHE     -0.594100
     10 N10         2.5560   -1.2980   -0.2020 n         1 VHE     -0.572900
     11 C11        -3.6650   -2.9590    0.7860 c3        1 VHE     -0.061800
     12 C12        -2.4310   -0.3070   -0.0090 cp        1 VHE      0.554800
     13 C13        -1.7190    0.8050    0.5060 ca        1 VHE     -0.458600
     14 C14        -2.2160    2.0900    0.2210 ca        1 VHE      0.561600
     15 N15        -3.4320    2.2730   -0.3380 nb        1 VHE     -0.740000
     16 C16        -4.1490    1.1210   -0.6430 ca        1 VHE      0.884900
     17 N17        -3.6470   -0.1820   -0.5720 nb        1 VHE     -0.745000
     18 N18        -5.4780    1.2740   -1.0400 nh        1 VHE     -0.924500
     19 C19         3.9730   -1.1150   -0.3860 c3        1 VHE      0.085000
     20 C20         4.5730    0.0370    0.4130 c3        1 VHE     -0.114400
     21 C21         4.4440    1.3970   -0.2730 c3        1 VHE      0.088000
     22 N22         3.1230    1.9590   -0.2790 n         1 VHE     -0.578900
     23 C23         2.8260    3.1740    0.3070 c         1 VHE      0.657100
     24 C24         1.4170    3.7290    0.1420 c3        1 VHE     -0.145400
     25 O25         3.6830    3.8120    0.9490 o         1 VHE     -0.600100
     26 C26         0.3780    2.7410    0.5960 c3        1 VHE     -0.048300
     27 S27        -1.2370    3.4760    0.5030 ss        1 VHE     -0.219400
     28 H3         -1.8170   -4.9110    0.7630 ha        1 VHE      0.142000
     29 H6          0.0500   -0.5480   -0.7130 ha        1 VHE      0.137000
     30 H8          1.1680   -5.3320   -0.8420 hc        1 VHE      0.059367
     31 H8A         1.7180   -4.8790    0.8180 hc        1 VHE      0.059367
     32 H8B         0.2570   -5.9420    0.6130 hc        1 VHE      0.059367
     33 HN10        2.1110   -0.7510    0.4970 hn        1 VHE      0.304500
     34 H11        -4.3030   -2.9120   -0.1330 hc        1 VHE      0.056367
     35 H11A       -3.8560   -3.9340    1.2990 hc        1 VHE      0.056367
     36 H11B       -3.9780   -2.1310    1.4690 hc        1 VHE      0.056367
     37 H13        -0.8210    0.6380    1.1110 ha        1 VHE      0.155000
     38 HN18       -5.7590    2.1830   -1.3290 hn        1 VHE      0.431800
     39 HN1A       -5.8980    0.5080   -1.5120 hn        1 VHE      0.431800
     40 H19         4.5070   -2.0710   -0.1030 h1        1 VHE      0.053700
     41 H19A        4.1610   -0.9520   -1.4870 h1        1 VHE      0.053700
     42 H20         4.1460    0.0790    1.4490 hc        1 VHE      0.061200
     43 H20A        5.6730   -0.1700    0.5170 hc        1 VHE      0.061200
     44 H21         5.1360    2.1210    0.2520 h1        1 VHE      0.063700
     45 H21A        4.7950    1.2920   -1.3410 h1        1 VHE      0.063700
     46 HN22        2.4330    1.4940   -0.8170 hn        1 VHE      0.311500
     47 H24         1.3570    4.6720    0.7510 hc        1 VHE      0.088700
     48 H24A        1.2600    4.0060   -0.9340 hc        1 VHE      0.088700
     49 H26         0.4160    1.8290   -0.0530 h1        1 VHE      0.074700
     50 H26A        0.5840    2.4250    1.6490 h1        1 VHE      0.074700
@<TRIPOS>BOND
     1    1    2 ar  
     2    1    6 ar  
     3    1   12 1   
     4    2    3 ar  
     5    2   11 1   
     6    3    4 ar  
     7    3   28 1   
     8    4    5 ar  
     9    4    8 1   
    10    5    6 ar  
    11    5    7 1   
    12    6   29 1   
    13    7    9 2   
    14    7   10 1   
    15    8   30 1   
    16    8   31 1   
    17    8   32 1   
    18   10   19 1   
    19   10   33 1   
    20   11   34 1   
    21   11   35 1   
    22   11   36 1   
    23   12   13 ar  
    24   12   17 ar  
    25   13   14 ar  
    26   13   37 1   
    27   14   15 ar  
    28   14   27 1   
    29   15   16 ar  
    30   16   17 ar  
    31   16   18 1   
    32   18   38 1   
    33   18   39 1   
    34   19   20 1   
    35   19   40 1   
    36   19   41 1   
    37   20   21 1   
    38   20   42 1   
    39   20   43 1   
    40   21   22 1   
    41   21   44 1   
    42   21   45 1   
    43   22   23 1   
    44   22   46 1   
    45   23   24 1   
    46   23   25 2   
    47   24   26 1   
    48   24   47 1   
    49   24   48 1   
    50   26   27 1   
    51   26   49 1   
    52   26   50 1   
@<TRIPOS>SUBSTRUCTURE
     1 VHE         1 TEMP              0 ****  ****    0 ROOT
