@<TRIPOS>MOLECULE
VHE
   53    55     1     0     0
SMALL
bcc


@<TRIPOS>ATOM
      1 C1          0.1080    0.1460    0.0090 cp        1 VHE     -0.196500
      2 C2          1.4820   -0.1900    0.0050 ca        1 VHE      0.071700
      3 C3          2.1740   -0.2050    1.2230 ca        1 VHE     -0.136000
      4 C4          1.5550    0.0860    2.4460 ca        1 VHE      0.069700
      5 C5          0.1760    0.3800    2.4340 ca        1 VHE     -0.235600
      6 C6         -0.5270    0.4230    1.2230 ca        1 VHE     -0.070000
      7 C7         -0.5270    0.7200    3.6740 c         1 VHE      0.587700
      8 C8          2.3640    0.0750    3.6830 c3        1 VHE     -0.104800
      9 O9         -0.3930    1.6300    4.4650 o         1 VHE     -0.344100
     10 N10        -1.6470   -0.2980    4.0230 n4        1 VHE     -0.703800
     11 C11         2.2200   -0.5330   -1.2300 c3        1 VHE     -0.088800
     12 C12        -0.7220    0.2260   -1.2090 cp        1 VHE      0.577800
     13 C13        -2.0690   -0.2050   -1.1230 ca        1 VHE     -0.381600
     14 C14        -2.9320   -0.0070   -2.2230 ca        1 VHE      0.521600
     15 N15        -2.4500    0.4970   -3.3970 nb        1 VHE     -0.646000
     16 C16        -1.1200    0.8100   -3.4070 ca        1 VHE      0.752900
     17 N17        -0.2250    0.7380   -2.3660 nb        1 VHE     -0.666000
     18 N18        -0.5780    1.3170   -4.7050 n4        1 VHE     -0.819300
     19 C19        -2.8960    0.3380    4.5330 c3        1 VHE      0.101800
     20 C20        -4.1870   -0.3890    4.1570 c3        1 VHE     -0.137400
     21 C21        -4.7970    0.2230    2.8970 c3        1 VHE      0.100800
     22 N22        -6.0330   -0.4570    2.4160 n4        1 VHE     -0.692800
     23 C23        -6.6320    0.2840    1.2060 c         1 VHE      0.546100
     24 C24        -6.3520   -0.2980   -0.1510 c3        1 VHE     -0.146400
     25 O25        -7.2920    1.2620    1.4920 o         1 VHE     -0.334100
     26 C26        -4.8750   -0.4440   -0.4210 c3        1 VHE     -0.106300
     27 S27        -4.5990   -0.3540   -2.1680 ss        1 VHE     -0.005400
     28 H3          3.2540   -0.4480    1.2250 ha        1 VHE      0.196000
     29 H6         -1.5860    0.7280    1.2280 ha        1 VHE      0.111000
     30 H8          2.9120   -0.8980    3.7880 hc        1 VHE      0.090700
     31 H8A         3.1370    0.8900    3.6360 hc        1 VHE      0.090700
     32 H8B         1.7480    0.2400    4.6010 hc        1 VHE      0.090700
     33 HN10       -1.8400   -0.8620    3.1920 hn        1 VHE      0.457300
     34 H11         3.1840   -1.0550   -0.9940 hc        1 VHE      0.083367
     35 H11A        2.4700    0.4020   -1.7970 hc        1 VHE      0.083367
     36 H11B        1.6180   -1.2060   -1.8890 hc        1 VHE      0.083367
     37 H13        -2.4050   -0.7290   -0.2200 ha        1 VHE      0.152000
     38 HN18       -0.0030    0.5780   -5.1360 hn        1 VHE      0.496800
     39 HN1A        0.0070    2.1490   -4.5380 hn        1 VHE      0.496800
     40 H19        -2.9210    1.4070    4.1660 hx        1 VHE      0.137200
     41 H19A       -2.8180    0.3860    5.6640 hx        1 VHE      0.137200
     42 H20        -4.0240   -1.4930    4.0350 hc        1 VHE      0.111200
     43 H20A       -4.9000   -0.2620    5.0230 hc        1 VHE      0.111200
     44 H21        -4.0430    0.1910    2.0610 hx        1 VHE      0.105200
     45 H21A       -5.0710    1.3040    3.0990 hx        1 VHE      0.105200
     46 HN22       -5.8340   -1.4290    2.1620 hn        1 VHE      0.470300
     47 H24        -6.8870   -1.2880   -0.2470 hc        1 VHE      0.153700
     48 H24A       -6.8320    0.4040   -0.9030 hc        1 VHE      0.153700
     49 H26        -4.3070    0.3870    0.0740 h1        1 VHE      0.071200
     50 H26A       -4.5020   -1.4180   -0.0150 h1        1 VHE      0.071200
     51 H102       -1.2720   -0.9280    4.7470 hn        1 VHE      0.457300
     52 H183       -1.3510    1.5630   -5.3450 hn        1 VHE      0.496800
     53 H222       -6.7320   -0.4580    3.1760 hn        1 VHE      0.470300
@<TRIPOS>BOND
     1    1    2 ar  
     2    1    6 ar  
     3    1   12 1   
     4    2    3 ar  
     5    2   11 1   
     6    3    4 ar  
     7    3   28 1   
     8    4    5 ar  
     9    4    8 1   
    10    5    6 ar  
    11    5    7 1   
    12    6   29 1   
    13    7    9 2   
    14    7   10 1   
    15    8   30 1   
    16    8   31 1   
    17    8   32 1   
    18   10   19 1   
    19   10   33 1   
    20   10   51 1   
    21   11   34 1   
    22   11   35 1   
    23   11   36 1   
    24   12   13 ar  
    25   12   17 ar  
    26   13   14 ar  
    27   13   37 1   
    28   14   15 ar  
    29   14   27 1   
    30   15   16 ar  
    31   16   17 ar  
    32   16   18 1   
    33   18   38 1   
    34   18   39 1   
    35   18   52 1   
    36   19   20 1   
    37   19   40 1   
    38   19   41 1   
    39   20   21 1   
    40   20   42 1   
    41   20   43 1   
    42   21   22 1   
    43   21   44 1   
    44   21   45 1   
    45   22   23 1   
    46   22   46 1   
    47   22   53 1   
    48   23   24 1   
    49   23   25 2   
    50   24   26 1   
    51   24   47 1   
    52   24   48 1   
    53   26   27 1   
    54   26   49 1   
    55   26   50 1   
@<TRIPOS>SUBSTRUCTURE
     1 VHE         1 TEMP              0 ****  ****    0 ROOT
