@<TRIPOS>MOLECULE
VHE
   52    54     1     0     0
SMALL
bcc


@<TRIPOS>ATOM
      1 C1          0.0710    0.0170    0.2210 cp        1 VHE     -0.154500
      2 C2          1.4700   -0.1410    0.0740 ca        1 VHE      0.077700
      3 C3          2.2740   -0.0950    1.2190 ca        1 VHE     -0.149000
      4 C4          1.7440    0.0960    2.5000 ca        1 VHE      0.060700
      5 C5          0.3400    0.1970    2.6350 ca        1 VHE     -0.244600
      6 C6         -0.4750    0.1580    1.4910 ca        1 VHE     -0.081000
      7 C7         -0.2250    0.3940    3.9590 c         1 VHE      0.595700
      8 C8          2.6470    0.1930    3.6670 c3        1 VHE     -0.096800
      9 O9          0.1630    1.0070    4.9360 o         1 VHE     -0.389100
     10 N10        -1.5540   -0.3760    4.2110 ny        1 VHE     -0.697800
     11 C11         2.1070   -0.3530   -1.2430 c3        1 VHE     -0.087800
     12 C12        -0.8600    0.0790   -0.9290 cp        1 VHE      0.546800
     13 C13        -2.0810   -0.6340   -0.8470 ca        1 VHE     -0.474600
     14 C14        -2.9850   -0.4860   -1.9190 ca        1 VHE      0.540600
     15 N15        -2.7260    0.2780   -2.9900 nb        1 VHE     -0.715000
     16 C16        -1.4740    0.9100   -3.0240 ca        1 VHE      0.923900
     17 N17        -0.5360    0.8470   -1.9840 nb        1 VHE     -0.740000
     18 N18        -1.1650    1.6630   -4.1250 nv        1 VHE     -0.918500
     19 C19        -2.7480    0.4730    3.9570 c3        1 VHE      0.107800
     20 C20        -3.9880   -0.3230    3.5430 c3        1 VHE     -0.134400
     21 C21        -4.8870    0.5690    2.6870 c3        1 VHE      0.108800
     22 N22        -6.1350   -0.1100    2.2390 ny        1 VHE     -0.693800
     23 C23        -6.6790    0.5060    0.9370 c         1 VHE      0.548100
     24 C24        -5.9380    0.2050   -0.3290 c3        1 VHE     -0.156400
     25 O25        -7.6720    1.1880    1.0990 o         1 VHE     -0.361100
     26 C26        -5.1520   -1.0810   -0.3590 c3        1 VHE     -0.091300
     27 S27        -4.4820   -1.3580   -1.9610 ss        1 VHE     -0.139400
     28 H3          3.3690   -0.2010    1.1090 ha        1 VHE      0.182000
     29 H6         -1.5660    0.2780    1.5760 ha        1 VHE      0.104000
     30 H8          2.2790   -0.4300    4.5200 hc        1 VHE      0.081700
     31 H8A         3.6840   -0.1400    3.4100 hc        1 VHE      0.081700
     32 H8B         2.6990    1.2590    4.0160 hc        1 VHE      0.081700
     33 HN10       -1.5610   -1.1980    3.5990 hn        1 VHE      0.459800
     34 H11         2.2090    0.6290   -1.7770 hc        1 VHE      0.084367
     35 H11A        3.1300   -0.7950   -1.1320 hc        1 VHE      0.084367
     36 H11B        1.4940   -1.0370   -1.8830 hc        1 VHE      0.084367
     37 H13        -2.2660   -1.3360   -0.0290 ha        1 VHE      0.134000
     38 HN18       -0.2810    2.1090   -4.1940 hn        1 VHE      0.471800
     39 HN1A       -1.7920    1.6980   -4.8960 hn        1 VHE      0.471800
     40 H19        -2.9650    1.0590    4.9000 hx        1 VHE      0.122200
     41 H19A       -2.4770    1.2200    3.1530 hx        1 VHE      0.122200
     42 H20        -4.5340   -0.6680    4.4630 hc        1 VHE      0.088700
     43 H20A       -3.7040   -1.2380    2.9530 hc        1 VHE      0.088700
     44 H21        -5.1830    1.4940    3.2640 hx        1 VHE      0.119200
     45 H21A       -4.3200    0.8930    1.7640 hx        1 VHE      0.119200
     46 HN22       -6.8540   -0.0280    2.9730 hn        1 VHE      0.464300
     47 H24        -6.7140    0.1950   -1.1570 hc        1 VHE      0.145700
     48 H24A       -5.2660    1.0900   -0.5340 hc        1 VHE      0.145700
     49 H26        -5.8300   -1.9600   -0.1890 h1        1 VHE      0.076700
     50 H26A       -4.3530   -1.0880    0.4220 h1        1 VHE      0.076700
     51 H102       -1.5650   -0.6950    5.1880 hn        1 VHE      0.459800
     52 H222       -5.9570   -1.1060    2.0720 hn        1 VHE      0.464300
@<TRIPOS>BOND
     1    1    2 ar  
     2    1    6 ar  
     3    1   12 1   
     4    2    3 ar  
     5    2   11 1   
     6    3    4 ar  
     7    3   28 1   
     8    4    5 ar  
     9    4    8 1   
    10    5    6 ar  
    11    5    7 1   
    12    6   29 1   
    13    7    9 2   
    14    7   10 1   
    15    8   30 1   
    16    8   31 1   
    17    8   32 1   
    18   10   19 1   
    19   10   33 1   
    20   10   51 1   
    21   11   34 1   
    22   11   35 1   
    23   11   36 1   
    24   12   13 ar  
    25   12   17 ar  
    26   13   14 ar  
    27   13   37 1   
    28   14   15 ar  
    29   14   27 1   
    30   15   16 ar  
    31   16   17 ar  
    32   16   18 1   
    33   18   38 1   
    34   18   39 1   
    35   19   20 1   
    36   19   40 1   
    37   19   41 1   
    38   20   21 1   
    39   20   42 1   
    40   20   43 1   
    41   21   22 1   
    42   21   44 1   
    43   21   45 1   
    44   22   23 1   
    45   22   46 1   
    46   22   52 1   
    47   23   24 1   
    48   23   25 2   
    49   24   26 1   
    50   24   47 1   
    51   24   48 1   
    52   26   27 1   
    53   26   49 1   
    54   26   50 1   
@<TRIPOS>SUBSTRUCTURE
     1 VHE         1 TEMP              0 ****  ****    0 ROOT
