@<TRIPOS>MOLECULE
VHH
   37    38     1     0     0
SMALL
bcc


@<TRIPOS>ATOM
      1 N1         -0.1570    0.4920    0.0760 n         1 VHH     -0.433800
      2 S1         -0.0730   -2.5800    2.1430 ss        1 VHH     -0.270200
      3 C2          1.1350   -1.4700    2.8460 c3        1 VHH      0.023400
      4 N2          1.9810   -0.0580    0.8990 n         1 VHH     -0.416800
      5 C3          1.2380    0.3860   -0.2330 c         1 VHH      0.761500
      6 O3          1.7280    0.6640   -1.3430 o         1 VHH     -0.635500
      7 C4          1.0800   -0.1660    2.0500 c3        1 VHH      0.071700
      8 C5         -0.3800    0.0010    1.4370 c3        1 VHH      0.067700
      9 C6         -1.1570   -1.3010    1.5990 c3        1 VHH     -0.048300
     10 C7          2.4880   -2.1320    2.9390 c3        1 VHH     -0.065400
     11 C8          2.4900   -3.2680    3.9430 c3        1 VHH     -0.082400
     12 C9          3.8920   -3.8040    4.1510 c3        1 VHH     -0.067400
     13 C10         3.9330   -4.8910    5.1970 c3        1 VHH     -0.195400
     14 C11         5.3750   -5.1700    5.6600 c         1 VHH      0.908600
     15 O11         5.7070   -6.3750    5.8510 o         1 VHH     -0.851800
     16 O12         6.1490   -4.1880    5.8490 o         1 VHH     -0.851800
     17 C17         3.3060    0.4560    1.0950 c3        1 VHH      0.063300
     18 C18        -1.1080    0.2270   -0.9610 c3        1 VHH      0.071300
     19 H2          0.7910   -1.2250    3.8880 h1        1 VHH      0.070700
     20 H4          1.2740    0.6880    2.7640 h1        1 VHH      0.057700
     21 H5         -0.9190    0.8210    1.9910 h1        1 VHH      0.069700
     22 H6         -1.6440   -1.6420    0.6540 h1        1 VHH      0.072200
     23 H6A        -1.9700   -1.1480    2.3520 h1        1 VHH      0.072200
     24 H7          3.2410   -1.3630    3.2640 hc        1 VHH      0.056700
     25 H7A         2.8070   -2.5160    1.9350 hc        1 VHH      0.056700
     26 H8          2.0830   -2.9060    4.9240 hc        1 VHH      0.034700
     27 H8A         1.8130   -4.0880    3.5840 hc        1 VHH      0.034700
     28 H9          4.2880   -4.2010    3.1800 hc        1 VHH      0.046200
     29 H9A         4.5770   -2.9740    4.4750 hc        1 VHH      0.046200
     30 H10         3.4800   -5.8340    4.8010 hc        1 VHH      0.020700
     31 H10A        3.3450   -4.5800    6.0980 hc        1 VHH      0.020700
     32 H17         3.7560    0.7000    0.0960 h1        1 VHH      0.052367
     33 H17A        3.3130    1.3790    1.7380 h1        1 VHH      0.052367
     34 H17B        3.9260   -0.3370    1.5930 h1        1 VHH      0.052367
     35 H18        -2.1250    0.5320   -0.6010 h1        1 VHH      0.045033
     36 H18A       -1.1400   -0.8540   -1.2700 h1        1 VHH      0.045033
     37 H18B       -0.8230    0.8410   -1.8570 h1        1 VHH      0.045033
@<TRIPOS>BOND
     1    1    5 1   
     2    1    8 1   
     3    1   18 1   
     4    2    3 1   
     5    2    9 1   
     6    3    7 1   
     7    3   10 1   
     8    3   19 1   
     9    4    5 1   
    10    4    7 1   
    11    4   17 1   
    12    5    6 2   
    13    7    8 1   
    14    7   20 1   
    15    8    9 1   
    16    8   21 1   
    17    9   22 1   
    18    9   23 1   
    19   10   11 1   
    20   10   24 1   
    21   10   25 1   
    22   11   12 1   
    23   11   26 1   
    24   11   27 1   
    25   12   13 1   
    26   12   28 1   
    27   12   29 1   
    28   13   14 1   
    29   13   30 1   
    30   13   31 1   
    31   14   15 1   
    32   14   16 1   
    33   17   32 1   
    34   17   33 1   
    35   17   34 1   
    36   18   35 1   
    37   18   36 1   
    38   18   37 1   
@<TRIPOS>SUBSTRUCTURE
     1 VHH         1 TEMP              0 ****  ****    0 ROOT
