@<TRIPOS>MOLECULE
VHH
   37    38     1     0     0
SMALL
bcc


@<TRIPOS>ATOM
      1 N1         -0.1660    0.5020    0.0920 n         1 VHH     -0.433800
      2 S1         -0.0560   -2.6070    2.1030 ss        1 VHH     -0.270200
      3 C2          1.1270   -1.4920    2.8410 c3        1 VHH      0.023400
      4 N2          1.9720   -0.0310    0.9300 n         1 VHH     -0.416800
      5 C3          1.2340    0.4220   -0.2030 c         1 VHH      0.761500
      6 O3          1.7320    0.7290   -1.3020 o         1 VHH     -0.635500
      7 C4          1.0590   -0.1730    2.0680 c3        1 VHH      0.071700
      8 C5         -0.3950   -0.0180    1.4420 c3        1 VHH      0.067700
      9 C6         -1.1540   -1.3350    1.5710 c3        1 VHH     -0.048300
     10 C7          2.4890   -2.1330    2.9370 c3        1 VHH     -0.065400
     11 C8          2.4970   -3.2870    3.9220 c3        1 VHH     -0.082400
     12 C9          3.9050   -3.8040    4.1370 c3        1 VHH     -0.067400
     13 C10         3.9510   -4.9080    5.1640 c3        1 VHH     -0.195400
     14 C11         5.3920   -5.1720    5.6410 c         1 VHH      0.908600
     15 O11         5.7420   -6.3740    5.8140 o         1 VHH     -0.851800
     16 O12         6.1470   -4.1790    5.8560 o         1 VHH     -0.851800
     17 C17         3.2860    0.4990    1.1500 c3        1 VHH      0.063300
     18 C18        -1.1010    0.2410   -0.9590 c3        1 VHH      0.071300
     19 H2          0.7660   -1.2700    3.8830 h1        1 VHH      0.070700
     20 H4          1.2330    0.6700    2.8000 h1        1 VHH      0.057700
     21 H5         -0.9540    0.7830    2.0040 h1        1 VHH      0.069700
     22 H6         -1.6250   -1.6650    0.6140 h1        1 VHH      0.072200
     23 H6A        -1.9770   -1.2090    2.3170 h1        1 VHH      0.072200
     24 H7          3.2260   -1.3580    3.2840 hc        1 VHH      0.056700
     25 H7A         2.8240   -2.4950    1.9300 hc        1 VHH      0.056700
     26 H8          2.0720   -2.9500    4.9040 hc        1 VHH      0.034700
     27 H8A         1.8390   -4.1110    3.5400 hc        1 VHH      0.034700
     28 H9          4.3200   -4.1770    3.1640 hc        1 VHH      0.046200
     29 H9A         4.5720   -2.9680    4.4840 hc        1 VHH      0.046200
     30 H10         3.3470   -4.6230    6.0630 hc        1 VHH      0.020700
     31 H10A        3.5200   -5.8510    4.7460 hc        1 VHH      0.020700
     32 H17         3.2720    1.4100    1.8100 h1        1 VHH      0.052367
     33 H17A        3.9130   -0.2940    1.6390 h1        1 VHH      0.052367
     34 H17B        3.7430    0.7690    0.1600 h1        1 VHH      0.052367
     35 H18        -2.1270    0.5240   -0.6050 h1        1 VHH      0.045033
     36 H18A       -1.1120   -0.8330   -1.2900 h1        1 VHH      0.045033
     37 H18B       -0.8160    0.8770   -1.8410 h1        1 VHH      0.045033
@<TRIPOS>BOND
     1    1    5 1   
     2    1    8 1   
     3    1   18 1   
     4    2    3 1   
     5    2    9 1   
     6    3    7 1   
     7    3   10 1   
     8    3   19 1   
     9    4    5 1   
    10    4    7 1   
    11    4   17 1   
    12    5    6 2   
    13    7    8 1   
    14    7   20 1   
    15    8    9 1   
    16    8   21 1   
    17    9   22 1   
    18    9   23 1   
    19   10   11 1   
    20   10   24 1   
    21   10   25 1   
    22   11   12 1   
    23   11   26 1   
    24   11   27 1   
    25   12   13 1   
    26   12   28 1   
    27   12   29 1   
    28   13   14 1   
    29   13   30 1   
    30   13   31 1   
    31   14   15 1   
    32   14   16 1   
    33   17   32 1   
    34   17   33 1   
    35   17   34 1   
    36   18   35 1   
    37   18   36 1   
    38   18   37 1   
@<TRIPOS>SUBSTRUCTURE
     1 VHH         1 TEMP              0 ****  ****    0 ROOT
