@<TRIPOS>MOLECULE
VHH
   37    38     1     0     0
SMALL
bcc


@<TRIPOS>ATOM
      1 N1         -1.5490    1.9620   -2.2840 n         1 VHH     -0.424800
      2 S1         -2.0340    0.2180    0.8630 ss        1 VHH     -0.302200
      3 C2         -0.7060    0.7880    1.0130 c3        1 VHH      0.009400
      4 N2          0.4090    1.9620   -0.8140 n         1 VHH     -0.464800
      5 C3         -0.0640    1.9620   -2.2840 c         1 VHH      0.774500
      6 O3          0.6490    2.0490   -3.2620 o         1 VHH     -0.635500
      7 C4         -0.6560    2.0350   -0.0540 c3        1 VHH      0.093700
      8 C5         -1.9570    1.8840   -0.9960 c3        1 VHH      0.063700
      9 C6         -2.4980    0.5820   -0.7130 c3        1 VHH     -0.015300
     10 C7          0.4110   -0.3060    0.6450 c3        1 VHH     -0.077400
     11 C8          0.4500   -1.3920    1.7460 c3        1 VHH     -0.082400
     12 C9          1.4830   -2.4660    1.3710 c3        1 VHH     -0.066400
     13 C10         1.5820   -3.4970    2.5000 c3        1 VHH     -0.194400
     14 C11         2.4780   -4.6460    2.0600 c         1 VHH      0.908600
     15 O11         3.7170   -4.5990    2.2850 o         1 VHH     -0.851800
     16 O12         1.9700   -5.6820    1.5520 o         1 VHH     -0.851800
     17 C17         1.7600    2.0760   -0.3710 c3        1 VHH      0.094300
     18 C18        -2.3920    2.1880   -3.4220 c3        1 VHH      0.068300
     19 H2         -0.5770    1.1140    1.9240 h1        1 VHH      0.087700
     20 H4         -0.6770    2.8880    0.4200 h1        1 VHH      0.065700
     21 H5         -2.6110    2.5810   -0.7970 h1        1 VHH      0.051700
     22 H6         -2.1290   -0.0760   -1.3320 h1        1 VHH      0.081700
     23 H6A        -3.4710    0.6010   -0.7820 h1        1 VHH      0.081700
     24 H7          1.2840    0.1280    0.5850 hc        1 VHH      0.052700
     25 H7A         0.1930   -0.7190   -0.2120 hc        1 VHH      0.052700
     26 H8          0.7000   -0.9840    2.5970 hc        1 VHH      0.035700
     27 H8A        -0.4310   -1.8030    1.8290 hc        1 VHH      0.035700
     28 H9          2.3540   -2.0470    1.2360 hc        1 VHH      0.045700
     29 H9A         1.2050   -2.9110    0.5480 hc        1 VHH      0.045700
     30 H10         1.9610   -3.0740    3.2940 hc        1 VHH      0.020200
     31 H10A        0.6920   -3.8400    2.7070 hc        1 VHH      0.020200
     32 H17         2.2790    1.3240   -0.7150 h1        1 VHH      0.049033
     33 H17A        1.7840    2.0700    0.6040 h1        1 VHH      0.049033
     34 H17B        2.1410    2.9120   -0.7010 h1        1 VHH      0.049033
     35 H18        -2.0470    2.9420   -3.9370 h1        1 VHH      0.043367
     36 H18A       -3.2990    2.3870   -3.1210 h1        1 VHH      0.043367
     37 H18B       -2.4030    1.3890   -3.9820 h1        1 VHH      0.043367
@<TRIPOS>BOND
     1    1    5 1   
     2    1    8 1   
     3    1   18 1   
     4    2    3 1   
     5    2    9 1   
     6    3    7 1   
     7    3   10 1   
     8    3   19 1   
     9    4    5 1   
    10    4    7 1   
    11    4   17 1   
    12    5    6 2   
    13    7    8 1   
    14    7   20 1   
    15    8    9 1   
    16    8   21 1   
    17    9   22 1   
    18    9   23 1   
    19   10   11 1   
    20   10   24 1   
    21   10   25 1   
    22   11   12 1   
    23   11   26 1   
    24   11   27 1   
    25   12   13 1   
    26   12   28 1   
    27   12   29 1   
    28   13   14 1   
    29   13   30 1   
    30   13   31 1   
    31   14   15 1   
    32   14   16 1   
    33   17   32 1   
    34   17   33 1   
    35   17   34 1   
    36   18   35 1   
    37   18   36 1   
    38   18   37 1   
@<TRIPOS>SUBSTRUCTURE
     1 VHH         1 TEMP              0 ****  ****    0 ROOT
