@<TRIPOS>MOLECULE
VHH
   37    38     1     0     0
SMALL
bcc


@<TRIPOS>ATOM
      1 N1         -0.1630    0.4910    0.0790 n         1 VHH     -0.433800
      2 S1         -0.0590   -2.6030    2.1130 ss        1 VHH     -0.270200
      3 C2          1.1280   -1.4860    2.8400 c3        1 VHH      0.023400
      4 N2          1.9740   -0.0420    0.9170 n         1 VHH     -0.416800
      5 C3          1.2360    0.4050   -0.2170 c         1 VHH      0.761500
      6 O3          1.7340    0.7010   -1.3200 o         1 VHH     -0.635500
      7 C4          1.0630   -0.1730    2.0580 c3        1 VHH      0.071700
      8 C5         -0.3920   -0.0190    1.4330 c3        1 VHH      0.067700
      9 C6         -1.1540   -1.3320    1.5730 c3        1 VHH     -0.048300
     10 C7          2.4880   -2.1300    2.9400 c3        1 VHH     -0.065400
     11 C8          2.4950   -3.2770    3.9330 c3        1 VHH     -0.082400
     12 C9          3.9020   -3.7960    4.1490 c3        1 VHH     -0.067400
     13 C10         3.9460   -4.8930    5.1850 c3        1 VHH     -0.195400
     14 C11         5.3870   -5.1570    5.6610 c         1 VHH      0.908600
     15 O11         5.7340   -6.3590    5.8430 o         1 VHH     -0.851800
     16 O12         6.1460   -4.1660    5.8690 o         1 VHH     -0.851800
     17 C17         3.2900    0.4870    1.1310 c3        1 VHH      0.063300
     18 C18        -1.1000    0.2250   -0.9690 c3        1 VHH      0.071300
     19 H2          0.7700   -1.2560    3.8820 h1        1 VHH      0.070700
     20 H4          1.2400    0.6750    2.7830 h1        1 VHH      0.057700
     21 H5         -0.9470    0.7880    1.9900 h1        1 VHH      0.069700
     22 H6         -1.9760   -1.1980    2.3190 h1        1 VHH      0.072200
     23 H6A        -1.6270   -1.6690    0.6190 h1        1 VHH      0.072200
     24 H7          3.2280   -1.3550    3.2800 hc        1 VHH      0.056700
     25 H7A         2.8220   -2.5000    1.9350 hc        1 VHH      0.056700
     26 H8          2.0730   -2.9310    4.9130 hc        1 VHH      0.034700
     27 H8A         1.8330   -4.1020    3.5580 hc        1 VHH      0.034700
     28 H9          4.3140   -4.1770    3.1790 hc        1 VHH      0.046200
     29 H9A         4.5720   -2.9600    4.4890 hc        1 VHH      0.046200
     30 H10         3.5110   -5.8380    4.7740 hc        1 VHH      0.020700
     31 H10A        3.3450   -4.6000    6.0820 hc        1 VHH      0.020700
     32 H17         3.2800    1.4020    1.7840 h1        1 VHH      0.052367
     33 H17A        3.9160   -0.3050    1.6250 h1        1 VHH      0.052367
     34 H17B        3.7470    0.7480    0.1390 h1        1 VHH      0.052367
     35 H18        -0.8150    0.8530   -1.8560 h1        1 VHH      0.045033
     36 H18A       -2.1250    0.5130   -0.6160 h1        1 VHH      0.045033
     37 H18B       -1.1150   -0.8530   -1.2920 h1        1 VHH      0.045033
@<TRIPOS>BOND
     1    1    5 1   
     2    1    8 1   
     3    1   18 1   
     4    2    3 1   
     5    2    9 1   
     6    3    7 1   
     7    3   10 1   
     8    3   19 1   
     9    4    5 1   
    10    4    7 1   
    11    4   17 1   
    12    5    6 2   
    13    7    8 1   
    14    7   20 1   
    15    8    9 1   
    16    8   21 1   
    17    9   22 1   
    18    9   23 1   
    19   10   11 1   
    20   10   24 1   
    21   10   25 1   
    22   11   12 1   
    23   11   26 1   
    24   11   27 1   
    25   12   13 1   
    26   12   28 1   
    27   12   29 1   
    28   13   14 1   
    29   13   30 1   
    30   13   31 1   
    31   14   15 1   
    32   14   16 1   
    33   17   32 1   
    34   17   33 1   
    35   17   34 1   
    36   18   35 1   
    37   18   36 1   
    38   18   37 1   
@<TRIPOS>SUBSTRUCTURE
     1 VHH         1 TEMP              0 ****  ****    0 ROOT
