@<TRIPOS>MOLECULE
VHH
   37    38     1     0     0
SMALL
bcc


@<TRIPOS>ATOM
      1 N1          3.9900   -0.3140    0.0790 n         1 VHH     -0.433800
      2 S1          1.0440    1.8050   -0.6580 ss        1 VHH     -0.270200
      3 C2          0.5550    0.7120    0.6660 c3        1 VHH      0.023400
      4 N2          1.9220   -1.4140    0.3350 n         1 VHH     -0.416800
      5 C3          3.2520   -1.5170   -0.1670 c         1 VHH      0.761500
      6 O3          3.7260   -2.5210   -0.7310 o         1 VHH     -0.635500
      7 C4          1.7730   -0.1350    1.0350 c3        1 VHH      0.071700
      8 C5          3.0930    0.6780    0.6760 c3        1 VHH      0.067700
      9 C6          2.7330    1.8990   -0.1640 c3        1 VHH     -0.048300
     10 C7         -0.6960   -0.0500    0.3050 c3        1 VHH     -0.065400
     11 C8         -1.9010    0.8660    0.2010 c3        1 VHH     -0.082400
     12 C9         -3.1740    0.0660    0.0130 c3        1 VHH     -0.067400
     13 C10        -4.3960    0.9490   -0.0250 c3        1 VHH     -0.195400
     14 C11        -5.6870    0.1290    0.1520 c         1 VHH      0.908600
     15 O11        -6.6840    0.4420   -0.5600 o         1 VHH     -0.851800
     16 O12        -5.6990   -0.8000    1.0110 o         1 VHH     -0.851800
     17 C17         1.3020   -2.5860    0.8820 c3        1 VHH      0.063300
     18 C18         4.9890    0.0800   -0.8680 c3        1 VHH      0.071300
     19 H2          0.3310    1.3570    1.5600 h1        1 VHH      0.070700
     20 H4          1.7490   -0.3150    2.1500 h1        1 VHH      0.057700
     21 H5          3.5840    1.0220    1.6300 h1        1 VHH      0.069700
     22 H6          3.3560    1.9960   -1.0860 h1        1 VHH      0.072200
     23 H6A         2.8990    2.8210    0.4450 h1        1 VHH      0.072200
     24 H7         -0.5560   -0.5990   -0.6620 hc        1 VHH      0.056700
     25 H7A        -0.8930   -0.8140    1.1060 hc        1 VHH      0.056700
     26 H8         -1.9860    1.4860    1.1330 hc        1 VHH      0.034700
     27 H8A        -1.7610    1.5750   -0.6570 hc        1 VHH      0.034700
     28 H9         -3.1070   -0.5260   -0.9370 hc        1 VHH      0.046200
     29 H9A        -3.2930   -0.6690    0.8550 hc        1 VHH      0.046200
     30 H10        -4.3570    1.6970    0.8080 hc        1 VHH      0.020700
     31 H10A       -4.4430    1.5130   -0.9890 hc        1 VHH      0.020700
     32 H17         1.7210   -3.4950    0.3700 h1        1 VHH      0.052367
     33 H17A        1.4700   -2.6780    1.9900 h1        1 VHH      0.052367
     34 H17B        0.1980   -2.5310    0.6840 h1        1 VHH      0.052367
     35 H18         5.6620   -0.8010   -1.0480 h1        1 VHH      0.045033
     36 H18A        4.5620    0.4060   -1.8550 h1        1 VHH      0.045033
     37 H18B        5.5820    0.9260   -0.4310 h1        1 VHH      0.045033
@<TRIPOS>BOND
     1    1    5 1   
     2    1    8 1   
     3    1   18 1   
     4    2    3 1   
     5    2    9 1   
     6    3    7 1   
     7    3   10 1   
     8    3   19 1   
     9    4    5 1   
    10    4    7 1   
    11    4   17 1   
    12    5    6 2   
    13    7    8 1   
    14    7   20 1   
    15    8    9 1   
    16    8   21 1   
    17    9   22 1   
    18    9   23 1   
    19   10   11 1   
    20   10   24 1   
    21   10   25 1   
    22   11   12 1   
    23   11   26 1   
    24   11   27 1   
    25   12   13 1   
    26   12   28 1   
    27   12   29 1   
    28   13   14 1   
    29   13   30 1   
    30   13   31 1   
    31   14   15 1   
    32   14   16 1   
    33   17   32 1   
    34   17   33 1   
    35   17   34 1   
    36   18   35 1   
    37   18   36 1   
    38   18   37 1   
@<TRIPOS>SUBSTRUCTURE
     1 VHH         1 TEMP              0 ****  ****    0 ROOT
