@<TRIPOS>MOLECULE
VHI
   47    49     1     0     0
SMALL
bcc


@<TRIPOS>ATOM
      1 N1          0.2650   -0.0040   -0.2190 n         1 VHI     -0.501400
      2 S1         -0.1120   -2.4450    2.3300 ss        1 VHI     -0.271200
      3 C2          1.2750   -1.4500    2.8560 c3        1 VHI     -0.007600
      4 N2          2.3340   -0.3800    0.7830 ns        1 VHI     -0.492900
      5 C3          1.6440   -0.3110   -0.4580 c         1 VHI      0.798500
      6 O3          2.1580   -0.4230   -1.5810 o         1 VHI     -0.590500
      7 C4          1.3850   -0.2700    1.8900 c3        1 VHI      0.055700
      8 C5         -0.0310   -0.0130    1.2140 c3        1 VHI      0.104700
      9 C6         -1.0160   -1.0870    1.6620 c3        1 VHI     -0.042300
     10 C7          2.5190   -2.2970    2.9890 c3        1 VHI     -0.076400
     11 C8          2.4710   -3.1750    4.2250 c3        1 VHI     -0.080400
     12 C9          3.7670   -3.9410    4.3940 c3        1 VHI     -0.068400
     13 C10         3.7670   -4.7810    5.6460 c3        1 VHI     -0.196400
     14 C11         5.1840   -5.2830    5.9820 c         1 VHI      0.908600
     15 O11         6.1560   -4.4870    5.8300 o         1 VHI     -0.849800
     16 O12         5.3000   -6.4640    6.4160 o         1 VHI     -0.849800
     17 C17        -0.6950    0.2770   -1.1740 c         1 VHI      0.773100
     18 O18        -0.2090    0.2860   -2.4590 os        1 VHI     -0.399900
     19 O19        -1.8970    0.5160   -0.9700 o         1 VHI     -0.586000
     20 C20        -1.1970    0.5310   -3.4800 c3        1 VHI      0.194700
     21 C21        -0.5050    0.4550   -4.8000 ca        1 VHI     -0.097300
     22 C22         0.8400    0.0890   -4.9130 ca        1 VHI     -0.113500
     23 C23         1.4370    0.0260   -6.1730 ca        1 VHI     -0.134000
     24 C24         0.6990    0.3250   -7.3170 ca        1 VHI     -0.131000
     25 C25        -0.6430    0.6900   -7.2040 ca        1 VHI     -0.134000
     26 C26        -1.2460    0.7560   -5.9500 ca        1 VHI     -0.113500
     27 H2          1.0260   -1.0270    3.8670 h1        1 VHI      0.084700
     28 HN2         3.0280   -1.0950    0.8480 hn        1 VHI      0.329500
     29 H4          1.6860    0.6490    2.4730 h1        1 VHI      0.088700
     30 H5         -0.4200    1.0030    1.5050 h1        1 VHI      0.082700
     31 H6         -1.6960   -0.6540    2.4360 h1        1 VHI      0.089200
     32 H6A        -1.6580   -1.4530    0.8230 h1        1 VHI      0.089200
     33 H7          3.4180   -1.6260    3.0620 hc        1 VHI      0.054700
     34 H7A         2.6480   -2.9480    2.0830 hc        1 VHI      0.054700
     35 H8          2.2930   -2.5390    5.1320 hc        1 VHI      0.037200
     36 H8A         1.6100   -3.8910    4.1450 hc        1 VHI      0.037200
     37 H9          3.9340   -4.5980    3.5000 hc        1 VHI      0.047700
     38 H9A         4.6330   -3.2260    4.4460 hc        1 VHI      0.047700
     39 H10         3.0800   -5.6560    5.5320 hc        1 VHI      0.021200
     40 H10A        3.4090   -4.1750    6.5170 hc        1 VHI      0.021200
     41 H20        -2.0030   -0.2470   -3.3980 h1        1 VHI      0.062200
     42 H20A       -1.6450    1.5460   -3.3090 h1        1 VHI      0.062200
     43 H22         1.4250   -0.1450   -4.0050 ha        1 VHI      0.152500
     44 H23         2.4950   -0.2610   -6.2580 ha        1 VHI      0.130500
     45 H24         1.1730    0.2730   -8.3080 ha        1 VHI      0.126000
     46 H25        -1.2270    0.9260   -8.1050 ha        1 VHI      0.130500
     47 H26        -2.3030    1.0440   -5.8600 ha        1 VHI      0.152500
@<TRIPOS>BOND
     1    1    5 1   
     2    1    8 1   
     3    1   17 1   
     4    2    3 1   
     5    2    9 1   
     6    3    7 1   
     7    3   10 1   
     8    3   27 1   
     9    4    5 1   
    10    4    7 1   
    11    4   28 1   
    12    5    6 2   
    13    7    8 1   
    14    7   29 1   
    15    8    9 1   
    16    8   30 1   
    17    9   31 1   
    18    9   32 1   
    19   10   11 1   
    20   10   33 1   
    21   10   34 1   
    22   11   12 1   
    23   11   35 1   
    24   11   36 1   
    25   12   13 1   
    26   12   37 1   
    27   12   38 1   
    28   13   14 1   
    29   13   39 1   
    30   13   40 1   
    31   14   15 1   
    32   14   16 1   
    33   17   18 1   
    34   17   19 2   
    35   18   20 1   
    36   20   21 1   
    37   20   41 1   
    38   20   42 1   
    39   21   22 ar  
    40   21   26 ar  
    41   22   23 ar  
    42   22   43 1   
    43   23   24 ar  
    44   23   44 1   
    45   24   25 ar  
    46   24   45 1   
    47   25   26 ar  
    48   25   46 1   
    49   26   47 1   
@<TRIPOS>SUBSTRUCTURE
     1 VHI         1 TEMP              0 ****  ****    0 ROOT
