@<TRIPOS>MOLECULE
VHI
   47    49     1     0     0
SMALL
bcc


@<TRIPOS>ATOM
      1 N1         -1.3910    0.5520    0.2510 n         1 VHI     -0.501400
      2 S1          1.7800    1.6950    1.3670 ss        1 VHI     -0.272200
      3 C2          2.0290    1.2670   -0.3490 c3        1 VHI     -0.007600
      4 N2          0.2690   -0.4680   -1.0260 n         1 VHI     -0.493900
      5 C3         -0.8990   -0.6960   -0.2480 c         1 VHI      0.798500
      6 O3         -1.4680   -1.7880   -0.1060 o         1 VHI     -0.593500
      7 C4          0.6590    0.9390   -0.9440 c3        1 VHI      0.055700
      8 C5         -0.4730    1.6440   -0.0790 c3        1 VHI      0.102700
      9 C6          0.1590    2.3430    1.1190 c3        1 VHI     -0.043300
     10 C7          3.0710    0.1820   -0.4810 c3        1 VHI     -0.076400
     11 C8          4.4700    0.7140   -0.2330 c3        1 VHI     -0.080400
     12 C9          5.5070   -0.3660   -0.4650 c3        1 VHI     -0.068400
     13 C10         6.9110    0.1520   -0.2770 c3        1 VHI     -0.196400
     14 C11         7.9510   -0.8410   -0.8310 c         1 VHI      0.908600
     15 O11         7.7020   -1.4250   -1.9250 o         1 VHI     -0.849800
     16 O12         9.0150   -1.0040   -0.1690 o         1 VHI     -0.849800
     17 C17        -2.5320    0.7500    1.0090 c         1 VHI      0.775100
     18 O18        -3.1210   -0.4130    1.4510 os        1 VHI     -0.401900
     19 O19        -3.0090    1.8480    1.3370 o         1 VHI     -0.577000
     20 C20        -4.4980   -0.3260    1.8480 c3        1 VHI      0.185700
     21 C21        -5.3980   -0.7780    0.7460 ca        1 VHI     -0.123300
     22 C22        -6.7150   -0.3080    0.6980 ca        1 VHI     -0.112000
     23 C23        -7.5790   -0.7540   -0.3000 ca        1 VHI     -0.135500
     24 C24        -7.1310   -1.6650   -1.2570 ca        1 VHI     -0.128000
     25 C25        -5.8170   -2.1300   -1.2150 ca        1 VHI     -0.135500
     26 C26        -4.9500   -1.6910   -0.2150 ca        1 VHI     -0.112000
     27 H2          2.4060    2.1860   -0.8770 h1        1 VHI      0.084700
     28 HN2         0.9920   -1.1490   -0.9220 hn        1 VHI      0.329500
     29 H4          0.6170    1.3380   -1.9980 h1        1 VHI      0.088700
     30 H5         -1.0290    2.3950   -0.7070 h1        1 VHI      0.085700
     31 H6         -0.4350    2.2060    2.0560 h1        1 VHI      0.088200
     32 H6A         0.2060    3.4410    0.9140 h1        1 VHI      0.088200
     33 H7          2.8630   -0.6510    0.2420 hc        1 VHI      0.054700
     34 H7A         3.0310   -0.2460   -1.5200 hc        1 VHI      0.054700
     35 H8          4.6720    1.5780   -0.9190 hc        1 VHI      0.037200
     36 H8A         4.5450    1.0980    0.8190 hc        1 VHI      0.037200
     37 H9          5.3240   -1.2200    0.2380 hc        1 VHI      0.047700
     38 H9A         5.4150   -0.7700   -1.5100 hc        1 VHI      0.047700
     39 H10         7.0430    1.1190   -0.8260 hc        1 VHI      0.021200
     40 H10A        7.1180    0.3410    0.8060 hc        1 VHI      0.021200
     41 H20        -4.5520   -1.0470    2.7120 h1        1 VHI      0.078700
     42 H20A       -4.7550    0.7100    2.1930 h1        1 VHI      0.078700
     43 H22        -7.0670    0.4170    1.4470 ha        1 VHI      0.151500
     44 H23        -8.6130   -0.3840   -0.3350 ha        1 VHI      0.130000
     45 H24        -7.8130   -2.0140   -2.0460 ha        1 VHI      0.126000
     46 H25        -5.4590   -2.8450   -1.9710 ha        1 VHI      0.130000
     47 H26        -3.9040   -2.0480   -0.1770 ha        1 VHI      0.151500
@<TRIPOS>BOND
     1    1    5 1   
     2    1    8 1   
     3    1   17 1   
     4    2    3 1   
     5    2    9 1   
     6    3    7 1   
     7    3   10 1   
     8    3   27 1   
     9    4    5 1   
    10    4    7 1   
    11    4   28 1   
    12    5    6 2   
    13    7    8 1   
    14    7   29 1   
    15    8    9 1   
    16    8   30 1   
    17    9   31 1   
    18    9   32 1   
    19   10   11 1   
    20   10   33 1   
    21   10   34 1   
    22   11   12 1   
    23   11   35 1   
    24   11   36 1   
    25   12   13 1   
    26   12   37 1   
    27   12   38 1   
    28   13   14 1   
    29   13   39 1   
    30   13   40 1   
    31   14   15 1   
    32   14   16 1   
    33   17   18 1   
    34   17   19 2   
    35   18   20 1   
    36   20   21 1   
    37   20   41 1   
    38   20   42 1   
    39   21   22 ar  
    40   21   26 ar  
    41   22   23 ar  
    42   22   43 1   
    43   23   24 ar  
    44   23   44 1   
    45   24   25 ar  
    46   24   45 1   
    47   25   26 ar  
    48   25   46 1   
    49   26   47 1   
@<TRIPOS>SUBSTRUCTURE
     1 VHI         1 TEMP              0 ****  ****    0 ROOT
