@<TRIPOS>MOLECULE
VHI
   47    49     1     0     0
SMALL
bcc


@<TRIPOS>ATOM
      1 N1         -0.0540   -0.3500   -0.2840 n         1 VHI     -0.501400
      2 S1          0.1130   -2.9590    2.1180 ss        1 VHI     -0.271200
      3 C2          1.0540   -1.6210    2.8350 c3        1 VHI     -0.007600
      4 N2          1.9170   -0.1320    0.9360 n         1 VHI     -0.492900
      5 C3          1.3670   -0.1950   -0.3730 c         1 VHI      0.798500
      6 O3          1.9980   -0.0630   -1.4320 o         1 VHI     -0.590500
      7 C4          0.8780   -0.4000    1.9300 c3        1 VHI      0.055700
      8 C5         -0.4720   -0.5510    1.1040 c3        1 VHI      0.104700
      9 C6         -1.1050   -1.9070    1.3970 c3        1 VHI     -0.042300
     10 C7          2.4820   -2.0450    3.0810 c3        1 VHI     -0.076400
     11 C8          2.5940   -2.9780    4.2720 c3        1 VHI     -0.080400
     12 C9          4.0430   -3.3110    4.5620 c3        1 VHI     -0.068400
     13 C10         4.1850   -4.1960    5.7760 c3        1 VHI     -0.196400
     14 C11         5.6480   -4.2530    6.2560 c         1 VHI      0.908600
     15 O11         6.3270   -3.1850    6.2450 o         1 VHI     -0.849800
     16 O12         6.0890   -5.3670    6.6570 o         1 VHI     -0.849800
     17 C17        -0.9540   -0.3180   -1.3340 c         1 VHI      0.773100
     18 O18        -0.3720   -0.0690   -2.5530 os        1 VHI     -0.399900
     19 O19        -2.1840   -0.4800   -1.2620 o         1 VHI     -0.586000
     20 C20        -1.2810   -0.0750   -3.6720 c3        1 VHI      0.194700
     21 C21        -0.4730    0.1590   -4.9050 ca        1 VHI     -0.097300
     22 C22        -1.1540    0.2920   -6.1220 ca        1 VHI     -0.113500
     23 C23        -0.4410    0.5030   -7.3000 ca        1 VHI     -0.134000
     24 C24         0.9520    0.5840   -7.2690 ca        1 VHI     -0.131000
     25 C25         1.6300    0.4540   -6.0580 ca        1 VHI     -0.134000
     26 C26         0.9220    0.2410   -4.8750 ca        1 VHI     -0.113500
     27 H2          0.5840   -1.3670    3.8240 h1        1 VHI      0.084700
     28 HN2         2.7920   -0.5980    1.0560 hn        1 VHI      0.329500
     29 H4          0.8130    0.5230    2.5750 h1        1 VHI      0.088700
     30 H5         -1.1900    0.2700    1.3830 h1        1 VHI      0.082700
     31 H6         -1.9600   -1.7620    2.1020 h1        1 VHI      0.089200
     32 H6A        -1.5110   -2.3960    0.4770 h1        1 VHI      0.089200
     33 H7          2.9000   -2.5580    2.1740 hc        1 VHI      0.054700
     34 H7A         3.1100   -1.1340    3.2800 hc        1 VHI      0.054700
     35 H8          2.1350   -2.4940    5.1740 hc        1 VHI      0.037200
     36 H8A         2.0170   -3.9190    4.0680 hc        1 VHI      0.037200
     37 H9          4.4970   -3.8200    3.6710 hc        1 VHI      0.047700
     38 H9A         4.6280   -2.3680    4.7390 hc        1 VHI      0.047700
     39 H10         3.5700   -3.7930    6.6200 hc        1 VHI      0.021200
     40 H10A        3.8270   -5.2310    5.5520 hc        1 VHI      0.021200
     41 H20        -1.8020   -1.0690   -3.7100 h1        1 VHI      0.062200
     42 H20A       -2.0420    0.7370   -3.5200 h1        1 VHI      0.062200
     43 H22        -2.2510    0.2290   -6.1460 ha        1 VHI      0.152500
     44 H23        -0.9770    0.6060   -8.2540 ha        1 VHI      0.130500
     45 H24         1.5130    0.7500   -8.2000 ha        1 VHI      0.126000
     46 H25         2.7280    0.5170   -6.0300 ha        1 VHI      0.130500
     47 H26         1.4590    0.1390   -3.9130 ha        1 VHI      0.152500
@<TRIPOS>BOND
     1    1    5 1   
     2    1    8 1   
     3    1   17 1   
     4    2    3 1   
     5    2    9 1   
     6    3    7 1   
     7    3   10 1   
     8    3   27 1   
     9    4    5 1   
    10    4    7 1   
    11    4   28 1   
    12    5    6 2   
    13    7    8 1   
    14    7   29 1   
    15    8    9 1   
    16    8   30 1   
    17    9   31 1   
    18    9   32 1   
    19   10   11 1   
    20   10   33 1   
    21   10   34 1   
    22   11   12 1   
    23   11   35 1   
    24   11   36 1   
    25   12   13 1   
    26   12   37 1   
    27   12   38 1   
    28   13   14 1   
    29   13   39 1   
    30   13   40 1   
    31   14   15 1   
    32   14   16 1   
    33   17   18 1   
    34   17   19 2   
    35   18   20 1   
    36   20   21 1   
    37   20   41 1   
    38   20   42 1   
    39   21   22 ar  
    40   21   26 ar  
    41   22   23 ar  
    42   22   43 1   
    43   23   24 ar  
    44   23   44 1   
    45   24   25 ar  
    46   24   45 1   
    47   25   26 ar  
    48   25   46 1   
    49   26   47 1   
@<TRIPOS>SUBSTRUCTURE
     1 VHI         1 TEMP              0 ****  ****    0 ROOT
