@<TRIPOS>MOLECULE
VHI
   47    49     1     0     0
SMALL
bcc


@<TRIPOS>ATOM
      1 N1          0.2520   -0.0180   -0.2270 n         1 VHI     -0.501400
      2 S1         -0.1100   -2.4610    2.3240 ss        1 VHI     -0.271200
      3 C2          1.2630   -1.4490    2.8560 c3        1 VHI     -0.007600
      4 N2          2.3190   -0.3700    0.7860 n         1 VHI     -0.492900
      5 C3          1.6350   -0.3100   -0.4590 c         1 VHI      0.798500
      6 O3          2.1560   -0.4180   -1.5780 o         1 VHI     -0.590500
      7 C4          1.3640   -0.2690    1.8890 c3        1 VHI      0.055700
      8 C5         -0.0520   -0.0290    1.2050 c3        1 VHI      0.104700
      9 C6         -1.0260   -1.1150    1.6490 c3        1 VHI     -0.042300
     10 C7          2.5160   -2.2810    2.9970 c3        1 VHI     -0.076400
     11 C8          2.4720   -3.1570    4.2350 c3        1 VHI     -0.080400
     12 C9          3.7770   -3.9060    4.4110 c3        1 VHI     -0.068400
     13 C10         3.7800   -4.7440    5.6660 c3        1 VHI     -0.196400
     14 C11         5.2020   -5.2260    6.0120 c         1 VHI      0.908600
     15 O11         6.1640   -4.4190    5.8620 o         1 VHI     -0.849800
     16 O12         5.3290   -6.4050    6.4480 o         1 VHI     -0.849800
     17 C17        -0.7070    0.2510   -1.1870 c         1 VHI      0.773100
     18 O18        -0.2150    0.2650   -2.4690 os        1 VHI     -0.399900
     19 O19        -1.9120    0.4770   -0.9890 o         1 VHI     -0.586000
     20 C20        -1.2000    0.4990   -3.4950 c3        1 VHI      0.194700
     21 C21        -0.5000    0.4300   -4.8110 ca        1 VHI     -0.097300
     22 C22         0.8490    0.0800   -4.9180 ca        1 VHI     -0.113500
     23 C23         1.4540    0.0240   -6.1740 ca        1 VHI     -0.134000
     24 C24         0.7180    0.3150   -7.3220 ca        1 VHI     -0.131000
     25 C25        -0.6280    0.6660   -7.2160 ca        1 VHI     -0.134000
     26 C26        -1.2380    0.7250   -5.9650 ca        1 VHI     -0.113500
     27 H2          1.0030   -1.0270    3.8650 h1        1 VHI      0.084700
     28 HN2         3.0210   -1.0780    0.8550 hn        1 VHI      0.329500
     29 H4          1.6510    0.6540    2.4710 h1        1 VHI      0.088700
     30 H5         -0.4540    0.9820    1.4930 h1        1 VHI      0.082700
     31 H6         -1.6590   -1.4900    0.8070 h1        1 VHI      0.089200
     32 H6A        -1.7150   -0.6890    2.4190 h1        1 VHI      0.089200
     33 H7          3.4060   -1.5990    3.0720 hc        1 VHI      0.054700
     34 H7A         2.6570   -2.9320    2.0930 hc        1 VHI      0.054700
     35 H8          1.6210   -3.8830    4.1520 hc        1 VHI      0.037200
     36 H8A         2.2820   -2.5210    5.1390 hc        1 VHI      0.037200
     37 H9          3.9550   -4.5640    3.5210 hc        1 VHI      0.047700
     38 H9A         4.6340   -3.1810    4.4660 hc        1 VHI      0.047700
     39 H10         3.4100   -4.1400    6.5330 hc        1 VHI      0.021200
     40 H10A        3.1050   -5.6270    5.5500 hc        1 VHI      0.021200
     41 H20        -1.9970   -0.2880   -3.4170 h1        1 VHI      0.062200
     42 H20A       -1.6600    1.5090   -3.3270 h1        1 VHI      0.062200
     43 H22         1.4320   -0.1490   -4.0060 ha        1 VHI      0.152500
     44 H23         2.5150   -0.2530   -6.2540 ha        1 VHI      0.130500
     45 H24         1.1970    0.2690   -8.3110 ha        1 VHI      0.126000
     46 H25        -1.2100    0.8960   -8.1200 ha        1 VHI      0.130500
     47 H26        -2.2990    1.0010   -5.8810 ha        1 VHI      0.152500
@<TRIPOS>BOND
     1    1    5 1   
     2    1    8 1   
     3    1   17 1   
     4    2    3 1   
     5    2    9 1   
     6    3    7 1   
     7    3   10 1   
     8    3   27 1   
     9    4    5 1   
    10    4    7 1   
    11    4   28 1   
    12    5    6 2   
    13    7    8 1   
    14    7   29 1   
    15    8    9 1   
    16    8   30 1   
    17    9   31 1   
    18    9   32 1   
    19   10   11 1   
    20   10   33 1   
    21   10   34 1   
    22   11   12 1   
    23   11   35 1   
    24   11   36 1   
    25   12   13 1   
    26   12   37 1   
    27   12   38 1   
    28   13   14 1   
    29   13   39 1   
    30   13   40 1   
    31   14   15 1   
    32   14   16 1   
    33   17   18 1   
    34   17   19 2   
    35   18   20 1   
    36   20   21 1   
    37   20   41 1   
    38   20   42 1   
    39   21   22 ar  
    40   21   26 ar  
    41   22   23 ar  
    42   22   43 1   
    43   23   24 ar  
    44   23   44 1   
    45   24   25 ar  
    46   24   45 1   
    47   25   26 ar  
    48   25   46 1   
    49   26   47 1   
@<TRIPOS>SUBSTRUCTURE
     1 VHI         1 TEMP              0 ****  ****    0 ROOT
