@<TRIPOS>MOLECULE
VHI
   47    47     1     0     0
SMALL
bcc


@<TRIPOS>ATOM
      1 N1         -0.3530    1.0650    0.5610 n         1 VHI     -0.330000
      2 S1         -0.6650   -1.1650    2.7300 ss        1 VHI      0.093000
      3 C2          0.9700   -0.8100    2.6720 c3        1 VHI     -0.229000
      4 N2          1.8750    0.9680    1.2180 n         1 VHI     -0.302000
      5 C3          1.0030    1.0380    0.0570 c2        1 VHI      0.389000
      6 O3          1.3670    1.3320   -1.1470 o         1 VHI     -0.315000
      7 C4          1.0640    0.7790    2.3130 c3        1 VHI     -0.021000
      8 C5         -0.2630    1.1740    1.9350 c3        1 VHI      0.028000
      9 C6         -1.3200    0.1310    2.7130 c3        1 VHI     -0.303000
     10 C7          1.6310   -1.6200    1.6250 c3        1 VHI     -0.155000
     11 C8          1.4160   -3.1270    1.9230 c3        1 VHI     -0.159000
     12 C9          2.7980   -3.8460    1.9560 c3        1 VHI     -0.147000
     13 C10         2.6230   -5.2780    2.4610 c3        1 VHI     -0.225000
     14 C11         3.9260   -6.0420    2.2830 c2        1 VHI      0.328000
     15 O11         4.8690   -5.9040    3.1370 o         1 VHI     -0.584500
     16 O12         4.0580   -6.8600    1.3170 o         1 VHI     -0.584500
     17 C17        -1.5650    1.2470   -0.2370 c2        1 VHI      0.427000
     18 O18        -1.5230    2.0210   -1.4390 os        1 VHI     -0.238000
     19 O19        -2.6670    0.7270    0.1490 o         1 VHI     -0.397000
     20 C20        -2.6790    1.9440   -2.1990 c3        1 VHI      0.037000
     21 C21        -2.5510    2.8760   -3.4260 c2        1 VHI     -0.090000
     22 C22        -3.1550    2.5330   -4.6200 c2        1 VHI     -0.130000
     23 C23        -3.1660    3.4300   -5.6690 c1        1 VHI     -0.137000
     24 C24        -2.5770    4.6590   -5.5280 c1        1 VHI     -0.131000
     25 C25        -1.9720    5.0050   -4.3390 c1        1 VHI     -0.131000
     26 C26        -1.9580    4.1180   -3.2880 c1        1 VHI     -0.097000
     27 H2          1.3940   -0.9830    3.5620 h1        1 VHI      0.124000
     28 HN2         2.7510    0.9380    1.2110 hn        1 VHI      0.243000
     29 H4          1.3770    1.2900    3.0730 h1        1 VHI      0.128000
     30 H5         -0.4330    2.1020    2.2170 h1        1 VHI      0.122000
     31 H6         -2.1660    0.0770    2.2130 h1        1 VHI      0.128500
     32 H6A        -1.4870    0.4300    3.6180 h1        1 VHI      0.128500
     33 H7          1.2490   -1.4020    0.7530 hc        1 VHI      0.094000
     34 H7A         2.5750   -1.4260    1.6210 hc        1 VHI      0.094000
     35 H8          0.8460   -3.5330    1.2110 hc        1 VHI      0.076500
     36 H8A         0.9820   -3.2220    2.7770 hc        1 VHI      0.076500
     37 H9          3.3790   -3.3780    2.5350 hc        1 VHI      0.087000
     38 H9A         3.1790   -3.8630    1.0520 hc        1 VHI      0.087000
     39 H10         2.3920   -5.2630    3.3870 hc        1 VHI      0.060500
     40 H10A        1.9260   -5.7100    1.9630 hc        1 VHI      0.060500
     41 H20        -2.8190    0.9640   -2.5190 h1        1 VHI      0.101500
     42 H20A       -3.4760    2.2360   -1.6340 h1        1 VHI      0.101500
     43 H22        -3.6430    1.6970   -4.6940 ha        1 VHI      0.127000
     44 H23        -3.5880    3.1920   -6.5030 ha        1 VHI      0.126000
     45 H24        -2.5120    5.2590   -6.3000 ha        1 VHI      0.130500
     46 H25        -1.5770    5.8380   -4.2500 ha        1 VHI      0.130500
     47 H26        -1.5330    4.3630   -2.4510 ha        1 VHI      0.178000
@<TRIPOS>BOND
     1    1    5 1   
     2    1    8 1   
     3    1   17 1   
     4    2    3 1   
     5    2    9 1   
     6    3    7 1   
     7    3   10 1   
     8    3   27 1   
     9    4    5 1   
    10    4    7 1   
    11    4   28 1   
    12    5    6 1   
    13    7    8 1   
    14    7   29 1   
    15    8    9 1   
    16    8   30 1   
    17    9   31 1   
    18    9   32 1   
    19   10   11 1   
    20   10   33 1   
    21   10   34 1   
    22   11   12 1   
    23   11   35 1   
    24   11   36 1   
    25   12   13 1   
    26   12   37 1   
    27   12   38 1   
    28   13   14 1   
    29   13   39 1   
    30   13   40 1   
    31   14   15 1   
    32   14   16 1   
    33   17   18 1   
    34   17   19 1   
    35   18   20 1   
    36   20   21 1   
    37   20   41 1   
    38   20   42 1   
    39   21   22 1   
    40   21   26 1   
    41   22   23 1   
    42   22   43 1   
    43   23   44 1   
    44   24   25 1   
    45   24   45 1   
    46   25   46 1   
    47   26   47 1   
@<TRIPOS>SUBSTRUCTURE
     1 VHI         1 TEMP              0 ****  ****    0 ROOT
