@<TRIPOS>MOLECULE
VHS
   52    55     1     0     0
SMALL
bcc


@<TRIPOS>ATOM
      1 CL2        -0.2950    0.6700   -0.7680 cl        1 VHS     -0.055400
      2 C18         1.3840    0.9210   -0.6480 ca        1 VHS     -0.011600
      3 C12         1.8570    1.9020    0.2520 ca        1 VHS      0.133900
      4 F           1.0060    2.6370    1.0040 f         1 VHS     -0.119900
      5 C2          3.2400    2.1290    0.3810 ca        1 VHS     -0.148000
      6 C3          4.1290    1.3840   -0.3770 ca        1 VHS     -0.108000
      7 C13         3.6600    0.4110   -1.2700 ca        1 VHS      0.016400
      8 CL          4.8480   -0.4470   -2.1350 cl        1 VHS     -0.065400
      9 C17         2.2870    0.1670   -1.4250 ca        1 VHS     -0.067300
     10 C21         1.7460   -0.8820   -2.3660 c3        1 VHS      0.175400
     11 C1          2.1060   -2.2890   -1.9190 c3        1 VHS     -0.097100
     12 O27         2.2820   -0.7270   -3.6950 os        1 VHS     -0.319900
     13 C15         1.5380    0.1020   -4.5230 ca        1 VHS     -0.088200
     14 C4          0.2270   -0.2100   -4.8760 ca        1 VHS     -0.080000
     15 C19         2.1890    1.2450   -5.1090 ca        1 VHS      0.644200
     16 N22         3.5410    1.4740   -4.8860 nh        1 VHS     -0.933500
     17 N23         1.4950    2.0690   -5.9630 nb        1 VHS     -0.718000
     18 C5          0.2330    1.7500   -6.2650 ca        1 VHS      0.434200
     19 C14        -0.4620    0.6210   -5.7710 ca        1 VHS     -0.142300
     20 C16        -1.8110    0.3460   -6.1670 cc        1 VHS     -0.197300
     21 C7         -2.7060    1.1830   -6.8620 cd        1 VHS     -0.134300
     22 C6         -2.5680   -0.8720   -5.9400 cc        1 VHS      0.303200
     23 N24        -3.8130   -0.7590   -6.4610 nd        1 VHS     -0.508800
     24 N26        -3.8970    0.4650   -7.0100 na        1 VHS      0.091400
     25 C20        -5.0930    0.9730   -7.6830 c3        1 VHS      0.065000
     26 C8         -4.8280    1.2940   -9.1620 c3        1 VHS     -0.093400
     27 C10        -6.1130    1.7930   -9.8200 c3        1 VHS      0.163800
     28 N25        -6.7040    2.9220   -9.1300 n3        1 VHS     -0.824200
     29 C11        -6.9150    2.6930   -7.7150 c3        1 VHS      0.163800
     30 C9         -5.6560    2.2230   -6.9890 c3        1 VHS     -0.093400
     31 H2          3.5980    2.8950    1.0840 ha        1 VHS      0.161000
     32 H3          5.2120    1.5580   -0.2720 ha        1 VHS      0.158000
     33 H21         0.6210   -0.7950   -2.4150 h1        1 VHS      0.072700
     34 H11C        1.8250   -2.4220   -0.8480 hc        1 VHS      0.054367
     35 H12C        1.5470   -3.0280   -2.5430 hc        1 VHS      0.054367
     36 H13C        3.1970   -2.4850   -2.0430 hc        1 VHS      0.054367
     37 H4         -0.2620   -1.0990   -4.4500 ha        1 VHS      0.144000
     38 H221        3.9200    1.0140   -4.0900 hn        1 VHS      0.422300
     39 H222        3.8960    2.3780   -5.0910 hn        1 VHS      0.422300
     40 H5         -0.2680    2.4510   -6.9590 h4        1 VHS      0.018100
     41 H7         -2.5890    2.1970   -7.2440 h4        1 VHS      0.178000
     42 H6         -2.2330   -1.7790   -5.4370 h4        1 VHS      0.042100
     43 H20        -5.8820    0.1610   -7.6360 h1        1 VHS      0.085700
     44 H81C       -4.0260    2.0720   -9.2490 hc        1 VHS      0.061200
     45 H82C       -4.4830    0.3770   -9.7030 hc        1 VHS      0.061200
     46 H91C       -5.9220    1.9920   -5.9260 hc        1 VHS      0.061200
     47 H92C       -4.8890    3.0400   -6.9850 hc        1 VHS      0.061200
     48 H101       -5.8720    2.1300  -10.8680 h1        1 VHS      0.034200
     49 H102       -6.8290    0.9210   -9.8980 h1        1 VHS      0.034200
     50 H25        -7.5670    3.1830   -9.5700 hn        1 VHS      0.368800
     51 H111       -7.2460    3.6710   -7.2630 h1        1 VHS      0.034200
     52 H112       -7.7340    1.9360   -7.5240 h1        1 VHS      0.034200
@<TRIPOS>BOND
     1    1    2 1   
     2    2    3 ar  
     3    2    9 ar  
     4    3    4 1   
     5    3    5 ar  
     6    5    6 ar  
     7    5   31 1   
     8    6    7 ar  
     9    6   32 1   
    10    7    8 1   
    11    7    9 ar  
    12    9   10 1   
    13   10   11 1   
    14   10   12 1   
    15   10   33 1   
    16   11   34 1   
    17   11   35 1   
    18   11   36 1   
    19   12   13 1   
    20   13   14 ar  
    21   13   15 ar  
    22   14   19 ar  
    23   14   37 1   
    24   15   16 1   
    25   15   17 ar  
    26   16   38 1   
    27   16   39 1   
    28   17   18 ar  
    29   18   19 ar  
    30   18   40 1   
    31   19   20 1   
    32   20   21 2   
    33   20   22 1   
    34   21   24 1   
    35   21   41 1   
    36   22   23 2   
    37   22   42 1   
    38   23   24 1   
    39   24   25 1   
    40   25   26 1   
    41   25   30 1   
    42   25   43 1   
    43   26   27 1   
    44   26   44 1   
    45   26   45 1   
    46   27   28 1   
    47   27   48 1   
    48   27   49 1   
    49   28   29 1   
    50   28   50 1   
    51   29   30 1   
    52   29   51 1   
    53   29   52 1   
    54   30   46 1   
    55   30   47 1   
@<TRIPOS>SUBSTRUCTURE
     1 VHS         1 TEMP              0 ****  ****    0 ROOT
