@<TRIPOS>MOLECULE
VHS
   53    56     1     0     0
SMALL
bcc


@<TRIPOS>ATOM
      1 CL2         0.3580   -0.1200    0.4360 cl        1 VHS     -0.039400
      2 C18         2.0390   -0.0290    0.2120 ca        1 VHS     -0.011600
      3 C12         2.8800   -0.0130    1.3490 ca        1 VHS      0.155900
      4 F           2.3690   -0.0640    2.5970 f         1 VHS     -0.101900
      5 C2          4.2780    0.0570    1.1890 ca        1 VHS     -0.131000
      6 C3          4.8230    0.1100   -0.0830 ca        1 VHS     -0.094000
      7 C13         3.9900    0.0930   -1.2090 ca        1 VHS      0.029400
      8 CL          4.7810    0.1460   -2.7260 cl        1 VHS     -0.109400
      9 C17         2.5960    0.0210   -1.0820 ca        1 VHS     -0.068300
     10 C21         1.6680   -0.0260   -2.2680 c3        1 VHS      0.200400
     11 C1          1.7820   -1.3220   -3.0430 c3        1 VHS     -0.135100
     12 O27         2.0310    1.1210   -3.0830 os        1 VHS     -0.359900
     13 C15         1.2560    1.4180   -4.1680 ca        1 VHS      0.116800
     14 C4         -0.0690    1.0120   -4.3850 ca        1 VHS     -0.191000
     15 C19         1.8660    2.2710   -5.1330 ca        1 VHS      0.328200
     16 N22         3.2500    2.7260   -4.9270 n4        1 VHS     -0.792300
     17 N23         1.2140    2.7130   -6.2510 nb        1 VHS     -0.608000
     18 C5         -0.0380    2.3130   -6.4300 ca        1 VHS      0.376200
     19 C14        -0.7500    1.4550   -5.5260 ca        1 VHS      0.048700
     20 C16        -2.0930    1.0810   -5.7910 cc        1 VHS     -0.298300
     21 C7         -2.9080    1.4380   -6.8990 cd        1 VHS     -0.071300
     22 C6         -2.9580    0.2370   -4.9790 cc        1 VHS      0.341200
     23 N24        -4.1700    0.1130   -5.5620 nd        1 VHS     -0.482800
     24 N26        -4.1370    0.8280   -6.7050 na        1 VHS      0.123400
     25 C20        -5.2790    0.9410   -7.6270 c3        1 VHS      0.051000
     26 C8         -4.9470    0.3670   -9.0120 c3        1 VHS     -0.093400
     27 C10        -6.1630    0.5060   -9.9300 c3        1 VHS      0.163300
     28 N25        -6.6420    1.8710  -10.0180 n3        1 VHS     -0.828200
     29 C11        -6.9390    2.4590   -8.7280 c3        1 VHS      0.163300
     30 C9         -5.7540    2.3950   -7.7640 c3        1 VHS     -0.093400
     31 H2          4.9230    0.0670    2.0830 ha        1 VHS      0.178000
     32 H3          5.9190    0.1590   -0.2050 ha        1 VHS      0.170000
     33 H21         0.6000    0.1300   -1.9340 h1        1 VHS      0.084700
     34 H11C        2.8220   -1.4900   -3.4110 hc        1 VHS      0.067700
     35 H12C        1.0910   -1.3070   -3.9210 hc        1 VHS      0.067700
     36 H13C        1.4990   -2.1740   -2.3760 hc        1 VHS      0.067700
     37 H4         -0.5730    0.3520   -3.6620 ha        1 VHS      0.174000
     38 H221        3.7100    2.0740   -4.2740 hn        1 VHS      0.467467
     39 H222        3.2400    3.6660   -4.5190 hn        1 VHS      0.467467
     40 H5         -0.5300    2.6880   -7.3480 h4        1 VHS      0.053100
     41 H7         -2.6930    2.0590   -7.7710 h4        1 VHS      0.190000
     42 H6         -2.7240   -0.2490   -4.0310 h4        1 VHS      0.051100
     43 H20        -6.1270    0.3320   -7.1850 h1        1 VHS      0.101700
     44 H81C       -4.0720    0.9080   -9.4560 hc        1 VHS      0.060700
     45 H82C       -4.6840   -0.7190   -8.9320 hc        1 VHS      0.060700
     46 H91C       -6.0820    2.7940   -6.7700 hc        1 VHS      0.060700
     47 H92C       -4.9200    3.0410   -8.1440 hc        1 VHS      0.060700
     48 H101       -6.9610   -0.2060   -9.5650 h1        1 VHS      0.043700
     49 H102       -5.8650    0.1840  -10.9680 h1        1 VHS      0.043700
     50 H25        -7.4410    1.9240  -10.6210 hn        1 VHS      0.382800
     51 H111       -7.8260    1.9690   -8.2270 h1        1 VHS      0.043700
     52 H112       -7.2000    3.5410   -8.9020 h1        1 VHS      0.043700
     53 H223        3.7570    2.7490   -5.8190 hn        1 VHS      0.467467
@<TRIPOS>BOND
     1    1    2 1   
     2    2    3 ar  
     3    2    9 ar  
     4    3    4 1   
     5    3    5 ar  
     6    5    6 ar  
     7    5   31 1   
     8    6    7 ar  
     9    6   32 1   
    10    7    8 1   
    11    7    9 ar  
    12    9   10 1   
    13   10   11 1   
    14   10   12 1   
    15   10   33 1   
    16   11   34 1   
    17   11   35 1   
    18   11   36 1   
    19   12   13 1   
    20   13   14 ar  
    21   13   15 ar  
    22   14   19 ar  
    23   14   37 1   
    24   15   16 1   
    25   15   17 ar  
    26   16   38 1   
    27   16   39 1   
    28   16   53 1   
    29   17   18 ar  
    30   18   19 ar  
    31   18   40 1   
    32   19   20 1   
    33   20   21 2   
    34   20   22 1   
    35   21   24 1   
    36   21   41 1   
    37   22   23 2   
    38   22   42 1   
    39   23   24 1   
    40   24   25 1   
    41   25   26 1   
    42   25   30 1   
    43   25   43 1   
    44   26   27 1   
    45   26   44 1   
    46   26   45 1   
    47   27   28 1   
    48   27   48 1   
    49   27   49 1   
    50   28   29 1   
    51   28   50 1   
    52   29   30 1   
    53   29   51 1   
    54   29   52 1   
    55   30   46 1   
    56   30   47 1   
@<TRIPOS>SUBSTRUCTURE
     1 VHS         1 TEMP              0 ****  ****    0 ROOT
