@<TRIPOS>MOLECULE
VHS
   52    55     1     0     0
SMALL
bcc


@<TRIPOS>ATOM
      1 Cl2        -0.3180    0.7420   -0.7540 cl        1 VHS     -0.055400
      2 C18         1.3640    0.9690   -0.6300 ca        1 VHS     -0.011600
      3 C12         1.8470    1.9570    0.2560 ca        1 VHS      0.133900
      4 F           1.0040    2.7170    0.9920 f         1 VHS     -0.119900
      5 C2          3.2330    2.1660    0.3880 ca        1 VHS     -0.148000
      6 C3          4.1140    1.3950   -0.3530 ca        1 VHS     -0.108000
      7 C13         3.6350    0.4150   -1.2320 ca        1 VHS      0.016400
      8 Cl          4.8130   -0.4750   -2.0770 cl        1 VHS     -0.065400
      9 C17         2.2580    0.1880   -1.3900 ca        1 VHS     -0.067300
     10 C21         1.7060   -0.8670   -2.3170 c3        1 VHS      0.175400
     11 C1          2.0430   -2.2720   -1.8440 c3        1 VHS     -0.097100
     12 O27         2.2520   -0.7430   -3.6450 os        1 VHS     -0.319900
     13 C15         1.5230    0.0810   -4.4910 ca        1 VHS     -0.088200
     14 C4          0.2100   -0.2220   -4.8480 ca        1 VHS     -0.080000
     15 C19         2.1910    1.2060   -5.0920 ca        1 VHS      0.644200
     16 N22         3.5440    1.4240   -4.8630 nv        1 VHS     -0.933500
     17 N23         1.5120    2.0240   -5.9640 nb        1 VHS     -0.718000
     18 C5          0.2490    1.7140   -6.2690 ca        1 VHS      0.434200
     19 C14        -0.4630    0.6020   -5.7620 ca        1 VHS     -0.142300
     20 C16        -1.8110    0.3360   -6.1620 cc        1 VHS     -0.197300
     21 C7         -2.6920    1.1700   -6.8790 cd        1 VHS     -0.134300
     22 C6         -2.5850   -0.8690   -5.9190 cc        1 VHS      0.303200
     23 N24        -3.8250   -0.7520   -6.4510 nd        1 VHS     -0.508800
     24 N26        -3.8900    0.4630   -7.0220 na        1 VHS      0.091400
     25 C20        -5.0750    0.9730   -7.7130 c3        1 VHS      0.065000
     26 C8         -4.7950    1.2670   -9.1950 c3        1 VHS     -0.093400
     27 C10        -6.0700    1.7690   -9.8710 c3        1 VHS      0.163800
     28 N25        -6.6540    2.9160   -9.2040 n7        1 VHS     -0.824200
     29 C11        -6.8790    2.7120   -7.7870 c3        1 VHS      0.163800
     30 C9         -5.6300    2.2400   -7.0440 c3        1 VHS     -0.093400
     31 H2          3.5990    2.9380    1.0810 ha        1 VHS      0.161000
     32 H3          5.1990    1.5550   -0.2450 ha        1 VHS      0.158000
     33 H21         0.5830   -0.7640   -2.3730 h1        1 VHS      0.072700
     34 H11C        3.1320   -2.4860   -1.9570 hc        1 VHS      0.054367
     35 H12C        1.4770   -3.0130   -2.4590 hc        1 VHS      0.054367
     36 H13C        1.7530   -2.3840   -0.7730 hc        1 VHS      0.054367
     37 H4         -0.2910   -1.0980   -4.4110 ha        1 VHS      0.144000
     38 H221        3.9100    2.3210   -5.0810 hn        1 VHS      0.422300
     39 H222        3.9130    0.9730   -4.0570 hn        1 VHS      0.422300
     40 H5         -0.2390    2.4090   -6.9780 h4        1 VHS      0.018100
     41 H7         -2.5610    2.1750   -7.2780 h4        1 VHS      0.178000
     42 H6         -2.2640   -1.7710   -5.3970 h4        1 VHS      0.042100
     43 H20        -5.8730    0.1710   -7.6590 h1        1 VHS      0.085700
     44 H81C       -4.4560    0.3370   -9.7190 hc        1 VHS      0.061200
     45 H82C       -3.9840    2.0350   -9.2890 hc        1 VHS      0.061200
     46 H91C       -4.8540    3.0490   -7.0480 hc        1 VHS      0.061200
     47 H92C       -5.9070    2.0290   -5.9790 hc        1 VHS      0.061200
     48 H101       -6.7940    0.9030   -9.9410 h1        1 VHS      0.034200
     49 H102       -5.8170    2.0860  -10.9230 h1        1 VHS      0.034200
     50 H25        -7.5100    3.1780   -9.6550 hn        1 VHS      0.368800
     51 H111       -7.7060    1.9660   -7.5910 h1        1 VHS      0.034200
     52 H112       -7.2020    3.7000   -7.3540 h1        1 VHS      0.034200
@<TRIPOS>BOND
     1    1    2 1   
     2    2    3 ar  
     3    2    9 ar  
     4    3    4 1   
     5    3    5 ar  
     6    5    6 ar  
     7    5   31 1   
     8    6    7 ar  
     9    6   32 1   
    10    7    8 1   
    11    7    9 ar  
    12    9   10 1   
    13   10   11 1   
    14   10   12 1   
    15   10   33 1   
    16   11   34 1   
    17   11   35 1   
    18   11   36 1   
    19   12   13 1   
    20   13   14 ar  
    21   13   15 ar  
    22   14   19 ar  
    23   14   37 1   
    24   15   16 1   
    25   15   17 ar  
    26   16   38 1   
    27   16   39 1   
    28   17   18 ar  
    29   18   19 ar  
    30   18   40 1   
    31   19   20 1   
    32   20   21 2   
    33   20   22 1   
    34   21   24 1   
    35   21   41 1   
    36   22   23 2   
    37   22   42 1   
    38   23   24 1   
    39   24   25 1   
    40   25   26 1   
    41   25   30 1   
    42   25   43 1   
    43   26   27 1   
    44   26   44 1   
    45   26   45 1   
    46   27   28 1   
    47   27   48 1   
    48   27   49 1   
    49   28   29 1   
    50   28   50 1   
    51   29   30 1   
    52   29   51 1   
    53   29   52 1   
    54   30   46 1   
    55   30   47 1   
@<TRIPOS>SUBSTRUCTURE
     1 VHS         1 TEMP              0 ****  ****    0 ROOT
