@<TRIPOS>MOLECULE
VI
   33    35     1     0     0
SMALL
bcc


@<TRIPOS>ATOM
      1 O23         2.1840    2.4670   -1.2440 o         1 VI      -0.823300
      2 C18         1.7290    2.1570   -0.1120 c         1 VI       0.944200
      3 O22         2.1360    2.6580    0.9760 o         1 VI      -0.823300
      4 C4          0.6870    1.0490   -0.0390 cc        1 VI      -0.076900
      5 N5          1.0620   -0.3290    0.0170 na        1 VI       0.132300
      6 C6          2.3710   -0.8620    0.0780 ca        1 VI       0.087800
      7 C11         3.4120   -0.1690    0.7410 ca        1 VI      -0.144000
      8 C10         4.6870   -0.7190    0.8020 ca        1 VI      -0.136500
      9 C9          4.9640   -1.9620    0.2330 ca        1 VI      -0.186000
     10 C8          3.9450   -2.6550   -0.4160 ca        1 VI      -0.136500
     11 C7          2.6630   -2.1200   -0.5020 ca        1 VI      -0.144000
     12 N1         -0.0120   -1.1450    0.0240 nc        1 VI      -0.588800
     13 C3         -0.7140    1.0680   -0.0510 cd        1 VI      -0.236900
     14 C19        -1.6750    2.2230   -0.1050 c         1 VI       0.945200
     15 O21        -1.9770    2.7230   -1.2250 o         1 VI      -0.843800
     16 O20        -2.2110    2.6120    0.9800 o         1 VI      -0.843800
     17 C2         -1.1140   -0.3370   -0.0060 cd        1 VI       0.346800
     18 C12        -2.4650   -0.8800    0.0150 ca        1 VI      -0.060500
     19 C17        -2.7460   -2.1220   -0.5770 ca        1 VI      -0.115500
     20 C16        -4.0340   -2.6540   -0.5320 ca        1 VI      -0.158000
     21 C15        -5.0590   -1.9550    0.1010 ca        1 VI      -0.168000
     22 C14        -4.7890   -0.7170    0.6850 ca        1 VI      -0.158000
     23 C13        -3.5060   -0.1780    0.6470 ca        1 VI      -0.115500
     24 H11         3.2150    0.8260    1.1930 ha        1 VI       0.175000
     25 H10         5.4850   -0.1600    1.3110 ha        1 VI       0.105500
     26 H9          5.9740   -2.3870    0.2910 ha        1 VI       0.097000
     27 H8          4.1520   -3.6330   -0.8730 ha        1 VI       0.105500
     28 H7          1.8790   -2.6860   -1.0260 ha        1 VI       0.175000
     29 H17        -1.9450   -2.6800   -1.0840 ha        1 VI       0.173000
     30 H16        -4.2400   -3.6260   -1.0010 ha        1 VI       0.102500
     31 H15        -6.0740   -2.3730    0.1340 ha        1 VI       0.092000
     32 H14        -5.5960   -0.1550    1.1760 ha        1 VI       0.102500
     33 H13        -3.2900    0.8170    1.0920 ha        1 VI       0.173000
@<TRIPOS>BOND
     1    1    2 1   
     2    2    3 1   
     3    2    4 1   
     4    4    5 1   
     5    4   13 2   
     6    5    6 1   
     7    5   12 1   
     8    6    7 ar  
     9    6   11 ar  
    10    7    8 ar  
    11    7   24 1   
    12    8    9 ar  
    13    8   25 1   
    14    9   10 ar  
    15    9   26 1   
    16   10   11 ar  
    17   10   27 1   
    18   11   28 1   
    19   12   17 2   
    20   13   14 1   
    21   13   17 1   
    22   14   15 1   
    23   14   16 1   
    24   17   18 1   
    25   18   19 ar  
    26   18   23 ar  
    27   19   20 ar  
    28   19   29 1   
    29   20   21 ar  
    30   20   30 1   
    31   21   22 ar  
    32   21   31 1   
    33   22   23 ar  
    34   22   32 1   
    35   23   33 1   
@<TRIPOS>SUBSTRUCTURE
     1 VI          1 TEMP              0 ****  ****    0 ROOT
