@<TRIPOS>MOLECULE
VI
   33    35     1     0     0
SMALL
bcc


@<TRIPOS>ATOM
      1 O23         0.7730   -1.0290    0.5300 o         1 VI      -0.823300
      2 C18         1.2730    0.0540    0.1280 c         1 VI       0.944200
      3 O22         1.0450    1.1790    0.6600 o         1 VI      -0.823300
      4 C4          2.1360    0.0220   -1.1250 cc        1 VI      -0.076900
      5 N5          1.5620    0.0990   -2.4320 na        1 VI       0.132300
      6 C6          0.1980    0.2730   -2.7630 ca        1 VI       0.087800
      7 C11        -0.6630    1.0340   -1.9350 ca        1 VI      -0.144000
      8 C10        -1.9960    1.2050   -2.2890 ca        1 VI      -0.136500
      9 C9         -2.5080    0.6510   -3.4620 ca        1 VI      -0.186000
     10 C8         -1.6680   -0.0930   -4.2860 ca        1 VI      -0.136500
     11 C7         -0.3320   -0.2890   -3.9490 ca        1 VI      -0.144000
     12 N1          2.4970    0.0010   -3.4000 nc        1 VI      -0.588800
     13 C3          3.5180   -0.1160   -1.3170 cd        1 VI      -0.236900
     14 C19         4.6350   -0.2470   -0.3200 c         1 VI       0.945200
     15 O21         4.9100   -1.3850    0.1540 o         1 VI      -0.843800
     16 O20         5.3170    0.7890   -0.0410 o         1 VI      -0.843800
     17 C2          3.7010   -0.1220   -2.7680 cd        1 VI       0.346800
     18 C12         4.9500   -0.2280   -3.5090 ca        1 VI      -0.060500
     19 C17         4.9860   -0.8550   -4.7650 ca        1 VI      -0.115500
     20 C16         6.1770   -0.9310   -5.4860 ca        1 VI      -0.158000
     21 C15         7.3480   -0.3870   -4.9640 ca        1 VI      -0.168000
     22 C14         7.3230    0.2310   -3.7130 ca        1 VI      -0.158000
     23 C13         6.1380    0.3140   -2.9870 ca        1 VI      -0.115500
     24 H11        -0.2780    1.4750   -0.9930 ha        1 VI       0.175000
     25 H10        -2.6520    1.7890   -1.6270 ha        1 VI       0.105500
     26 H9         -3.5620    0.7970   -3.7310 ha        1 VI       0.097000
     27 H8         -2.0600   -0.5390   -5.2110 ha        1 VI       0.105500
     28 H7          0.3080   -0.8880   -4.6140 ha        1 VI       0.175000
     29 H17         4.0680   -1.2920   -5.1840 ha        1 VI       0.173000
     30 H16         6.1900   -1.4260   -6.4660 ha        1 VI       0.102500
     31 H15         8.2860   -0.4500   -5.5310 ha        1 VI       0.092000
     32 H14         8.2460    0.6520   -3.2910 ha        1 VI       0.102500
     33 H13         6.1160    0.7860   -1.9800 ha        1 VI       0.173000
@<TRIPOS>BOND
     1    1    2 1   
     2    2    3 1   
     3    2    4 1   
     4    4    5 1   
     5    4   13 2   
     6    5    6 1   
     7    5   12 1   
     8    6    7 ar  
     9    6   11 ar  
    10    7    8 ar  
    11    7   24 1   
    12    8    9 ar  
    13    8   25 1   
    14    9   10 ar  
    15    9   26 1   
    16   10   11 ar  
    17   10   27 1   
    18   11   28 1   
    19   12   17 2   
    20   13   14 1   
    21   13   17 1   
    22   14   15 1   
    23   14   16 1   
    24   17   18 1   
    25   18   19 ar  
    26   18   23 ar  
    27   19   20 ar  
    28   19   29 1   
    29   20   21 ar  
    30   20   30 1   
    31   21   22 ar  
    32   21   31 1   
    33   22   23 ar  
    34   22   32 1   
    35   23   33 1   
@<TRIPOS>SUBSTRUCTURE
     1 VI          1 TEMP              0 ****  ****    0 ROOT
