@<TRIPOS>MOLECULE
VIA
   63    66     1     0     0
SMALL
bcc


@<TRIPOS>ATOM
      1 C34         1.8320   -0.0130    5.5390 c3        1 VIA     -0.094100
      2 C33         2.5530    0.3230    4.2580 c3        1 VIA     -0.078400
      3 C32         2.6470   -0.8910    3.3560 c3        1 VIA     -0.101700
      4 C30         3.4240   -0.6530    2.1200 cc        1 VIA      0.339600
      5 N29         3.5910    0.5490    1.4910 nd        1 VIA     -0.479800
      6 N28         4.3340    0.3650    0.3930 na        1 VIA      0.142400
      7 C31         4.7250    1.4260   -0.5090 c3        1 VIA      0.028600
      8 C24         4.6920   -0.9750    0.2540 cd        1 VIA     -0.217900
      9 C23         5.4630   -1.6880   -0.7560 c         1 VIA      0.735100
     10 O27         5.9840   -1.1950   -1.7740 o         1 VIA     -0.641500
     11 N22         5.5940   -3.0600   -0.4860 n         1 VIA     -0.462400
     12 C21         4.9860   -3.6720    0.6250 cd        1 VIA      0.526500
     13 N26         4.2660   -3.0380    1.5490 nc        1 VIA     -0.562100
     14 C25         4.1180   -1.6820    1.3620 cc        1 VIA      0.013100
     15 C9          5.2070   -5.1350    0.7800 ca        1 VIA     -0.200900
     16 C8          5.6090   -5.6260    2.0220 ca        1 VIA      0.061000
     17 C7          5.8040   -6.9940    2.2410 ca        1 VIA     -0.417500
     18 C6          5.5930   -7.8790    1.1770 ca        1 VIA      0.035000
     19 C5          5.1920   -7.4240   -0.0710 ca        1 VIA     -0.240000
     20 C4          4.9940   -6.0490   -0.2800 ca        1 VIA      0.212100
     21 O3          4.6070   -5.5110   -1.4800 os        1 VIA     -0.334900
     22 C2          4.2810   -6.4380   -2.5330 c3        1 VIA      0.130400
     23 C1          3.8080   -5.5890   -3.6900 c3        1 VIA     -0.105100
     24 S10         6.3240   -7.5620    3.7470 sy        1 VIA      1.514200
     25 O11         6.8420   -8.8650    3.5600 o         1 VIA     -0.653300
     26 O12         7.1980   -6.6010    4.2970 o         1 VIA     -0.653300
     27 N14         4.9590   -7.6310    4.6210 n3        1 VIA     -0.818500
     28 C19         4.1580   -8.8230    4.7390 c3        1 VIA      0.222800
     29 C18         3.7850   -9.1680    6.1970 c3        1 VIA      0.156800
     30 N17         3.2380   -8.0330    6.9260 n3        1 VIA     -0.730600
     31 C20         2.9220   -8.3590    8.2980 c3        1 VIA      0.156100
     32 C16         4.0710   -6.8440    6.8160 c3        1 VIA      0.156800
     33 C15         4.4440   -6.5040    5.3570 c3        1 VIA      0.222800
     34 H341        1.7620    0.8920    6.1900 hc        1 VIA      0.032700
     35 H342        2.3740   -0.8110    6.1010 hc        1 VIA      0.032700
     36 H343        0.7970   -0.3760    5.3270 hc        1 VIA      0.032700
     37 H331        2.0110    1.1490    3.7270 hc        1 VIA      0.049700
     38 H332        3.5830    0.6990    4.4920 hc        1 VIA      0.049700
     39 H321        1.6130   -1.2250    3.0650 hc        1 VIA      0.061700
     40 H322        3.1270   -1.7410    3.9140 hc        1 VIA      0.061700
     41 H311        5.3170    0.9740   -1.3500 h1        1 VIA      0.072700
     42 H312        5.3520    2.1780    0.0400 h1        1 VIA      0.072700
     43 H313        3.8100    1.9350   -0.9140 h1        1 VIA      0.072700
     44 H22         6.0400   -3.6360   -1.1670 hn        1 VIA      0.346500
     45 H8          5.7900   -4.9180    2.8530 ha        1 VIA      0.169000
     46 H6          5.7650   -8.9610    1.3340 ha        1 VIA      0.162000
     47 H5          5.0360   -8.1450   -0.8860 ha        1 VIA      0.150000
     48 H21         3.4760   -7.1330   -2.1780 h1        1 VIA      0.047200
     49 H22A        5.2010   -7.0210   -2.8020 h1        1 VIA      0.047200
     50 H11         4.6090   -4.8810   -4.0110 hc        1 VIA      0.056700
     51 H12         3.5450   -6.2580   -4.5440 hc        1 VIA      0.056700
     52 H13         2.9090   -4.9950   -3.3980 hc        1 VIA      0.056700
     53 H191        3.2060   -8.6890    4.1480 h1        1 VIA      0.059700
     54 H192        4.7270   -9.6980    4.3130 h1        1 VIA      0.059700
     55 H181        4.6940   -9.5970    6.7120 h1        1 VIA      0.041700
     56 H182        2.9950   -9.9690    6.1660 h1        1 VIA      0.041700
     57 H201        2.4240   -7.4740    8.7730 h1        1 VIA      0.034367
     58 H202        3.8240   -8.6330    8.9110 h1        1 VIA      0.034367
     59 H203        2.2080   -9.2240    8.3070 h1        1 VIA      0.034367
     60 H161        5.0200   -6.9400    7.4200 h1        1 VIA      0.041700
     61 H162        3.4850   -5.9750    7.2280 h1        1 VIA      0.041700
     62 H151        3.5250   -6.1080    4.8340 h1        1 VIA      0.059700
     63 H152        5.2240   -5.6890    5.3810 h1        1 VIA      0.059700
@<TRIPOS>BOND
     1    1    2 1   
     2    1   34 1   
     3    1   35 1   
     4    1   36 1   
     5    2    3 1   
     6    2   37 1   
     7    2   38 1   
     8    3    4 1   
     9    3   39 1   
    10    3   40 1   
    11    4    5 2   
    12    4   14 1   
    13    5    6 1   
    14    6    7 1   
    15    6    8 1   
    16    7   41 1   
    17    7   42 1   
    18    7   43 1   
    19    8    9 1   
    20    8   14 2   
    21    9   10 2   
    22    9   11 1   
    23   11   12 1   
    24   11   44 1   
    25   12   13 2   
    26   12   15 1   
    27   13   14 1   
    28   15   16 ar  
    29   15   20 ar  
    30   16   17 ar  
    31   16   45 1   
    32   17   18 ar  
    33   17   24 1   
    34   18   19 ar  
    35   18   46 1   
    36   19   20 ar  
    37   19   47 1   
    38   20   21 1   
    39   21   22 1   
    40   22   23 1   
    41   22   48 1   
    42   22   49 1   
    43   23   50 1   
    44   23   51 1   
    45   23   52 1   
    46   24   25 2   
    47   24   26 2   
    48   24   27 1   
    49   27   28 1   
    50   27   33 1   
    51   28   29 1   
    52   28   53 1   
    53   28   54 1   
    54   29   30 1   
    55   29   55 1   
    56   29   56 1   
    57   30   31 1   
    58   30   32 1   
    59   31   57 1   
    60   31   58 1   
    61   31   59 1   
    62   32   33 1   
    63   32   60 1   
    64   32   61 1   
    65   33   62 1   
    66   33   63 1   
@<TRIPOS>SUBSTRUCTURE
     1 VIA         1 TEMP              0 ****  ****    0 ROOT
