@<TRIPOS>MOLECULE
VIA
   63    66     1     0     0
SMALL
bcc


@<TRIPOS>ATOM
      1 C34         1.3770   -0.0500    5.2270 c3        1 VIA     -0.094100
      2 C33         2.0990    0.2740    3.9430 c3        1 VIA     -0.078400
      3 C32         3.1110   -0.8020    3.6060 c3        1 VIA     -0.102700
      4 C30         3.7900   -0.5930    2.3090 cc        1 VIA      0.339600
      5 N29         4.0000    0.6100    1.6940 nd        1 VIA     -0.479800
      6 N28         4.6620    0.4030    0.5490 na        1 VIA      0.142400
      7 C31         5.0610    1.4550   -0.3590 c3        1 VIA      0.028600
      8 C24         4.9210   -0.9540    0.3630 cd        1 VIA     -0.217900
      9 C23         5.5800   -1.6940   -0.7050 c         1 VIA      0.735100
     10 O27         6.0740   -1.2130   -1.7420 o         1 VIA     -0.641500
     11 N22         5.6340   -3.0780   -0.4690 ns        1 VIA     -0.462400
     12 C21         5.0510   -3.6740    0.6630 cd        1 VIA      0.527500
     13 N26         4.4320   -3.0150    1.6420 nc        1 VIA     -0.562100
     14 C25         4.3670   -1.6470    1.4910 cc        1 VIA      0.013100
     15 C9          5.1790   -5.1510    0.7750 ca        1 VIA     -0.200900
     16 C8          5.6180   -5.6980    1.9820 ca        1 VIA      0.061000
     17 C7          5.7300   -7.0800    2.1620 ca        1 VIA     -0.417500
     18 C6          5.3970   -7.9240    1.0960 ca        1 VIA      0.035000
     19 C5          4.9570   -7.4130   -0.1180 ca        1 VIA     -0.240000
     20 C4          4.8420   -6.0230   -0.2870 ca        1 VIA      0.212100
     21 O3          4.4250   -5.4320   -1.4520 os        1 VIA     -0.334900
     22 C2          3.9750   -6.3090   -2.5010 c3        1 VIA      0.130400
     23 C1          3.4950   -5.4040   -3.6110 c3        1 VIA     -0.105100
     24 S10         6.2960   -7.7180    3.6230 sy        1 VIA      1.514200
     25 O11         6.7060   -9.0500    3.3810 o         1 VIA     -0.653300
     26 O12         7.2690   -6.8340    4.1360 o         1 VIA     -0.653300
     27 N14         4.9840   -7.7090    4.5770 n3        1 VIA     -0.818500
     28 C19         4.1060   -8.8420    4.7220 c3        1 VIA      0.222800
     29 C18         3.7970   -9.1920    6.1940 c3        1 VIA      0.156800
     30 N17         3.3780   -8.0370    6.9740 n3        1 VIA     -0.730600
     31 C20         3.1200   -8.3700    8.3570 c3        1 VIA      0.156100
     32 C16         4.2870   -6.9090    6.8350 c3        1 VIA      0.156800
     33 C15         4.5970   -6.5640    5.3630 c3        1 VIA      0.222800
     34 H341        0.6400    0.7540    5.4670 hc        1 VIA      0.033033
     35 H342        2.0980   -0.1320    6.0760 hc        1 VIA      0.033033
     36 H343        0.8270   -1.0180    5.1390 hc        1 VIA      0.033033
     37 H331        2.6160    1.2640    4.0420 hc        1 VIA      0.049700
     38 H332        1.3580    0.3680    3.1070 hc        1 VIA      0.049700
     39 H321        2.6030   -1.8050    3.5780 hc        1 VIA      0.062200
     40 H322        3.8950   -0.8480    4.4120 hc        1 VIA      0.062200
     41 H311        5.7600    2.1620    0.1630 h1        1 VIA      0.072700
     42 H312        5.5790    0.9850   -1.2390 h1        1 VIA      0.072700
     43 H313        4.1560    2.0210   -0.7050 h1        1 VIA      0.072700
     44 H22         5.9990   -3.6660   -1.1870 hn        1 VIA      0.346500
     45 H8          5.8950   -5.0230    2.8150 ha        1 VIA      0.169000
     46 H6          5.5030   -9.0180    1.2210 ha        1 VIA      0.162000
     47 H5          4.7050   -8.1020   -0.9360 ha        1 VIA      0.150000
     48 H21         3.1460   -6.9560   -2.1120 h1        1 VIA      0.047200
     49 H22A        4.8350   -6.9470   -2.8360 h1        1 VIA      0.047200
     50 H11         2.6590   -4.7560   -3.2550 hc        1 VIA      0.056367
     51 H12         4.3240   -4.7440   -3.9660 hc        1 VIA      0.056367
     52 H13         3.1370   -6.0320   -4.4610 hc        1 VIA      0.056367
     53 H191        3.1330   -8.6280    4.1920 h1        1 VIA      0.059700
     54 H192        4.5850   -9.7460    4.2460 h1        1 VIA      0.059700
     55 H181        2.9500   -9.9330    6.1960 h1        1 VIA      0.041700
     56 H182        4.7010   -9.6970    6.6440 h1        1 VIA      0.041700
     57 H201        4.0340   -8.7230    8.9090 h1        1 VIA      0.034367
     58 H202        2.3470   -9.1820    8.3930 h1        1 VIA      0.034367
     59 H203        2.7170   -7.4620    8.8770 h1        1 VIA      0.034367
     60 H161        5.2610   -7.0870    7.3790 h1        1 VIA      0.041700
     61 H162        3.7920   -6.0100    7.2980 h1        1 VIA      0.041700
     62 H151        3.6800   -6.0920    4.9040 h1        1 VIA      0.059700
     63 H152        5.4340   -5.8080    5.3540 h1        1 VIA      0.059700
@<TRIPOS>BOND
     1    1    2 1   
     2    1   34 1   
     3    1   35 1   
     4    1   36 1   
     5    2    3 1   
     6    2   37 1   
     7    2   38 1   
     8    3    4 1   
     9    3   39 1   
    10    3   40 1   
    11    4    5 2   
    12    4   14 1   
    13    5    6 1   
    14    6    7 1   
    15    6    8 1   
    16    7   41 1   
    17    7   42 1   
    18    7   43 1   
    19    8    9 1   
    20    8   14 2   
    21    9   10 2   
    22    9   11 1   
    23   11   12 1   
    24   11   44 1   
    25   12   13 2   
    26   12   15 1   
    27   13   14 1   
    28   15   16 ar  
    29   15   20 ar  
    30   16   17 ar  
    31   16   45 1   
    32   17   18 ar  
    33   17   24 1   
    34   18   19 ar  
    35   18   46 1   
    36   19   20 ar  
    37   19   47 1   
    38   20   21 1   
    39   21   22 1   
    40   22   23 1   
    41   22   48 1   
    42   22   49 1   
    43   23   50 1   
    44   23   51 1   
    45   23   52 1   
    46   24   25 2   
    47   24   26 2   
    48   24   27 1   
    49   27   28 1   
    50   27   33 1   
    51   28   29 1   
    52   28   53 1   
    53   28   54 1   
    54   29   30 1   
    55   29   55 1   
    56   29   56 1   
    57   30   31 1   
    58   30   32 1   
    59   31   57 1   
    60   31   58 1   
    61   31   59 1   
    62   32   33 1   
    63   32   60 1   
    64   32   61 1   
    65   33   62 1   
    66   33   63 1   
@<TRIPOS>SUBSTRUCTURE
     1 VIA         1 TEMP              0 ****  ****    0 ROOT
