@<TRIPOS>MOLECULE
VIA
   63    66     1     0     0
SMALL
bcc


@<TRIPOS>ATOM
      1 C34        -0.9430    5.3970    3.2050 c3        1 VIA     -0.094100
      2 C33        -0.9810    4.0970    3.9670 c3        1 VIA     -0.078400
      3 C32        -1.0880    2.9180    3.0210 c3        1 VIA     -0.102700
      4 C30        -1.0380    1.6050    3.7000 cc        1 VIA      0.339600
      5 N29        -1.4100    1.3500    4.9910 nd        1 VIA     -0.479800
      6 N28        -1.2430    0.0460    5.2410 na        1 VIA      0.142400
      7 C31        -1.5440   -0.5820    6.5080 c3        1 VIA      0.028600
      8 C24        -0.7540   -0.6170    4.1160 cd        1 VIA     -0.217900
      9 C23        -0.3930   -2.0070    3.8720 c         1 VIA      0.735100
     10 O27        -0.4520   -2.9420    4.6930 o         1 VIA     -0.641500
     11 N22         0.0500   -2.2430    2.5600 n         1 VIA     -0.462400
     12 C21         0.1790   -1.2130    1.6110 cd        1 VIA      0.527500
     13 N26        -0.1330    0.0650    1.8210 nc        1 VIA     -0.562100
     14 C25        -0.6030    0.3640    3.0810 cc        1 VIA      0.012100
     15 C9          0.6680   -1.6100    0.2640 ca        1 VIA     -0.200900
     16 C8         -0.0270   -1.1650   -0.8610 ca        1 VIA      0.061000
     17 C7          0.3990   -1.4770   -2.1570 ca        1 VIA     -0.417500
     18 C6          1.5480   -2.2620   -2.3130 ca        1 VIA      0.035000
     19 C5          2.2620   -2.7210   -1.2160 ca        1 VIA     -0.240000
     20 C4          1.8300   -2.3970    0.0820 ca        1 VIA      0.212100
     21 O3          2.4690   -2.8130    1.2210 os        1 VIA     -0.334900
     22 C2          3.7110   -3.5210    1.0480 c3        1 VIA      0.130400
     23 C1          4.2320   -3.7740    2.4430 c3        1 VIA     -0.105100
     24 S10        -0.4790   -0.9540   -3.5050 sy        1 VIA      1.514200
     25 O11        -0.0880   -1.7470   -4.6080 o         1 VIA     -0.653300
     26 O12        -1.8490   -0.9640   -3.1630 o         1 VIA     -0.653300
     27 N14         0.0250    0.5740   -3.7180 n3        1 VIA     -0.818500
     28 C19         1.1010    0.9320   -4.6050 c3        1 VIA      0.222800
     29 C18         0.7500    2.0990   -5.5540 c3        1 VIA      0.156800
     30 N17         0.1740    3.2410   -4.8580 n3        1 VIA     -0.730600
     31 C20        -0.1790    4.3140   -5.7590 c3        1 VIA      0.156100
     32 C16        -0.9280    2.8650   -3.9830 c3        1 VIA      0.156800
     33 C15        -0.5740    1.6960   -3.0390 c3        1 VIA      0.222800
     34 H341       -0.8710    6.2580    3.9140 hc        1 VIA      0.033033
     35 H342       -0.0600    5.4300    2.5210 hc        1 VIA      0.033033
     36 H343       -1.8670    5.5230    2.5910 hc        1 VIA      0.033033
     37 H331       -0.0530    3.9960    4.5890 hc        1 VIA      0.049200
     38 H332       -1.8540    4.1000    4.6710 hc        1 VIA      0.049200
     39 H321       -2.0530    2.9840    2.4470 hc        1 VIA      0.062200
     40 H322       -0.2510    2.9570    2.2720 hc        1 VIA      0.062200
     41 H311       -2.6350   -0.4620    6.7410 h1        1 VIA      0.072700
     42 H312       -1.2880   -1.6740    6.4310 h1        1 VIA      0.072700
     43 H313       -0.9390   -0.1030    7.3220 h1        1 VIA      0.072700
     44 H22         0.3910   -3.1520    2.3320 hn        1 VIA      0.346500
     45 H8         -0.9440   -0.5590   -0.7290 ha        1 VIA      0.169000
     46 H6          1.8810   -2.5320   -3.3330 ha        1 VIA      0.162000
     47 H5          3.1600   -3.3360   -1.3720 ha        1 VIA      0.150000
     48 H21         3.5100   -4.4810    0.5050 h1        1 VIA      0.047200
     49 H22A        4.4190   -2.8850    0.4550 h1        1 VIA      0.047200
     50 H11         5.1980   -4.3280    2.3730 hc        1 VIA      0.056700
     51 H12         4.4000   -2.8090    2.9800 hc        1 VIA      0.056700
     52 H13         3.5030   -4.3800    3.0320 hc        1 VIA      0.056700
     53 H191        2.0030    1.2270   -3.9940 h1        1 VIA      0.059700
     54 H192        1.3720    0.0410   -5.2420 h1        1 VIA      0.059700
     55 H181        1.7050    2.4410   -6.0410 h1        1 VIA      0.041700
     56 H182        0.0650    1.7140   -6.3650 h1        1 VIA      0.041700
     57 H201       -0.5290    5.1910   -5.1540 h1        1 VIA      0.034367
     58 H202        0.7340    4.6150   -6.3360 h1        1 VIA      0.034367
     59 H203       -0.9890    4.0370   -6.4890 h1        1 VIA      0.034367
     60 H161       -1.1760    3.7570   -3.3430 h1        1 VIA      0.041700
     61 H162       -1.8530    2.5900   -4.5700 h1        1 VIA      0.041700
     62 H151       -1.5250    1.3600   -2.5340 h1        1 VIA      0.059700
     63 H152        0.1390    2.0750   -2.2500 h1        1 VIA      0.059700
@<TRIPOS>BOND
     1    1    2 1   
     2    1   34 1   
     3    1   35 1   
     4    1   36 1   
     5    2    3 1   
     6    2   37 1   
     7    2   38 1   
     8    3    4 1   
     9    3   39 1   
    10    3   40 1   
    11    4    5 2   
    12    4   14 1   
    13    5    6 1   
    14    6    7 1   
    15    6    8 1   
    16    7   41 1   
    17    7   42 1   
    18    7   43 1   
    19    8    9 1   
    20    8   14 2   
    21    9   10 2   
    22    9   11 1   
    23   11   12 1   
    24   11   44 1   
    25   12   13 2   
    26   12   15 1   
    27   13   14 1   
    28   15   16 ar  
    29   15   20 ar  
    30   16   17 ar  
    31   16   45 1   
    32   17   18 ar  
    33   17   24 1   
    34   18   19 ar  
    35   18   46 1   
    36   19   20 ar  
    37   19   47 1   
    38   20   21 1   
    39   21   22 1   
    40   22   23 1   
    41   22   48 1   
    42   22   49 1   
    43   23   50 1   
    44   23   51 1   
    45   23   52 1   
    46   24   25 2   
    47   24   26 2   
    48   24   27 1   
    49   27   28 1   
    50   27   33 1   
    51   28   29 1   
    52   28   53 1   
    53   28   54 1   
    54   29   30 1   
    55   29   55 1   
    56   29   56 1   
    57   30   31 1   
    58   30   32 1   
    59   31   57 1   
    60   31   58 1   
    61   31   59 1   
    62   32   33 1   
    63   32   60 1   
    64   32   61 1   
    65   33   62 1   
    66   33   63 1   
@<TRIPOS>SUBSTRUCTURE
     1 VIA         1 TEMP              0 ****  ****    0 ROOT
