@<TRIPOS>MOLECULE
VIB
   35    35     1     0     0
SMALL
bcc


@<TRIPOS>ATOM
      1 CM2        -0.2710    0.5440    0.1920 c3        1 VIB     -0.150400
      2 O1          7.0710   -3.7340   -6.4550 oh        1 VIB     -0.636800
      3 C7          8.3730   -4.1750   -6.7910 c3        1 VIB      0.115700
      4 C6          4.9770   -5.0340   -2.4750 c1        1 VIB      0.041500
      5 C2          6.9320   -2.1010   -1.7160 c         1 VIB      0.047400
      6 S1          8.2920   -1.9680   -1.2340 s         1 VIB      0.244600
      7 C5          5.3620   -3.9010   -2.5110 c1        1 VIB     -0.245100
      8 C4          5.8370   -2.5600   -2.6130 cx        1 VIB      0.275300
      9 N3          5.5410   -1.6680   -1.4240 n4        1 VIB     -0.646200
     10 C7A         5.1150   -0.2570   -1.5650 c3        1 VIB      0.226100
     11 C4A         3.3840   -0.1140    0.3110 ca        1 VIB      0.677200
     12 N3A         2.0860    0.0780    0.7150 nb        1 VIB     -0.740000
     13 C2A         1.1560    0.3320   -0.2470 ca        1 VIB      0.728300
     14 N1A         1.4190    0.4270   -1.6000 nb        1 VIB     -0.704000
     15 C6A         2.6840    0.2380   -1.9790 ca        1 VIB      0.496200
     16 C5A         3.7340   -0.0450   -1.0740 ca        1 VIB     -0.464900
     17 HM21       -0.3900    0.3870    1.2920 hc        1 VIB      0.081700
     18 HM22       -0.9390   -0.1690   -0.3540 hc        1 VIB      0.081700
     19 HM23       -0.5800    1.5900   -0.0610 hc        1 VIB      0.081700
     20 H4A1        5.1920    0.0760    1.1800 hn        1 VIB      0.413800
     21 H4A2        4.0290   -0.5230    2.2030 hn        1 VIB      0.413800
     22 HM41        4.6580   -1.8350   -4.2770 hc        1 VIB      0.095033
     23 HM42        6.2940   -1.0400   -4.1170 hc        1 VIB      0.095033
     24 HM43        6.1680   -2.7450   -4.7260 hc        1 VIB      0.095033
     25 HO1         6.5160   -3.8720   -7.2310 ho        1 VIB      0.411000
     26 HC71        8.7830   -3.5800   -7.6440 h1        1 VIB      0.037367
     27 HC72        8.3660   -5.2620   -7.0520 h1        1 VIB      0.037367
     28 HC61        4.6340   -6.0440   -2.4440 ha        1 VIB      0.199500
     29 HC62        8.9870   -4.0030   -5.8720 h1        1 VIB      0.037367
     30 HC2         5.0640   -2.1190   -0.6400 hn        1 VIB      0.477800
     31 H7A1        5.1920    0.0410   -2.6510 hx        1 VIB      0.092700
     32 H7A2        5.8530    0.3660   -0.9770 hx        1 VIB      0.092700
     33 H6AC        2.8820    0.3210   -3.0660 h4        1 VIB      0.034100
     34 N4A         4.3600   -0.4710    1.2580 nh        1 VIB     -0.931500
     35 CM4         5.7310   -1.9980   -4.0070 c3        1 VIB     -0.112100
@<TRIPOS>BOND
     1    1   13 1   
     2    1   17 1   
     3    1   18 1   
     4    1   19 1   
     5    2    3 1   
     6    2   25 1   
     7    3   26 1   
     8    3   27 1   
     9    3   29 1   
    10    4    7 3   
    11    4   28 1   
    12    5    6 2   
    13    5    8 1   
    14    5    9 1   
    15    7    8 1   
    16    8    9 1   
    17    8   35 1   
    18    9   10 1   
    19    9   30 1   
    20   10   16 1   
    21   10   31 1   
    22   10   32 1   
    23   11   12 ar  
    24   11   16 ar  
    25   11   34 1   
    26   12   13 ar  
    27   13   14 ar  
    28   14   15 ar  
    29   15   16 ar  
    30   15   33 1   
    31   20   34 1   
    32   21   34 1   
    33   22   35 1   
    34   23   35 1   
    35   24   35 1   
@<TRIPOS>SUBSTRUCTURE
     1 VIB         1 TEMP              0 ****  ****    0 ROOT
