@<TRIPOS>MOLECULE
VIB
   35    34     1     0     0
SMALL
bcc


@<TRIPOS>ATOM
      1 CM2        -0.4210    0.0330    0.0390 c3        1 VIB     -0.172000
      2 O1          7.3780   -5.8500   -5.8970 oh        1 VIB     -0.375000
      3 C7          8.4910   -5.9710   -6.7620 c3        1 VIB     -0.073000
      4 C6          6.4120   -3.2170   -4.3940 c1        1 VIB      0.055000
      5 C2          6.4660   -1.8060   -1.1130 c1        1 VIB     -0.930000
      6 S1          7.2190   -2.7090   -0.3660 sh        1 VIB      1.245000
      7 C5          5.9960   -2.2590   -3.7970 c1        1 VIB     -0.289000
      8 C4          5.4910   -1.1320   -3.1270 c2        1 VIB      0.347000
      9 N3          5.7300   -0.9240   -1.8170 n3        1 VIB      0.076000
     10 C7A         5.1830    0.2630   -1.1170 c3        1 VIB      0.009000
     11 C4A         3.2160   -0.7330    0.1950 c2        1 VIB      0.182000
     12 N3A         1.8630   -0.7700    0.4570 n2        1 VIB     -0.221000
     13 C2A         1.0610    0.0740   -0.2410 c2        1 VIB      0.105000
     14 N1A         1.4960    0.9900   -1.1820 n2        1 VIB     -0.187000
     15 C6A         2.8070    1.0160   -1.4250 c2        1 VIB      0.015000
     16 C5A         3.7410    0.1650   -0.7890 c2        1 VIB     -0.336000
     17 HM21       -0.7390    1.0170    0.4660 hc        1 VIB      0.119333
     18 HM22       -0.9760   -0.1400   -0.9170 hc        1 VIB      0.119333
     19 HM23       -0.6790   -0.7780    0.7620 hc        1 VIB      0.119333
     20 H4A1        4.9570   -1.2740    1.0620 hn        1 VIB      0.214500
     21 H4A2        3.6370   -2.1580    1.5950 hn        1 VIB      0.214500
     22 HM41        5.1820    0.8240   -3.9850 hc        1 VIB      0.147000
     23 HM42        3.6580   -0.0600   -3.5190 hc        1 VIB      0.147000
     24 HM43        4.5900   -0.5650   -5.0000 hc        1 VIB      0.147000
     25 HO1         6.8760   -6.6710   -5.9590 ho        1 VIB      0.215000
     26 HC71        8.1550   -6.1120   -7.8190 h1        1 VIB      0.079333
     27 HC72        9.1410   -6.8250   -6.4500 h1        1 VIB      0.079333
     28 HC61        9.0470   -5.0060   -6.6600 h1        1 VIB      0.079333
     29 HC62        6.7770   -4.0680   -4.9410 ha        1 VIB      0.289000
     30 HC2         7.1700   -2.3340    0.8820 hs        1 VIB     -0.268000
     31 H7A1        5.3710    1.1590   -1.7790 h1        1 VIB      0.128000
     32 H7A2        5.7960    0.3940   -0.1760 h1        1 VIB      0.128000
     33 H6AC        3.1450    1.7700   -2.1640 h4        1 VIB      0.165000
     34 N4A         4.0530   -1.6340    0.8520 nv        1 VIB     -0.327000
     35 CM4         4.6870   -0.1820   -3.9520 c3        1 VIB     -0.248000
@<TRIPOS>BOND
     1    1   13 1   
     2    1   17 1   
     3    1   18 1   
     4    1   19 1   
     5    2    3 1   
     6    2   25 1   
     7    3   26 1   
     8    3   27 1   
     9    3   28 1   
    10    4    7 1   
    11    4   29 1   
    12    5    6 1   
    13    5    9 1   
    14    6   30 1   
    15    7    8 1   
    16    8    9 1   
    17    8   35 1   
    18    9   10 1   
    19   10   16 1   
    20   10   31 1   
    21   10   32 1   
    22   11   12 1   
    23   11   16 1   
    24   11   34 1   
    25   12   13 1   
    26   13   14 1   
    27   14   15 1   
    28   15   16 1   
    29   15   33 1   
    30   20   34 1   
    31   21   34 1   
    32   22   35 1   
    33   23   35 1   
    34   24   35 1   
@<TRIPOS>SUBSTRUCTURE
     1 VIB         1 TEMP              0 ****  ****    0 ROOT
