@<TRIPOS>MOLECULE
VIB
   36    35     1     0     0
SMALL
bcc


@<TRIPOS>ATOM
      1 CM2        -0.1270    0.0650    1.0590 c3        1 VIB     -0.162400
      2 O1          6.7090   -5.9440   -2.9960 oh        1 VIB     -0.884000
      3 C7          7.7040   -4.1460   -5.5350 c2        1 VIB     -0.118000
      4 C6          7.0780   -2.9740   -5.3760 ce        1 VIB     -0.164000
      5 C2          5.5240   -2.2480   -1.8670 c1        1 VIB     -0.169800
      6 S1          6.2790   -3.5740   -2.7700 sx        1 VIB      0.049100
      7 C5          6.5150   -2.5160   -4.1360 ce        1 VIB      0.016700
      8 C4          6.1540   -1.2230   -3.8440 c2        1 VIB      0.003700
      9 N3          5.5630   -1.1130   -2.5160 nh        1 VIB      0.014400
     10 C7A         5.1120    0.1640   -1.9550 c3        1 VIB      0.045500
     11 C4A         3.3850   -0.5250   -0.1970 ce        1 VIB      0.284600
     12 N3A         2.2120   -0.3530    0.5420 ne        1 VIB     -0.692300
     13 C2A         0.9970   -0.1970    0.0750 cf        1 VIB      0.914600
     14 N1A         0.6350   -0.2640   -1.2630 n1        1 VIB     -0.990400
     15 C6A         0.2440   -0.3180   -2.3890 c1        1 VIB      0.623800
     16 C5A         3.7670    0.1460   -1.3170 c2        1 VIB     -0.229200
     17 HM21        0.2450    0.0810    2.1140 hc        1 VIB      0.104700
     18 HM22       -0.9060   -0.7330    0.9580 hc        1 VIB      0.104700
     19 HM23       -0.5920    1.0580    0.8260 hc        1 VIB      0.104700
     20 H4A1        5.0130   -0.9130    1.0020 hn        1 VIB      0.480800
     21 H4A2        3.8480   -2.0900    1.1020 hn        1 VIB      0.480800
     22 HM41        6.8810    0.7750   -4.1790 hc        1 VIB      0.105700
     23 HM42        5.3200    0.3590   -5.0310 hc        1 VIB      0.105700
     24 HM43        6.9000   -0.3100   -5.6280 hc        1 VIB      0.105700
     25 HO1         6.2420   -6.6730   -3.4250 ho        1 VIB      0.451500
     26 HC71        8.1250   -4.4440   -6.5100 ha        1 VIB      0.151500
     27 HC72        7.4680   -6.3670   -2.5740 ho        1 VIB      0.451500
     28 HC61        7.8420   -4.8780   -4.7230 ha        1 VIB      0.151500
     29 HC62        6.9710   -2.2790   -6.2330 ha        1 VIB      0.179000
     30 HC2         5.1550   -4.1840   -3.1430 hs        1 VIB      0.438000
     31 H7A1        5.1000    0.9250   -2.7930 h1        1 VIB      0.118200
     32 H7A2        5.8960    0.4910   -1.2050 h1        1 VIB      0.118200
     33 H6AC        3.0470    0.8400   -1.7920 ha        1 VIB      0.198000
     34 H4A3        4.8480   -2.0270   -0.3050 hn        1 VIB      0.480800
     35 N4A         4.3380   -1.4580    0.4600 n4        1 VIB     -0.789400
     36 CM4         6.3190   -0.0380   -4.7080 c3        1 VIB     -0.082900
@<TRIPOS>BOND
     1    1   13 1   
     2    1   17 1   
     3    1   18 1   
     4    1   19 1   
     5    2   25 1   
     6    2   27 1   
     7    3    4 2   
     8    3   26 1   
     9    3   28 1   
    10    4    7 1   
    11    4   29 1   
    12    5    6 2   
    13    5    9 2   
    14    6    7 1   
    15    6   30 1   
    16    7    8 2   
    17    8    9 1   
    18    8   36 1   
    19    9   10 1   
    20   10   16 1   
    21   10   31 1   
    22   10   32 1   
    23   11   12 1   
    24   11   16 2   
    25   11   35 1   
    26   12   13 2   
    27   13   14 1   
    28   14   15 3   
    29   16   33 1   
    30   20   35 1   
    31   21   35 1   
    32   22   36 1   
    33   23   36 1   
    34   24   36 1   
    35   34   35 1   
@<TRIPOS>SUBSTRUCTURE
     1 VIB         1 TEMP              0 ****  ****    0 ROOT
