@<TRIPOS>MOLECULE
VIB
   35    36     1     0     0
SMALL
bcc


@<TRIPOS>ATOM
      1 CM2         5.9770    0.1230    1.1680 c3        1 VIB     -0.150400
      2 O1         -4.8750   -0.1150   -1.6360 oh        1 VIB     -0.597800
      3 C7         -4.7640   -0.5740   -0.3060 c3        1 VIB      0.131400
      4 C6         -4.0730    0.4670    0.5790 c3        1 VIB     -0.058100
      5 C2         -0.3040   -0.0890    1.1310 cc        1 VIB     -0.109400
      6 S1         -1.7600   -0.3500    1.8580 ss        1 VIB      0.311200
      7 C5         -2.6050    0.3440    0.5850 cc        1 VIB     -0.139400
      8 C4         -1.7360    0.7860   -0.4160 cd        1 VIB     -0.021600
      9 N3         -0.3960    0.5210   -0.0810 na        1 VIB      0.017900
     10 C7A         0.7200    0.8850   -0.9550 c3        1 VIB      0.099600
     11 C4A         2.6380   -0.6670   -0.2620 ca        1 VIB      0.687200
     12 N3A         3.9090   -0.8260    0.2410 nb        1 VIB     -0.748000
     13 C2A         4.5800    0.2920    0.6250 ca        1 VIB      0.729300
     14 N1A         4.0890    1.5820    0.5460 nb        1 VIB     -0.710000
     15 C6A         2.8590    1.7240    0.0510 ca        1 VIB      0.498200
     16 C5A         2.0580    0.6370   -0.3760 ca        1 VIB     -0.480900
     17 HM21        6.0550    0.6250    2.1650 hc        1 VIB      0.082033
     18 HM22        6.2470   -0.9550    1.2780 hc        1 VIB      0.082033
     19 HM23        6.7010    0.6100    0.4650 hc        1 VIB      0.082033
     20 H4A1        1.3010   -1.7050   -1.3690 hn        1 VIB      0.420300
     21 H4A2        2.3700   -2.6750   -0.5290 hn        1 VIB      0.420300
     22 HM41       -1.8680    2.5530   -1.6170 hc        1 VIB      0.091367
     23 HM42       -1.5700    1.0190   -2.5520 hc        1 VIB      0.091367
     24 HM43       -3.2140    1.3380   -1.8500 hc        1 VIB      0.091367
     25 HO1        -5.6770    0.4200   -1.6990 ho        1 VIB      0.416000
     26 HC71       -4.1570   -1.5170   -0.3720 h1        1 VIB      0.065200
     27 HC72       -5.7730   -0.8130    0.1250 h1        1 VIB      0.065200
     28 HC61       -4.4590    0.3570    1.6300 hc        1 VIB      0.082200
     29 HC62       -4.3600    1.4970    0.2240 hc        1 VIB      0.082200
     30 HC2         0.6830   -0.3710    1.5400 h5        1 VIB      0.247000
     31 H7A1        0.5950    1.9850   -1.1930 h1        1 VIB      0.092200
     32 H7A2        0.5790    0.3070   -1.9170 h1        1 VIB      0.092200
     33 H6AC        2.4810    2.7630   -0.0180 h4        1 VIB      0.037100
     34 N4A         1.8810   -1.8020   -0.5650 nh        1 VIB     -0.930500
     35 CM4        -2.1110    1.4610   -1.6770 c3        1 VIB     -0.067800
@<TRIPOS>BOND
     1    1   13 1   
     2    1   17 1   
     3    1   18 1   
     4    1   19 1   
     5    2    3 1   
     6    2   25 1   
     7    3    4 1   
     8    3   26 1   
     9    3   27 1   
    10    4    7 1   
    11    4   28 1   
    12    4   29 1   
    13    5    6 1   
    14    5    9 2   
    15    5   30 1   
    16    6    7 1   
    17    7    8 2   
    18    8    9 1   
    19    8   35 1   
    20    9   10 1   
    21   10   16 1   
    22   10   31 1   
    23   10   32 1   
    24   11   12 ar  
    25   11   16 ar  
    26   11   34 1   
    27   12   13 ar  
    28   13   14 ar  
    29   14   15 ar  
    30   15   16 ar  
    31   15   33 1   
    32   20   34 1   
    33   21   34 1   
    34   22   35 1   
    35   23   35 1   
    36   24   35 1   
@<TRIPOS>SUBSTRUCTURE
     1 VIB         1 TEMP              0 ****  ****    0 ROOT
