@<TRIPOS>MOLECULE
VIF
   77    74     1     0     0
SMALL
bcc


@<TRIPOS>ATOM
      1 C10         1.3300   -1.5440    0.5370 c2        1 VIF     -0.257000
      2 C13         3.5240   -6.2930    2.6380 c3        1 VIF     -0.106000
      3 C15         1.9960   -4.7260    3.7720 c2        1 VIF      0.338000
      4 C17        -0.9250   -2.4260    1.1100 c3        1 VIF     -0.111000
      5 C20         2.6450   -1.7830    0.3570 c2        1 VIF      0.014000
      6 C21         3.6210   -0.7820    0.7590 c2        1 VIF     -0.214000
      7 C22         4.8190   -1.0260    1.3320 c2        1 VIF      0.062000
      8 C24         3.1470   -3.0310   -0.2710 c3        1 VIF     -0.194000
      9 C26        -3.5360   -8.9610   -0.0110 c3        1 VIF     -0.188000
     10 N           2.6530   -2.3100    4.0760 n2        1 VIF     -0.202000
     11 C           0.2430   -6.0480   -2.6840 c2        1 VIF     -0.138000
     12 C01        -2.6110   -3.7070    3.5180 c2        1 VIF     -0.255000
     13 N01         2.2480   -5.9650    3.2170 n         1 VIF     -0.299000
     14 O01        -0.5020   -7.8650    1.8500 os        1 VIF     -0.213000
     15 C02        -3.6920   -3.6590    4.3050 c2        1 VIF     -0.054000
     16 N02        -0.5200   -2.7370    2.5120 ny        1 VIF     -0.102000
     17 C03        -1.6820   -2.5780    3.4550 c2        1 VIF      0.308000
     18 O03         0.8680   -4.4710    4.2550 o         1 VIF     -0.413000
     19 C04         3.6320   -0.6140    5.6620 c1        1 VIF      0.135000
     20 O04         5.1830   -2.3270    1.6150 oh        1 VIF     -0.287000
     21 C05        -2.4100   -8.8550    0.9350 c2        1 VIF     -0.150000
     22 O05         4.3450   -2.9400    5.5350 os        1 VIF     -0.099000
     23 C06        -1.5820   -7.8020    0.9560 c2        1 VIF     -0.075000
     24 C07         6.1870    0.0350    3.1600 c3        1 VIF     -0.009000
     25 C08         0.0860   -6.7010    2.2420 c2        1 VIF      0.320000
     26 C09         1.2100   -6.9610    3.2320 c3        1 VIF     -0.036000
     27 C11         3.4600  -10.9560    2.4590 c2        1 VIF     -0.509000
     28 C12         3.0470   -9.7320    2.5880 c1        1 VIF      0.104000
     29 C14         5.7850    0.0540    1.6830 c3        1 VIF     -0.199000
     30 C16         0.9410   -5.8420   -3.9690 c3        1 VIF     -0.198000
     31 C18         0.2500   -2.4710    0.1390 c3        1 VIF     -0.146000
     32 C19         0.7300   -5.6860   -1.4990 c2        1 VIF     -0.261000
     33 C23         3.1060   -3.6820    3.7520 c3        1 VIF     -0.201000
     34 C25         4.2040   -3.9960    4.7950 c1        1 VIF      0.118000
     35 C27         3.3740   -1.8840    5.0720 c2        1 VIF     -0.058000
     36 F           6.9610   -1.0710    3.4640 f         1 VIF     -0.181000
     37 H1          0.6230   -3.5300    0.0450 hc        1 VIF      0.125500
     38 H2          3.6530   -5.7510    1.6610 h1        1 VIF      0.109000
     39 H3         -1.3890   -1.3990    1.1090 hx        1 VIF      0.134500
     40 H4         -1.6970   -3.1880    0.8030 hx        1 VIF      0.134500
     41 H5          0.9990   -0.5840    0.9670 ha        1 VIF      0.127000
     42 H6          3.3270    0.2670    0.5850 ha        1 VIF      0.147000
     43 H7          4.2530   -2.9890   -0.4280 hc        1 VIF      0.092000
     44 H8          2.9240   -3.9140    0.3810 hc        1 VIF      0.092000
     45 H9          2.6540   -3.1910   -1.2630 hc        1 VIF      0.092000
     46 H10        -3.6300   -8.0560   -0.6590 hc        1 VIF      0.093000
     47 H11        -4.4940   -9.0960    0.5520 hc        1 VIF      0.093000
     48 H12        -3.3930   -9.8540   -0.6720 hc        1 VIF      0.093000
     49 H13        -1.6280   -6.9070    0.3230 h4        1 VIF      0.159000
     50 H14        -3.9410   -2.7840    4.9270 ha        1 VIF      0.152000
     51 H16        -4.3940   -4.5060    4.3690 ha        1 VIF      0.152000
     52 H18         0.2470   -2.1100    2.7960 hn        1 VIF      0.281000
     53 H19         6.7850    0.9610    3.3870 h1        1 VIF      0.109000
     54 H20         3.2180   -0.3770    6.6500 ha        1 VIF      0.123000
     55 H21         6.1020   -2.3260    1.9300 ho        1 VIF      0.242000
     56 H22        -2.2670   -9.7050    1.6240 ha        1 VIF      0.147000
     57 H23        -0.7410   -6.5420   -2.7650 ha        1 VIF      0.119000
     58 H24         5.2710    0.0210    3.8170 h1        1 VIF      0.109000
     59 H25         3.1650  -11.6230    1.6300 ha        1 VIF      0.208500
     60 H26         1.6560   -7.9840    3.0200 h1        1 VIF      0.167000
     61 H27         0.7160   -6.9810    4.2500 h1        1 VIF      0.167000
     62 H28         4.1480  -11.4510    3.1670 ha        1 VIF      0.208500
     63 H29         5.3370    1.0570    1.4550 hc        1 VIF      0.123500
     64 H30         6.7050   -0.0650    1.0470 hc        1 VIF      0.123500
     65 H31         1.1250   -6.8270   -4.4660 hc        1 VIF      0.088000
     66 H32         1.9240   -5.3280   -3.8320 hc        1 VIF      0.088000
     67 H33         0.3100   -5.2210   -4.6540 hc        1 VIF      0.088000
     68 H34        -0.1500   -2.1730   -0.8710 hc        1 VIF      0.125500
     69 H35        -2.3630   -4.5960    2.9100 ha        1 VIF      0.176000
     70 H36         1.7080   -5.2000   -1.3820 ha        1 VIF      0.106000
     71 H37         0.1860   -5.8620   -0.5600 ha        1 VIF      0.106000
     72 H38         3.5860   -3.6410    2.7210 h1        1 VIF      0.202000
     73 H39         4.3520   -5.9940    3.3370 h1        1 VIF      0.109000
     74 H15         3.5910   -7.4020    2.4520 h1        1 VIF      0.109000
     75 O          -1.7270   -1.5180    4.0730 o         1 VIF     -0.218000
     76 O02        -0.3510   -5.6260    1.8110 o         1 VIF     -0.432000
     77 H022       -0.1720   -3.7140    2.5700 hn        1 VIF      0.281000
@<TRIPOS>BOND
     1    1    5 1   
     2    1   31 1   
     3    1   41 1   
     4    2   13 1   
     5    2   38 1   
     6    2   73 1   
     7    2   74 1   
     8    3   13 1   
     9    3   18 1   
    10    3   33 1   
    11    4   16 1   
    12    4   31 1   
    13    4   39 1   
    14    4   40 1   
    15    5    6 1   
    16    5    8 1   
    17    6    7 1   
    18    6   42 1   
    19    7   20 1   
    20    7   29 1   
    21    8   43 1   
    22    8   44 1   
    23    8   45 1   
    24    9   21 1   
    25    9   46 1   
    26    9   47 1   
    27    9   48 1   
    28   10   33 1   
    29   10   35 1   
    30   11   30 1   
    31   11   32 1   
    32   11   57 1   
    33   12   15 1   
    34   12   17 1   
    35   12   69 1   
    36   13   26 1   
    37   14   23 1   
    38   14   25 1   
    39   15   50 1   
    40   15   51 1   
    41   16   17 1   
    42   16   52 1   
    43   16   77 1   
    44   17   75 1   
    45   19   35 1   
    46   19   54 1   
    47   20   55 1   
    48   21   23 1   
    49   21   56 1   
    50   22   34 1   
    51   22   35 1   
    52   23   49 1   
    53   24   29 1   
    54   24   36 1   
    55   24   53 1   
    56   24   58 1   
    57   25   26 1   
    58   25   76 1   
    59   26   60 1   
    60   26   61 1   
    61   27   28 1   
    62   27   59 1   
    63   27   62 1   
    64   29   63 1   
    65   29   64 1   
    66   30   65 1   
    67   30   66 1   
    68   30   67 1   
    69   31   37 1   
    70   31   68 1   
    71   32   70 1   
    72   32   71 1   
    73   33   34 1   
    74   33   72 1   
@<TRIPOS>SUBSTRUCTURE
     1 VIF         1 TEMP              0 ****  ****    0 ROOT
