@<TRIPOS>MOLECULE
VIF
   77    75     1     0     0
SMALL
bcc


@<TRIPOS>ATOM
      1 C10         0.3500   -0.1410    0.6150 c1        1 VIF     -0.020000
      2 C13         3.6660   -8.8720    4.9100 c3        1 VIF      0.068000
      3 C15         3.2440   -6.9180    3.4210 c2        1 VIF      0.366000
      4 C17        -1.6200   -1.5750    0.4700 c3        1 VIF     -0.010000
      5 C20         1.7330    0.1640    0.5520 c2        1 VIF     -0.097000
      6 C21         2.6720   -0.7720    0.8170 c2        1 VIF     -0.246000
      7 C22         4.1190   -0.4970    1.0540 c3        1 VIF      0.067000
      8 C24         2.0470    1.6090    0.3710 c3        1 VIF     -0.179000
      9 C26        -3.3920   -7.6880    0.6530 c1        1 VIF     -0.065000
     10 N           5.0710   -5.5900    2.2970 n2        1 VIF     -0.209000
     11 C           0.6620   -4.9750    1.6800 c2        1 VIF      0.381000
     12 C01        -3.1910   -4.7680   -0.8940 c2        1 VIF     -0.234000
     13 N01         2.7930   -7.9720    4.1810 n         1 VIF     -0.293000
     14 O01        -0.4590   -7.8910    2.8680 os        1 VIF     -0.344000
     15 C02        -3.6100   -4.5370   -2.1360 c2        1 VIF     -0.144000
     16 N02        -2.3890   -2.5230   -0.2860 n         1 VIF     -0.362000
     17 C03        -2.2730   -3.8820   -0.1390 c2        1 VIF      0.376000
     18 O03         2.4030   -6.1830    2.8400 o         1 VIF     -0.490000
     19 C04         6.6290   -3.6270    2.5360 c1        1 VIF      0.143000
     20 O04         4.5650   -1.2430    2.1910 oh        1 VIF     -0.361000
     21 C05        -2.4850   -7.4090    1.7360 c3        1 VIF     -0.263000
     22 O05         5.9960   -5.1030    4.3720 os        1 VIF     -0.096000
     23 C06        -1.5320   -8.5160    2.1550 c3        1 VIF     -0.047000
     24 C07         4.8820   -0.0180   -1.3100 c3        1 VIF      0.010000
     25 C08         0.6020   -8.7840    3.1890 c3        1 VIF      0.135000
     26 C09         1.3660   -8.1240    4.3690 c3        1 VIF     -0.057000
     27 C11         3.4750   -8.9290    7.4230 c1        1 VIF      0.247000
     28 C12         3.9600   -8.4380    6.3070 c2        1 VIF     -0.551000
     29 C14         4.9880   -0.9600   -0.1140 c3        1 VIF     -0.191000
     30 C16         1.4970   -4.7940    0.5140 c3        1 VIF     -0.307000
     31 C18        -0.3550   -1.0670   -0.2410 c3        1 VIF     -0.215000
     32 C19         0.5080   -3.9670    2.7070 c3        1 VIF     -0.307000
     33 C23         4.7390   -6.6680    3.2550 c3        1 VIF     -0.180000
     34 C25         5.3900   -6.2260    4.5890 c1        1 VIF      0.090000
     35 C27         5.8000   -4.7120    2.9270 c2        1 VIF     -0.045000
     36 F           5.3060    1.2630   -1.0120 f         1 VIF     -0.169000
     37 H1          0.2820   -1.9320   -0.5830 hc        1 VIF      0.121500
     38 H2          3.1760   -9.8900    4.9170 h1        1 VIF      0.111000
     39 H3         -1.3080   -2.0540    1.4430 h1        1 VIF      0.110000
     40 H4         -2.2730   -0.6870    0.7110 h1        1 VIF      0.110000
     41 H5          2.3880   -1.8300    0.9410 ha        1 VIF      0.107000
     42 H6          4.2970    0.6020    1.2370 h1        1 VIF      0.109000
     43 H7          2.2720    2.0750    1.3630 hc        1 VIF      0.103333
     44 H8          2.9390    1.7310   -0.2950 hc        1 VIF      0.103333
     45 H9          1.1830    2.1560   -0.0810 hc        1 VIF      0.103333
     46 H10        -4.2800   -5.2420   -2.6520 ha        1 VIF      0.129500
     47 H11        -1.9020   -6.4790    1.4520 hc        1 VIF      0.162500
     48 H12        -3.4450   -8.7160    0.2670 ha        1 VIF      0.062000
     49 H13        -2.0350   -9.2560    2.8310 h1        1 VIF      0.088500
     50 H14        -3.4890   -5.6780   -0.3250 ha        1 VIF      0.207000
     51 H16        -3.3210   -3.6600   -2.7320 ha        1 VIF      0.129500
     52 H18        -3.0730   -2.1660   -0.9120 hn        1 VIF      0.243000
     53 H19         5.5170   -0.4180   -2.1490 h1        1 VIF      0.089000
     54 H20         6.2830   -2.5870    2.6070 ha        1 VIF      0.151000
     55 H21         4.1840   -0.8180    2.9670 ho        1 VIF      0.212000
     56 H22        -3.1280   -7.0960    2.6140 hc        1 VIF      0.162500
     57 H23        -1.1150   -9.0530    1.2620 h1        1 VIF      0.088500
     58 H24         3.8120    0.0350   -1.6570 h1        1 VIF      0.089000
     59 H25         0.2350   -9.8130    3.4590 h2        1 VIF      0.136000
     60 H26         1.1860   -8.7530    5.2850 h1        1 VIF      0.121000
     61 H27         0.9090   -7.1060    4.5460 h1        1 VIF      0.121000
     62 H28         4.7070   -7.6100    6.3840 ha        1 VIF      0.229000
     63 H29         4.6810   -1.9860   -0.4370 hc        1 VIF      0.105000
     64 H30         6.0520   -1.0060    0.2360 hc        1 VIF      0.105000
     65 H31         1.6530   -3.7190    0.2410 hc        1 VIF      0.168333
     66 H32         1.1050   -5.3570   -0.3730 hc        1 VIF      0.168333
     67 H33         2.5140   -5.2360    0.7780 hc        1 VIF      0.168333
     68 H34        -0.6420   -0.4870   -1.1700 hc        1 VIF      0.121500
     69 H35        -0.5920   -3.7120    2.7930 hc        1 VIF      0.168333
     70 H36         1.0890   -3.0310    2.5170 hc        1 VIF      0.168333
     71 H37         0.8190   -4.4080    3.6990 hc        1 VIF      0.168333
     72 H38         5.2350   -7.6160    2.8850 h1        1 VIF      0.186000
     73 H39         1.6100   -8.0620    1.7030 ho        1 VIF      0.211000
     74 H15         4.6430   -8.9710    4.3540 h1        1 VIF      0.111000
     75 O          -1.4170   -4.3670    0.6550 o         1 VIF     -0.516000
     76 O02         1.3100   -8.9350    1.9900 oh        1 VIF     -0.331000
     77 H022        0.1420   -5.9520    1.8250 ha        1 VIF      0.196000
@<TRIPOS>BOND
     1    1    5 1   
     2    1   31 1   
     3    2   13 1   
     4    2   28 1   
     5    2   38 1   
     6    2   74 1   
     7    3   13 1   
     8    3   18 1   
     9    3   33 1   
    10    4   16 1   
    11    4   31 1   
    12    4   39 1   
    13    4   40 1   
    14    5    6 1   
    15    5    8 1   
    16    6    7 1   
    17    6   41 1   
    18    7   20 1   
    19    7   29 1   
    20    7   42 1   
    21    8   43 1   
    22    8   44 1   
    23    8   45 1   
    24    9   21 1   
    25    9   48 1   
    26   10   33 1   
    27   10   35 1   
    28   11   30 1   
    29   11   32 1   
    30   11   77 1   
    31   12   15 1   
    32   12   17 1   
    33   12   50 1   
    34   13   26 1   
    35   14   23 1   
    36   14   25 1   
    37   15   46 1   
    38   15   51 1   
    39   16   17 1   
    40   16   52 1   
    41   17   75 1   
    42   19   35 1   
    43   19   54 1   
    44   20   55 1   
    45   21   23 1   
    46   21   47 1   
    47   21   56 1   
    48   22   34 1   
    49   22   35 1   
    50   23   49 1   
    51   23   57 1   
    52   24   29 1   
    53   24   36 1   
    54   24   53 1   
    55   24   58 1   
    56   25   26 1   
    57   25   59 1   
    58   25   76 1   
    59   26   60 1   
    60   26   61 1   
    61   27   28 1   
    62   28   62 1   
    63   29   63 1   
    64   29   64 1   
    65   30   65 1   
    66   30   66 1   
    67   30   67 1   
    68   31   37 1   
    69   31   68 1   
    70   32   69 1   
    71   32   70 1   
    72   32   71 1   
    73   33   34 1   
    74   33   72 1   
    75   73   76 1   
@<TRIPOS>SUBSTRUCTURE
     1 VIF         1 TEMP              0 ****  ****    0 ROOT
