@<TRIPOS>MOLECULE
VIG
   21    20     1     0     0
SMALL
bcc


@<TRIPOS>ATOM
      1 C1'         0.2470   -0.2390   -2.3940 c         1 VIG      0.910600
      2 O1'        -0.2900    0.3090   -3.3990 o         1 VIG     -0.849800
      3 O2'         1.3670   -0.8260   -2.4230 o         1 VIG     -0.849800
      4 C1         -0.5310   -0.2040   -1.0640 c3        1 VIG     -0.202400
      5 C2          0.3770    0.1320    0.0920 c3        1 VIG     -0.101400
      6 C3         -0.2590   -0.1700    1.4590 c3        1 VIG      0.148500
      7 C4          0.7620    0.1820    2.5520 c3        1 VIG     -0.073400
      8 C5          0.3510   -0.3160    3.9120 c3        1 VIG     -0.083100
      9 N3         -1.5480    0.4680    1.6880 n3        1 VIG     -0.903800
     10 H1C1       -0.9900   -1.2140   -0.9120 hc        1 VIG      0.019200
     11 H1C2       -1.3590    0.5430   -1.1520 hc        1 VIG      0.019200
     12 H2C1        0.6660    1.2140    0.0440 hc        1 VIG      0.049700
     13 H2C2        1.3190   -0.4710   -0.0130 hc        1 VIG      0.049700
     14 H3         -0.4490   -1.2840    1.5120 h1        1 VIG      0.049700
     15 H4C1        0.9170    1.2920    2.5840 hc        1 VIG      0.034700
     16 H4C2        1.7420   -0.2820    2.2640 hc        1 VIG      0.034700
     17 H5C1        1.1530   -0.1040    4.6610 hc        1 VIG      0.024367
     18 H5C2       -0.5890    0.1810    4.2520 hc        1 VIG      0.024367
     19 H5C3        0.1730   -1.4180    3.8890 hc        1 VIG      0.024367
     20 H3N1       -1.4400    1.4650    1.6490 hn        1 VIG      0.336800
     21 H3N2       -2.1730    0.2010    0.9490 hn        1 VIG      0.336800
@<TRIPOS>BOND
     1    1    2 1   
     2    1    3 1   
     3    1    4 1   
     4    4    5 1   
     5    4   10 1   
     6    4   11 1   
     7    5    6 1   
     8    5   12 1   
     9    5   13 1   
    10    6    7 1   
    11    6    9 1   
    12    6   14 1   
    13    7    8 1   
    14    7   15 1   
    15    7   16 1   
    16    8   17 1   
    17    8   18 1   
    18    8   19 1   
    19    9   20 1   
    20    9   21 1   
@<TRIPOS>SUBSTRUCTURE
     1 VIG         1 TEMP              0 ****  ****    0 ROOT
