@<TRIPOS>MOLECULE
VII
   33    35     1     0     0
SMALL
bcc


@<TRIPOS>ATOM
      1 C17         0.0360    0.3720    0.0620 ca        1 VII     -0.128000
      2 C16         1.4110    0.2010    0.1940 ca        1 VII     -0.150500
      3 C15         1.9530   -0.3580    1.3530 ca        1 VII     -0.178000
      4 C14         1.1050   -0.7460    2.3880 ca        1 VII     -0.150500
      5 C13        -0.2710   -0.5750    2.2700 ca        1 VII     -0.128000
      6 C12        -0.8270   -0.0110    1.1070 ca        1 VII     -0.057500
      7 C10        -2.2520    0.1610    0.9870 cc        1 VII      0.228200
      8 O11        -3.0130   -0.5580    1.9310 os        1 VII     -0.419800
      9 C9         -3.0870    0.8920    0.1440 cd        1 VII     -0.134900
     10 C18        -2.5930    1.8120   -0.9480 c         1 VII      0.935200
     11 O22        -2.1400    1.2900   -2.0120 o         1 VII     -0.834800
     12 O23        -2.5620    3.0530   -0.7260 o         1 VII     -0.834800
     13 C8         -4.4500    0.6150    0.5660 cd        1 VII     -0.134900
     14 C19        -5.7520    1.0970   -0.0280 c         1 VII      0.935200
     15 O20        -6.4100    1.9770    0.6060 o         1 VII     -0.834800
     16 O21        -6.1800    0.5450   -1.0790 o         1 VII     -0.834800
     17 C7         -4.3620   -0.2570    1.6500 cc        1 VII      0.228200
     18 C1         -5.3160   -0.9040    2.5150 ca        1 VII     -0.057500
     19 C6         -4.9240   -1.9840    3.3270 ca        1 VII     -0.128000
     20 C5         -5.8420   -2.6100    4.1670 ca        1 VII     -0.150500
     21 C4         -7.1640   -2.1730    4.2110 ca        1 VII     -0.178000
     22 C3         -7.5610   -1.1010    3.4100 ca        1 VII     -0.150500
     23 C2         -6.6520   -0.4650    2.5700 ca        1 VII     -0.128000
     24 H17        -0.3990    0.8080   -0.8620 ha        1 VII      0.172500
     25 H16         2.0740    0.5090   -0.6270 ha        1 VII      0.102500
     26 H15         3.0380   -0.4900    1.4480 ha        1 VII      0.094000
     27 H14         1.5230   -1.1870    3.3040 ha        1 VII      0.102500
     28 H13        -0.9410   -0.8810    3.0870 ha        1 VII      0.172500
     29 H6         -3.8800   -2.3290    3.2910 ha        1 VII      0.172500
     30 H5         -5.5200   -3.4520    4.7940 ha        1 VII      0.102500
     31 H4         -7.8880   -2.6690    4.8700 ha        1 VII      0.094000
     32 H3         -8.6030   -0.7520    3.4400 ha        1 VII      0.102500
     33 H2         -6.9620    0.3940    1.9380 ha        1 VII      0.172500
@<TRIPOS>BOND
     1    1    2 ar  
     2    1    6 ar  
     3    1   24 1   
     4    2    3 ar  
     5    2   25 1   
     6    3    4 ar  
     7    3   26 1   
     8    4    5 ar  
     9    4   27 1   
    10    5    6 ar  
    11    5   28 1   
    12    6    7 1   
    13    7    8 1   
    14    7    9 2   
    15    8   17 1   
    16    9   10 1   
    17    9   13 1   
    18   10   11 1   
    19   10   12 1   
    20   13   14 1   
    21   13   17 2   
    22   14   15 1   
    23   14   16 1   
    24   17   18 1   
    25   18   19 ar  
    26   18   23 ar  
    27   19   20 ar  
    28   19   29 1   
    29   20   21 ar  
    30   20   30 1   
    31   21   22 ar  
    32   21   31 1   
    33   22   23 ar  
    34   22   32 1   
    35   23   33 1   
@<TRIPOS>SUBSTRUCTURE
     1 VII         1 TEMP              0 ****  ****    0 ROOT
