@<TRIPOS>MOLECULE
VII
   33    26     1     0     0
SMALL
bcc


@<TRIPOS>ATOM
      1 C17         3.1150   -0.2370   -1.1950 c1        1 VII     -0.144000
      2 C16         4.4990   -0.2930   -1.1480 c1        1 VII     -0.146750
      3 C15         5.1790    0.2500   -0.0690 c1        1 VII     -0.146750
      4 C14         4.4750    0.8490    0.9630 c1        1 VII     -0.146750
      5 C13         3.0910    0.9050    0.9170 c1        1 VII     -0.146750
      6 C12         2.4110    0.3630   -0.1620 c1        1 VII      0.052000
      7 C10         1.0260    0.3730   -0.1830 c1        1 VII     -0.074000
      8 O11         0.2060   -0.6140    0.3020 os        1 VII     -0.160000
      9 C9          0.2300    1.3980   -0.6500 c1        1 VII     -0.048000
     10 C18         0.7130    2.6560   -1.3360 c1        1 VII      0.381000
     11 O22         1.0410    3.6600   -0.6510 o         1 VII     -0.569000
     12 O23         0.8190    2.6880   -2.5900 o         1 VII     -0.569000
     13 C8         -1.0750    1.0420   -0.4520 c1        1 VII     -0.048000
     14 C19        -2.2850    1.8990   -0.7530 c1        1 VII      0.381000
     15 O20        -2.8740    1.7900   -1.8600 o         1 VII     -0.569000
     16 O21        -2.7060    2.7170    0.1070 o         1 VII     -0.569000
     17 C7         -1.0910   -0.2060    0.1380 c2        1 VII     -0.074000
     18 C1         -2.2210   -0.9470    0.4400 c1        1 VII      0.052000
     19 C6         -2.8120   -0.8300    1.6880 c1        1 VII     -0.146750
     20 C5         -3.8900   -1.6340    2.0230 c1        1 VII     -0.146750
     21 C4         -4.3770   -2.5550    1.1100 c1        1 VII     -0.146750
     22 C3         -3.7860   -2.6730   -0.1370 c1        1 VII     -0.146750
     23 C2         -2.7080   -1.8690   -0.4730 c1        1 VII     -0.144000
     24 H17         2.6360   -0.6190   -1.9540 ha        1 VII      0.132000
     25 H16         4.9950   -0.7050   -1.8810 ha        1 VII      0.126750
     26 H15         6.1530    0.1920   -0.0270 ha        1 VII      0.126750
     27 H14         4.9540    1.2310    1.7230 ha        1 VII      0.126750
     28 H13         2.5950    1.3130    1.6520 ha        1 VII      0.126750
     29 H6         -2.4690   -0.1800    2.3320 ha        1 VII      0.126750
     30 H5         -4.3060   -1.5500    2.9020 ha        1 VII      0.126750
     31 H4         -5.1360   -3.1220    1.3460 ha        1 VII      0.126750
     32 H3         -4.1130   -3.3400   -0.7710 ha        1 VII      0.126750
     33 H2         -2.2920   -1.9520   -1.3520 ha        1 VII      0.132000
@<TRIPOS>BOND
     1    1    6 1   
     2    1   24 1   
     3    2    3 1   
     4    2   25 1   
     5    3   26 1   
     6    4    5 1   
     7    4   27 1   
     8    5   28 1   
     9    7    8 1   
    10    7    9 1   
    11    8   17 1   
    12    9   13 1   
    13   10   11 1   
    14   10   12 1   
    15   13   17 1   
    16   14   15 1   
    17   14   16 1   
    18   17   18 1   
    19   18   23 1   
    20   19   20 1   
    21   19   29 1   
    22   20   30 1   
    23   21   22 1   
    24   21   31 1   
    25   22   32 1   
    26   23   33 1   
@<TRIPOS>SUBSTRUCTURE
     1 VII         1 TEMP              0 ****  ****    0 ROOT
