@<TRIPOS>MOLECULE
VII
   33    35     1     0     0
SMALL
bcc


@<TRIPOS>ATOM
      1 C17         3.5710   -0.1300   -0.4220 ca        1 VII     -0.128000
      2 C16         4.7890   -0.8030   -0.4490 ca        1 VII     -0.150500
      3 C15         4.8610   -2.1610   -0.1340 ca        1 VII     -0.178000
      4 C14         3.6990   -2.8480    0.2130 ca        1 VII     -0.150500
      5 C13         2.4750   -2.1830    0.2470 ca        1 VII     -0.128000
      6 C12         2.3930   -0.8150   -0.0670 ca        1 VII     -0.057500
      7 C10         1.1250   -0.1320   -0.0340 cc        1 VII      0.228200
      8 O11        -0.0000   -0.9820    0.0010 os        1 VII     -0.419800
      9 C9          0.7260    1.2030   -0.0190 cd        1 VII     -0.134900
     10 C18         1.6830    2.3720    0.0030 c         1 VII      0.935200
     11 O22         2.2930    2.6680   -1.0700 o         1 VII     -0.834800
     12 O23         1.9100    2.9480    1.1020 o         1 VII     -0.834800
     13 C8         -0.7260    1.2030    0.0130 cd        1 VII     -0.134900
     14 C19        -1.6840    2.3720   -0.0130 c         1 VII      0.935200
     15 O20        -2.2930    2.6710    1.0580 o         1 VII     -0.834800
     16 O21        -1.9110    2.9440   -1.1150 o         1 VII     -0.834800
     17 C7         -1.1250   -0.1320    0.0320 cc        1 VII      0.228200
     18 C1         -2.3930   -0.8150    0.0690 ca        1 VII     -0.057500
     19 C6         -2.4750   -2.1850   -0.2400 ca        1 VII     -0.128000
     20 C5         -3.6990   -2.8490   -0.2040 ca        1 VII     -0.150500
     21 C4         -4.8610   -2.1610    0.1400 ca        1 VII     -0.178000
     22 C3         -4.7890   -0.8020    0.4500 ca        1 VII     -0.150500
     23 C2         -3.5710   -0.1290    0.4210 ca        1 VII     -0.128000
     24 H17         3.5090    0.9480   -0.6820 ha        1 VII      0.172500
     25 H16         5.7020   -0.2560   -0.7230 ha        1 VII      0.102500
     26 H15         5.8260   -2.6840   -0.1570 ha        1 VII      0.094000
     27 H14         3.7460   -3.9160    0.4620 ha        1 VII      0.102500
     28 H13         1.5580   -2.7250    0.5210 ha        1 VII      0.172500
     29 H6         -1.5580   -2.7270   -0.5130 ha        1 VII      0.172500
     30 H5         -3.7460   -3.9190   -0.4490 ha        1 VII      0.102500
     31 H4         -5.8250   -2.6840    0.1660 ha        1 VII      0.094000
     32 H3         -5.7020   -0.2540    0.7220 ha        1 VII      0.102500
     33 H2         -3.5090    0.9500    0.6760 ha        1 VII      0.172500
@<TRIPOS>BOND
     1    1    2 ar  
     2    1    6 ar  
     3    1   24 1   
     4    2    3 ar  
     5    2   25 1   
     6    3    4 ar  
     7    3   26 1   
     8    4    5 ar  
     9    4   27 1   
    10    5    6 ar  
    11    5   28 1   
    12    6    7 1   
    13    7    8 1   
    14    7    9 2   
    15    8   17 1   
    16    9   10 1   
    17    9   13 1   
    18   10   11 1   
    19   10   12 1   
    20   13   14 1   
    21   13   17 2   
    22   14   15 1   
    23   14   16 1   
    24   17   18 1   
    25   18   19 ar  
    26   18   23 ar  
    27   19   20 ar  
    28   19   29 1   
    29   20   21 ar  
    30   20   30 1   
    31   21   22 ar  
    32   21   31 1   
    33   22   23 ar  
    34   22   32 1   
    35   23   33 1   
@<TRIPOS>SUBSTRUCTURE
     1 VII         1 TEMP              0 ****  ****    0 ROOT
