@<TRIPOS>MOLECULE
VIN
   56    61     1     0     0
SMALL
bcc


@<TRIPOS>ATOM
      1 C1          0.0530   -0.1880    0.0670 ca        1 VIN      0.017800
      2 C2          1.5120   -0.0870   -0.0030 cp        1 VIN     -0.019000
      3 C3         -0.5980   -0.3050    1.2940 ca        1 VIN     -0.099300
      4 N1         -0.4630   -0.2350   -1.2540 na        1 VIN     -0.076300
      5 C4          2.2120   -0.0850    1.1660 ca        1 VIN     -0.163900
      6 C5          1.8690   -0.0380   -1.4090 cp        1 VIN     -0.085000
      7 C6          0.1560   -0.1890    2.5070 ca        1 VIN      0.095000
      8 C7         -2.0560   -0.5880    1.3900 c3        1 VIN     -0.033100
      9 C8          0.6310   -0.0980   -2.1450 ca        1 VIN     -0.002200
     10 C9         -1.7750    0.2090   -1.6430 c3        1 VIN      0.027300
     11 C10         1.5380   -0.1310    2.4300 ca        1 VIN     -0.204600
     12 C11         3.6710   -0.0610    1.4660 cc        1 VIN      0.508800
     13 C12         3.0760    0.0490   -2.0870 ca        1 VIN     -0.070000
     14 C13        -0.5920   -0.1420    3.7630 ca        1 VIN     -0.101000
     15 C14        -2.3890   -1.4280    2.6110 c3        1 VIN     -0.040100
     16 C15         0.6330   -0.0570   -3.5420 ca        1 VIN     -0.155000
     17 C16        -2.6380   -0.9240   -2.2300 c3        1 VIN      0.115400
     18 C17         2.6470   -0.1740    3.4600 c         1 VIN      0.686100
     19 N2          3.9330   -0.1100    2.7410 nd        1 VIN     -0.603100
     20 C18         3.0650    0.0840   -3.4820 ca        1 VIN     -0.157000
     21 C19        -1.8480   -0.7840    3.8370 ca        1 VIN     -0.025300
     22 C20        -0.1310    0.5600    4.8810 ca        1 VIN     -0.042000
     23 C21         1.8630    0.0330   -4.1920 ca        1 VIN     -0.094000
     24 O1         -3.9160   -0.3470   -2.4380 oh        1 VIN     -0.602800
     25 O2          2.5640   -0.2720    4.6800 o         1 VIN     -0.474100
     26 C22        -2.5750   -0.7900    5.0210 ca        1 VIN     -0.169000
     27 C23        -0.8560    0.5780    6.0710 ca        1 VIN     -0.215000
     28 C24        -2.0690   -0.1150    6.1500 ca        1 VIN      0.154100
     29 O3         -2.8760   -0.1930    7.2630 os        1 VIN     -0.331900
     30 C25        -2.3570    0.3350    8.4990 c3        1 VIN      0.139100
     31 C26        -2.6170    1.8270    8.5770 c3        1 VIN     -0.111100
     32 C27        -3.1040   -0.4140    9.5900 c3        1 VIN     -0.111100
     33 H7         -2.4100   -1.1450    0.4810 hc        1 VIN      0.058200
     34 H7A        -2.6220    0.3830    1.4410 hc        1 VIN      0.058200
     35 H9         -1.6860    1.0150   -2.4290 h1        1 VIN      0.073200
     36 H9A        -2.3140    0.6570   -0.7610 h1        1 VIN      0.073200
     37 H11         4.4450   -0.0090    0.6890 h4        1 VIN      0.047800
     38 H12         4.0270    0.0890   -1.5350 ha        1 VIN      0.135000
     39 H14        -1.9420   -2.4530    2.5040 hc        1 VIN      0.060200
     40 H14A       -3.5010   -1.5500    2.6860 hc        1 VIN      0.060200
     41 H15        -0.3050   -0.0980   -4.1120 ha        1 VIN      0.141000
     42 H16        -2.2100   -1.2840   -3.2030 h1        1 VIN      0.034200
     43 H16A       -2.7160   -1.7920   -1.5230 h1        1 VIN      0.034200
     44 H18         4.0160    0.1530   -4.0300 ha        1 VIN      0.137000
     45 H20         0.8200    1.1130    4.8310 ha        1 VIN      0.150000
     46 H21         1.8840    0.0660   -5.2930 ha        1 VIN      0.136000
     47 HO1        -4.4690   -1.0370   -2.8230 ho        1 VIN      0.409000
     48 H22        -3.5440   -1.3040    5.0900 ha        1 VIN      0.150000
     49 H23        -0.4600    1.1380    6.9300 ha        1 VIN      0.143000
     50 H25        -1.2560    0.1170    8.5750 h1        1 VIN      0.054700
     51 H26        -2.1200    2.3560    7.7300 hc        1 VIN      0.048033
     52 H26A       -2.2200    2.2270    9.5400 hc        1 VIN      0.048033
     53 H26B       -3.7130    2.0310    8.5240 hc        1 VIN      0.048033
     54 H27        -2.8950   -1.5080    9.5180 hc        1 VIN      0.048033
     55 H27A       -4.2040   -0.2570    9.4860 hc        1 VIN      0.048033
     56 H27B       -2.7710   -0.0390   10.5860 hc        1 VIN      0.048033
@<TRIPOS>BOND
     1    1    2 ar  
     2    1    3 ar  
     3    1    4 1   
     4    2    5 ar  
     5    2    6 1   
     6    3    7 ar  
     7    3    8 1   
     8    4    9 1   
     9    4   10 1   
    10    5   11 ar  
    11    5   12 1   
    12    6    9 ar  
    13    6   13 ar  
    14    7   11 ar  
    15    7   14 1   
    16    8   15 1   
    17    8   33 1   
    18    8   34 1   
    19    9   16 ar  
    20   10   17 1   
    21   10   35 1   
    22   10   36 1   
    23   11   18 1   
    24   12   19 2   
    25   12   37 1   
    26   13   20 ar  
    27   13   38 1   
    28   14   21 ar  
    29   14   22 ar  
    30   15   21 1   
    31   15   39 1   
    32   15   40 1   
    33   16   23 ar  
    34   16   41 1   
    35   17   24 1   
    36   17   42 1   
    37   17   43 1   
    38   18   19 1   
    39   18   25 2   
    40   20   23 ar  
    41   20   44 1   
    42   21   26 ar  
    43   22   27 ar  
    44   22   45 1   
    45   23   46 1   
    46   24   47 1   
    47   26   28 ar  
    48   26   48 1   
    49   27   28 ar  
    50   27   49 1   
    51   28   29 1   
    52   29   30 1   
    53   30   31 1   
    54   30   32 1   
    55   30   50 1   
    56   31   51 1   
    57   31   52 1   
    58   31   53 1   
    59   32   54 1   
    60   32   55 1   
    61   32   56 1   
@<TRIPOS>SUBSTRUCTURE
     1 VIN         1 TEMP              0 ****  ****    0 ROOT
