@<TRIPOS>MOLECULE
VIN
   56    61     1     0     0
SMALL
bcc


@<TRIPOS>ATOM
      1 C1          0.0480   -0.2160    0.0690 ca        1 VIN      0.016800
      2 C2          1.5090   -0.1500   -0.0020 cp        1 VIN     -0.019000
      3 C3         -0.6050   -0.3220    1.2970 ca        1 VIN     -0.099300
      4 N1         -0.4710   -0.2450   -1.2510 na        1 VIN     -0.076300
      5 C4          2.2100   -0.1690    1.1670 ca        1 VIN     -0.163900
      6 C5          1.8660   -0.1040   -1.4070 cp        1 VIN     -0.085000
      7 C6          0.1520   -0.2290    2.5090 ca        1 VIN      0.095000
      8 C7         -2.0700   -0.5710    1.3920 c3        1 VIN     -0.033100
      9 C8          0.6260   -0.1320   -2.1430 ca        1 VIN     -0.002200
     10 C9         -1.7710    0.2320   -1.6370 c3        1 VIN      0.027300
     11 C10         1.5360   -0.2040    2.4310 ca        1 VIN     -0.204600
     12 C11         3.6690   -0.1820    1.4660 cc        1 VIN      0.508800
     13 C12         3.0740   -0.0440   -2.0860 ca        1 VIN     -0.070000
     14 C13        -0.5930   -0.1690    3.7660 ca        1 VIN     -0.101000
     15 C14        -2.4210   -1.4070    2.6110 c3        1 VIN     -0.040100
     16 C15         0.6270   -0.0850   -3.5390 ca        1 VIN     -0.155000
     17 C16        -2.6620   -0.8780   -2.2280 c3        1 VIN      0.115400
     18 C17         2.6440   -0.2780    3.4600 c         1 VIN      0.686100
     19 N2          3.9300   -0.2420    2.7400 nd        1 VIN     -0.603100
     20 C18         3.0620   -0.0030   -3.4810 ca        1 VIN     -0.157000
     21 C19        -1.8640   -0.7820    3.8390 ca        1 VIN     -0.025300
     22 C20        -0.1150    0.5170    4.8860 ca        1 VIN     -0.042000
     23 C21         1.8590   -0.0220   -4.1910 ca        1 VIN     -0.094000
     24 O1         -3.9260   -0.2690   -2.4340 oh        1 VIN     -0.602800
     25 O2          2.5600   -0.3790    4.6800 o         1 VIN     -0.474100
     26 C22        -2.5900   -0.7750    5.0230 ca        1 VIN     -0.169000
     27 C23        -0.8380    0.5480    6.0770 ca        1 VIN     -0.215000
     28 C24        -2.0660   -0.1170    6.1550 ca        1 VIN      0.154100
     29 O3         -2.8750   -0.1790    7.2680 os        1 VIN     -0.331900
     30 C25        -2.3420    0.3300    8.5060 c3        1 VIN      0.139100
     31 C26        -2.5660    1.8270    8.5910 c3        1 VIN     -0.111100
     32 C27        -3.1060   -0.4070    9.5940 c3        1 VIN     -0.111100
     33 H7         -2.6110    0.4130    1.4480 hc        1 VIN      0.058200
     34 H7A        -2.4370   -1.1150    0.4810 hc        1 VIN      0.058200
     35 H9         -2.2990    0.6890   -0.7540 h1        1 VIN      0.073200
     36 H9A        -1.6630    1.0380   -2.4210 h1        1 VIN      0.073200
     37 H11         4.4430   -0.1450    0.6880 h4        1 VIN      0.047800
     38 H12         4.0260   -0.0280   -1.5360 ha        1 VIN      0.135000
     39 H14        -1.9990   -2.4430    2.4990 hc        1 VIN      0.060200
     40 H14A       -3.5360   -1.5030    2.6860 hc        1 VIN      0.060200
     41 H15        -0.3120   -0.1020   -4.1090 ha        1 VIN      0.141000
     42 H16        -2.7620   -1.7460   -1.5240 h1        1 VIN      0.034200
     43 H16A       -2.2430   -1.2440   -3.2030 h1        1 VIN      0.034200
     44 H18         4.0140    0.0450   -4.0300 ha        1 VIN      0.137000
     45 H20         0.8500    1.0480    4.8380 ha        1 VIN      0.150000
     46 H21         1.8790    0.0140   -5.2910 ha        1 VIN      0.136000
     47 HO1        -4.4960   -0.9440   -2.8210 ho        1 VIN      0.409000
     48 H22        -3.5700   -1.2660    5.0910 ha        1 VIN      0.150000
     49 H23        -0.4280    1.0940    6.9380 ha        1 VIN      0.143000
     50 H25        -1.2460    0.0850    8.5790 h1        1 VIN      0.054700
     51 H26        -3.6570    2.0580    8.5400 hc        1 VIN      0.048033
     52 H26A       -2.1580    2.2130    9.5560 hc        1 VIN      0.048033
     53 H26B       -2.0570    2.3480    7.7450 hc        1 VIN      0.048033
     54 H27        -2.7630   -0.0440   10.5910 hc        1 VIN      0.048033
     55 H27A       -4.2020   -0.2220    9.4920 hc        1 VIN      0.048033
     56 H27B       -2.9230   -1.5050    9.5170 hc        1 VIN      0.048033
@<TRIPOS>BOND
     1    1    2 ar  
     2    1    3 ar  
     3    1    4 1   
     4    2    5 ar  
     5    2    6 1   
     6    3    7 ar  
     7    3    8 1   
     8    4    9 1   
     9    4   10 1   
    10    5   11 ar  
    11    5   12 1   
    12    6    9 ar  
    13    6   13 ar  
    14    7   11 ar  
    15    7   14 1   
    16    8   15 1   
    17    8   33 1   
    18    8   34 1   
    19    9   16 ar  
    20   10   17 1   
    21   10   35 1   
    22   10   36 1   
    23   11   18 1   
    24   12   19 2   
    25   12   37 1   
    26   13   20 ar  
    27   13   38 1   
    28   14   21 ar  
    29   14   22 ar  
    30   15   21 1   
    31   15   39 1   
    32   15   40 1   
    33   16   23 ar  
    34   16   41 1   
    35   17   24 1   
    36   17   42 1   
    37   17   43 1   
    38   18   19 1   
    39   18   25 2   
    40   20   23 ar  
    41   20   44 1   
    42   21   26 ar  
    43   22   27 ar  
    44   22   45 1   
    45   23   46 1   
    46   24   47 1   
    47   26   28 ar  
    48   26   48 1   
    49   27   28 ar  
    50   27   49 1   
    51   28   29 1   
    52   29   30 1   
    53   30   31 1   
    54   30   32 1   
    55   30   50 1   
    56   31   51 1   
    57   31   52 1   
    58   31   53 1   
    59   32   54 1   
    60   32   55 1   
    61   32   56 1   
@<TRIPOS>SUBSTRUCTURE
     1 VIN         1 TEMP              0 ****  ****    0 ROOT
