@<TRIPOS>MOLECULE
VIN
   56    61     1     0     0
SMALL
bcc


@<TRIPOS>ATOM
      1 C1          0.0510   -0.2210    0.0670 ca        1 VIN      0.017800
      2 C2          1.5110   -0.1340   -0.0030 cp        1 VIN     -0.019000
      3 C3         -0.6000   -0.3270    1.2950 ca        1 VIN     -0.099300
      4 N1         -0.4660   -0.2660   -1.2530 na        1 VIN     -0.076300
      5 C4          2.2120   -0.1360    1.1660 ca        1 VIN     -0.163900
      6 C5          1.8690   -0.0930   -1.4090 cp        1 VIN     -0.085000
      7 C6          0.1540   -0.2150    2.5080 ca        1 VIN      0.095000
      8 C7         -2.0620   -0.5960    1.3920 c3        1 VIN     -0.033100
      9 C8          0.6300   -0.1430   -2.1440 ca        1 VIN     -0.002200
     10 C9         -1.7730    0.1900   -1.6430 c3        1 VIN      0.027300
     11 C10         1.5370   -0.1710    2.4300 ca        1 VIN     -0.204600
     12 C11         3.6710   -0.1260    1.4660 cc        1 VIN      0.508800
     13 C12         3.0760   -0.0210   -2.0870 ca        1 VIN     -0.070000
     14 C13        -0.5920   -0.1570    3.7630 ca        1 VIN     -0.101000
     15 C14        -2.4020   -1.4280    2.6160 c3        1 VIN     -0.040100
     16 C15         0.6310   -0.1060   -3.5420 ca        1 VIN     -0.155000
     17 C16        -2.6470   -0.9370   -2.2260 c3        1 VIN      0.115400
     18 C17         2.6460   -0.2230    3.4600 c         1 VIN      0.686100
     19 N2          3.9320   -0.1740    2.7410 nd        1 VIN     -0.603100
     20 C18         3.0650    0.0110   -3.4830 ca        1 VIN     -0.157000
     21 C19        -1.8550   -0.7870    3.8400 ca        1 VIN     -0.025300
     22 C20        -0.1250    0.5430    4.8790 ca        1 VIN     -0.042000
     23 C21         1.8620   -0.0300   -4.1930 ca        1 VIN     -0.094000
     24 O1         -3.9200   -0.3480   -2.4370 oh        1 VIN     -0.602800
     25 O2          2.5620   -0.3160    4.6810 o         1 VIN     -0.474100
     26 C22        -2.5810   -0.7820    5.0240 ca        1 VIN     -0.169000
     27 C23        -0.8490    0.5720    6.0690 ca        1 VIN     -0.215000
     28 C24        -2.0680   -0.1090    6.1510 ca        1 VIN      0.154100
     29 O3         -2.8760   -0.1750    7.2640 os        1 VIN     -0.331900
     30 C25        -2.3510    0.3500    8.4990 c3        1 VIN      0.139100
     31 C26        -2.5960    1.8440    8.5740 c3        1 VIN     -0.111100
     32 C27        -3.1050   -0.3900    9.5910 c3        1 VIN     -0.111100
     33 H7         -2.6170    0.3810    1.4410 hc        1 VIN      0.058200
     34 H7A        -2.4210   -1.1510    0.4850 hc        1 VIN      0.058200
     35 H9         -2.3070    0.6460   -0.7630 h1        1 VIN      0.073200
     36 H9A        -1.6760    0.9920   -2.4320 h1        1 VIN      0.073200
     37 H11         4.4440   -0.0840    0.6880 h4        1 VIN      0.047800
     38 H12         4.0270    0.0120   -1.5360 ha        1 VIN      0.135000
     39 H14        -1.9660   -2.4590    2.5110 hc        1 VIN      0.060200
     40 H14A       -3.5160   -1.5390    2.6910 hc        1 VIN      0.060200
     41 H15        -0.3070   -0.1400   -4.1120 ha        1 VIN      0.141000
     42 H16        -2.7340   -1.8020   -1.5170 h1        1 VIN      0.034200
     43 H16A       -2.2230   -1.3040   -3.1990 h1        1 VIN      0.034200
     44 H18         4.0160    0.0690   -4.0310 ha        1 VIN      0.137000
     45 H20         0.8330    1.0870    4.8270 ha        1 VIN      0.150000
     46 H21         1.8830   -0.0010   -5.2930 ha        1 VIN      0.136000
     47 HO1        -4.4800   -1.0340   -2.8190 ho        1 VIN      0.409000
     48 H22        -3.5550   -1.2870    5.0950 ha        1 VIN      0.150000
     49 H23        -0.4470    1.1300    6.9260 ha        1 VIN      0.143000
     50 H25        -1.2520    0.1210    8.5750 h1        1 VIN      0.054700
     51 H26        -2.0940    2.3670    7.7250 hc        1 VIN      0.048033
     52 H26A       -2.1940    2.2430    9.5360 hc        1 VIN      0.048033
     53 H26B       -3.6900    2.0600    8.5210 hc        1 VIN      0.048033
     54 H27        -2.9070   -1.4850    9.5220 hc        1 VIN      0.048033
     55 H27A       -4.2040   -0.2210    9.4880 hc        1 VIN      0.048033
     56 H27B       -2.7680   -0.0150   10.5860 hc        1 VIN      0.048033
@<TRIPOS>BOND
     1    1    2 ar  
     2    1    3 ar  
     3    1    4 1   
     4    2    5 ar  
     5    2    6 1   
     6    3    7 ar  
     7    3    8 1   
     8    4    9 1   
     9    4   10 1   
    10    5   11 ar  
    11    5   12 1   
    12    6    9 ar  
    13    6   13 ar  
    14    7   11 ar  
    15    7   14 1   
    16    8   15 1   
    17    8   33 1   
    18    8   34 1   
    19    9   16 ar  
    20   10   17 1   
    21   10   35 1   
    22   10   36 1   
    23   11   18 1   
    24   12   19 2   
    25   12   37 1   
    26   13   20 ar  
    27   13   38 1   
    28   14   21 ar  
    29   14   22 ar  
    30   15   21 1   
    31   15   39 1   
    32   15   40 1   
    33   16   23 ar  
    34   16   41 1   
    35   17   24 1   
    36   17   42 1   
    37   17   43 1   
    38   18   19 1   
    39   18   25 2   
    40   20   23 ar  
    41   20   44 1   
    42   21   26 ar  
    43   22   27 ar  
    44   22   45 1   
    45   23   46 1   
    46   24   47 1   
    47   26   28 ar  
    48   26   48 1   
    49   27   28 ar  
    50   27   49 1   
    51   28   29 1   
    52   29   30 1   
    53   30   31 1   
    54   30   32 1   
    55   30   50 1   
    56   31   51 1   
    57   31   52 1   
    58   31   53 1   
    59   32   54 1   
    60   32   55 1   
    61   32   56 1   
@<TRIPOS>SUBSTRUCTURE
     1 VIN         1 TEMP              0 ****  ****    0 ROOT
