@<TRIPOS>MOLECULE
VIN
   56    61     1     0     0
SMALL
bcc


@<TRIPOS>ATOM
      1 C1          1.9540    0.2870    0.0010 ca        1 VIN      0.017800
      2 C2          2.4460   -1.0890   -0.0810 cp        1 VIN     -0.019000
      3 C3          0.5930    0.5690   -0.1160 ca        1 VIN     -0.099300
      4 N1          3.0660    1.1610    0.1110 na        1 VIN     -0.076300
      5 C4          1.5330   -2.0880   -0.2480 ca        1 VIN     -0.163900
      6 C5          3.8920   -1.0320    0.0180 cp        1 VIN     -0.085000
      7 C6         -0.3480   -0.5090   -0.1810 ca        1 VIN      0.095000
      8 C7          0.0820    1.9640   -0.2170 c3        1 VIN     -0.033100
      9 C8          4.2340    0.3600    0.1680 ca        1 VIN     -0.002200
     10 C9          3.0400    2.4530    0.7450 c3        1 VIN      0.027300
     11 C10         0.1290   -1.8050   -0.2950 ca        1 VIN     -0.204600
     12 C11         1.6740   -3.5600   -0.4330 cc        1 VIN      0.508800
     13 C12         4.8910   -1.9940   -0.0030 ca        1 VIN     -0.070000
     14 C13        -1.7690   -0.1670   -0.1260 ca        1 VIN     -0.101000
     15 C14        -1.1590    2.0480   -1.0890 c3        1 VIN     -0.040100
     16 C15         5.5680    0.7530    0.3040 ca        1 VIN     -0.155000
     17 C16         3.3800    3.5990   -0.2270 c3        1 VIN      0.115400
     18 C17        -0.5290   -3.1440   -0.5500 c         1 VIN      0.686100
     19 N2          0.5330   -4.1660   -0.6020 nd        1 VIN     -0.603100
     20 C18         6.2200   -1.5880    0.1290 ca        1 VIN     -0.157000
     21 C19        -2.1900    1.0930   -0.6060 ca        1 VIN     -0.025300
     22 C20        -2.7220   -1.0230    0.4330 ca        1 VIN     -0.042000
     23 C21         6.5480   -0.2390    0.2810 ca        1 VIN     -0.094000
     24 O1          3.1890    4.7880    0.5230 oh        1 VIN     -0.602800
     25 O2         -1.7160   -3.4020   -0.7210 o         1 VIN     -0.474100
     26 C22        -3.5340    1.4440   -0.6000 ca        1 VIN     -0.169000
     27 C23        -4.0730   -0.6800    0.4620 ca        1 VIN     -0.215000
     28 C24        -4.4840    0.5440   -0.0750 ca        1 VIN      0.154100
     29 O3         -5.7820    1.0020   -0.1250 os        1 VIN     -0.331900
     30 C25        -6.8270    0.0810    0.2450 c3        1 VIN      0.139100
     31 C26        -7.0210    0.0920    1.7480 c3        1 VIN     -0.111100
     32 C27        -8.0660    0.5830   -0.4770 c3        1 VIN     -0.111100
     33 H7         -0.1600    2.3460    0.8120 hc        1 VIN      0.058200
     34 H7A         0.8630    2.6390   -0.6600 hc        1 VIN      0.058200
     35 H9          2.0270    2.6470    1.1960 h1        1 VIN      0.073200
     36 H9A         3.7950    2.4790    1.5850 h1        1 VIN      0.073200
     37 H11         2.6410   -4.0770   -0.4260 h4        1 VIN      0.047800
     38 H12         4.6420   -3.0580   -0.1220 ha        1 VIN      0.135000
     39 H14        -1.5520    3.0980   -1.0730 hc        1 VIN      0.060200
     40 H14A       -0.8950    1.8020   -2.1530 hc        1 VIN      0.060200
     41 H15         5.8400    1.8110    0.4230 ha        1 VIN      0.141000
     42 H16         4.4460    3.5240   -0.5700 h1        1 VIN      0.034200
     43 H16A        2.7060    3.5950   -1.1240 h1        1 VIN      0.034200
     44 H18         7.0210   -2.3420    0.1140 ha        1 VIN      0.137000
     45 H20        -2.4110   -1.9900    0.8630 ha        1 VIN      0.150000
     46 H21         7.6050    0.0520    0.3860 ha        1 VIN      0.136000
     47 HO1         3.4130    5.5200   -0.0630 ho        1 VIN      0.409000
     48 H22        -3.8690    2.4150   -0.9900 ha        1 VIN      0.150000
     49 H23        -4.7930   -1.3810    0.9060 ha        1 VIN      0.143000
     50 H25        -6.5690   -0.9530   -0.1170 h1        1 VIN      0.054700
     51 H26        -6.0810   -0.2110    2.2680 hc        1 VIN      0.048033
     52 H26A       -7.2980    1.1170    2.0940 hc        1 VIN      0.048033
     53 H26B       -7.8360   -0.6170    2.0260 hc        1 VIN      0.048033
     54 H27        -7.9040    0.5610   -1.5810 hc        1 VIN      0.048033
     55 H27A       -8.9310   -0.0720   -0.2170 hc        1 VIN      0.048033
     56 H27B       -8.2940    1.6320   -0.1730 hc        1 VIN      0.048033
@<TRIPOS>BOND
     1    1    2 ar  
     2    1    3 ar  
     3    1    4 1   
     4    2    5 ar  
     5    2    6 1   
     6    3    7 ar  
     7    3    8 1   
     8    4    9 1   
     9    4   10 1   
    10    5   11 ar  
    11    5   12 1   
    12    6    9 ar  
    13    6   13 ar  
    14    7   11 ar  
    15    7   14 1   
    16    8   15 1   
    17    8   33 1   
    18    8   34 1   
    19    9   16 ar  
    20   10   17 1   
    21   10   35 1   
    22   10   36 1   
    23   11   18 1   
    24   12   19 2   
    25   12   37 1   
    26   13   20 ar  
    27   13   38 1   
    28   14   21 ar  
    29   14   22 ar  
    30   15   21 1   
    31   15   39 1   
    32   15   40 1   
    33   16   23 ar  
    34   16   41 1   
    35   17   24 1   
    36   17   42 1   
    37   17   43 1   
    38   18   19 1   
    39   18   25 2   
    40   20   23 ar  
    41   20   44 1   
    42   21   26 ar  
    43   22   27 ar  
    44   22   45 1   
    45   23   46 1   
    46   24   47 1   
    47   26   28 ar  
    48   26   48 1   
    49   27   28 ar  
    50   27   49 1   
    51   28   29 1   
    52   29   30 1   
    53   30   31 1   
    54   30   32 1   
    55   30   50 1   
    56   31   51 1   
    57   31   52 1   
    58   31   53 1   
    59   32   54 1   
    60   32   55 1   
    61   32   56 1   
@<TRIPOS>SUBSTRUCTURE
     1 VIN         1 TEMP              0 ****  ****    0 ROOT
