@<TRIPOS>MOLECULE
VIO
   33    32     1     0     0
SMALL
bcc


@<TRIPOS>ATOM
      1 N          -0.0290   -0.2550    0.1360 n3        1 VIO     -0.899800
      2 CA          1.4010   -0.0310   -0.0180 c3        1 VIO      0.007500
      3 C           2.2300   -0.0420    1.3190 c         1 VIO      0.895600
      4 O           1.6310   -0.3840    2.3720 o         1 VIO     -0.824300
      5 OXT         3.4440    0.2880    1.2290 o         1 VIO     -0.824300
      6 CB          1.7200    1.2850   -0.7260 c3        1 VIO     -0.067400
      7 CG          1.2860    1.2570   -2.1770 c3        1 VIO     -0.089400
      8 CD          1.9160    2.4540   -2.8850 c3        1 VIO     -0.018700
      9 NE          1.5920    2.5070   -4.3020 nh        1 VIO     -0.317100
     10 CZ          2.1010    3.4020   -5.1660 c2        1 VIO      0.413800
     11 CH1         1.7050    3.3290   -6.6380 c3        1 VIO     -0.165700
     12 NH2         2.9660    4.3770   -4.7880 nh        1 VIO     -0.468200
     13 C1          2.8050    2.6620   -7.4420 c3        1 VIO     -0.085400
     14 C2          2.4120    2.5600   -8.8940 c3        1 VIO     -0.101100
     15 H          -0.1420   -1.1370    0.6080 hn        1 VIO      0.340800
     16 HN2        -0.3910    0.4430    0.7630 hn        1 VIO      0.340800
     17 HA          1.8050   -0.8790   -0.6420 h1        1 VIO      0.040700
     18 HB1         1.2270    2.1410   -0.1990 hc        1 VIO      0.059700
     19 HB2         2.8330    1.4290   -0.6500 hc        1 VIO      0.059700
     20 HG1         1.6270    0.3010   -2.6540 hc        1 VIO      0.061200
     21 HG2         0.1680    1.2980   -2.2430 hc        1 VIO      0.061200
     22 HD1         1.5560    3.4070   -2.3990 h1        1 VIO      0.074700
     23 HD2         3.0390    2.3930   -2.7720 h1        1 VIO      0.074700
     24 HE          0.9590    1.8120   -4.6510 hn        1 VIO      0.327700
     25 HH11        1.5130    4.3660   -7.0260 hc        1 VIO      0.094200
     26 HH12        0.7450    2.7550   -6.7560 hc        1 VIO      0.094200
     27 HH21        3.2880    4.4720   -3.8490 hn        1 VIO      0.319700
     28 HH22        3.3260    4.9950   -5.4790 hn        1 VIO      0.319700
     29 H11         3.7560    3.2510   -7.3500 hc        1 VIO      0.058700
     30 H12         3.0050    1.6360   -7.0330 hc        1 VIO      0.058700
     31 H21         2.2250    3.5720   -9.3280 hc        1 VIO      0.052367
     32 H22         1.4850    1.9480   -9.0130 hc        1 VIO      0.052367
     33 H23         3.2320    2.0730   -9.4750 hc        1 VIO      0.052367
@<TRIPOS>BOND
     1    1    2 1   
     2    1   15 1   
     3    1   16 1   
     4    2    3 1   
     5    2    6 1   
     6    2   17 1   
     7    3    4 1   
     8    3    5 1   
     9    6    7 1   
    10    6   18 1   
    11    6   19 1   
    12    7    8 1   
    13    7   20 1   
    14    7   21 1   
    15    8    9 1   
    16    8   22 1   
    17    8   23 1   
    18    9   10 2   
    19    9   24 1   
    20   10   11 1   
    21   10   12 1   
    22   11   13 1   
    23   11   25 1   
    24   11   26 1   
    25   12   27 1   
    26   12   28 1   
    27   13   14 1   
    28   13   29 1   
    29   13   30 1   
    30   14   31 1   
    31   14   32 1   
    32   14   33 1   
@<TRIPOS>SUBSTRUCTURE
     1 VIO         1 TEMP              0 ****  ****    0 ROOT
