@<TRIPOS>MOLECULE
VIO
   33    32     1     0     0
SMALL
bcc


@<TRIPOS>ATOM
      1 N          -3.3910   -1.6390   -0.9390 n3        1 VIO     -0.899800
      2 CA         -3.0750   -0.6840    0.1130 c3        1 VIO      0.007500
      3 C          -4.2710    0.2290    0.5730 c         1 VIO      0.895600
      4 O          -5.4120   -0.0330    0.1130 o         1 VIO     -0.824300
      5 OXT        -3.9890    1.1560    1.3800 o         1 VIO     -0.824300
      6 CB         -1.9230    0.2480   -0.2610 c3        1 VIO     -0.067400
      7 CG         -0.6100   -0.5000   -0.3600 c3        1 VIO     -0.089400
      8 CD          0.5190    0.5260   -0.4150 c3        1 VIO     -0.018700
      9 NE          1.8370   -0.0860   -0.4780 nh        1 VIO     -0.317100
     10 CZ          2.9950    0.5950   -0.4350 c2        1 VIO      0.413800
     11 CH1         4.3140   -0.1720   -0.4750 c3        1 VIO     -0.165700
     12 NH2         3.0480    1.9480   -0.3500 nh        1 VIO     -0.468200
     13 C1          4.8950   -0.2850    0.9220 c3        1 VIO     -0.085400
     14 C2          6.1860   -1.0640    0.8970 c3        1 VIO     -0.101100
     15 H          -4.1540   -2.2060   -0.6070 hn        1 VIO      0.340800
     16 HN2        -3.7480   -1.1290   -1.7290 hn        1 VIO      0.340800
     17 HA         -2.7700   -1.2800    1.0220 h1        1 VIO      0.040700
     18 HB1        -1.8700    1.0320    0.5440 hc        1 VIO      0.059700
     19 HB2        -2.1400    0.7650   -1.2300 hc        1 VIO      0.059700
     20 HG1        -0.6060   -1.1470   -1.2760 hc        1 VIO      0.061200
     21 HG2        -0.4860   -1.1650    0.5340 hc        1 VIO      0.061200
     22 HD1         0.4640    1.1760    0.5070 h1        1 VIO      0.074700
     23 HD2         0.3840    1.1800   -1.3260 h1        1 VIO      0.074700
     24 HE          1.8720   -1.0860   -0.5390 hn        1 VIO      0.327700
     25 HH11        5.0350    0.3600   -1.1550 hc        1 VIO      0.094200
     26 HH12        4.1570   -1.1980   -0.9070 hc        1 VIO      0.094200
     27 HH21        2.2290    2.5130   -0.2960 hn        1 VIO      0.319700
     28 HH22        3.9360    2.3920   -0.2980 hn        1 VIO      0.319700
     29 H11         4.1590   -0.7970    1.5980 hc        1 VIO      0.058700
     30 H12         5.0810    0.7390    1.3420 hc        1 VIO      0.058700
     31 H21         6.9400   -0.5630    0.2440 hc        1 VIO      0.052367
     32 H22         6.6040   -1.1350    1.9300 hc        1 VIO      0.052367
     33 H23         6.0180   -2.0990    0.5130 hc        1 VIO      0.052367
@<TRIPOS>BOND
     1    1    2 1   
     2    1   15 1   
     3    1   16 1   
     4    2    3 1   
     5    2    6 1   
     6    2   17 1   
     7    3    4 1   
     8    3    5 1   
     9    6    7 1   
    10    6   18 1   
    11    6   19 1   
    12    7    8 1   
    13    7   20 1   
    14    7   21 1   
    15    8    9 1   
    16    8   22 1   
    17    8   23 1   
    18    9   10 2   
    19    9   24 1   
    20   10   11 1   
    21   10   12 1   
    22   11   13 1   
    23   11   25 1   
    24   11   26 1   
    25   12   27 1   
    26   12   28 1   
    27   13   14 1   
    28   13   29 1   
    29   13   30 1   
    30   14   31 1   
    31   14   32 1   
    32   14   33 1   
@<TRIPOS>SUBSTRUCTURE
     1 VIO         1 TEMP              0 ****  ****    0 ROOT
