@<TRIPOS>MOLECULE
VIQ
   47    47     1     0     0
SMALL
bcc


@<TRIPOS>ATOM
      1 O2          0.2080    0.1940    0.6660 o         1 VIQ     -0.455400
      2 S           1.5300    0.3830    0.3730 s4        1 VIQ      1.651300
      3 O3          2.4680    0.0490    1.3110 o         1 VIQ     -0.455400
      4 N1          1.7520   -1.6380   -0.6760 nh        1 VIQ     -0.829200
      5 C1          1.2920   -1.6780   -2.0090 cc        1 VIQ     -0.220700
      6 C2          2.0500   -1.6340   -3.2080 cd        1 VIQ     -0.068600
      7 C6          3.5060   -1.5630   -3.3970 c3        1 VIQ     -0.045800
      8 N2          1.1140   -1.6980   -4.2470 na        1 VIQ      0.120400
      9 C3          1.4720   -1.6770   -5.6490 c3        1 VIQ      0.028600
     10 N3         -0.1450   -1.7940   -3.7960 nd        1 VIQ     -0.469800
     11 C4         -0.0980   -1.8000   -2.4360 cc        1 VIQ      0.329600
     12 C5         -1.2610   -1.9620   -1.5430 c3        1 VIQ     -0.149400
     13 C7          1.9200    1.4170   -0.7320 ca        1 VIQ     -0.624500
     14 C8          3.2910    1.7850   -0.9670 ca        1 VIQ      0.098700
     15 C16         4.3750    1.0070   -0.3100 c3        1 VIQ     -0.107800
     16 C9          3.6380    2.8530   -1.7810 ca        1 VIQ     -0.134300
     17 C10         5.0470    3.2860   -1.9540 c3        1 VIQ     -0.059800
     18 C11         2.6050    3.5550   -2.4690 ca        1 VIQ      0.278100
     19 O1          3.0090    4.5920   -3.2430 os        1 VIQ     -0.288900
     20 C15         2.0030    5.3450   -3.9340 c3        1 VIQ      0.101700
     21 C12         1.2650    3.1510   -2.3380 ca        1 VIQ     -0.261000
     22 C13         0.9250    2.1020   -1.5000 ca        1 VIQ      0.144700
     23 C14        -0.5090    1.7270   -1.4160 c3        1 VIQ     -0.120800
     24 H1          2.7160   -1.9360   -0.6290 hn        1 VIQ      0.412300
     25 H61C        3.8940   -2.5380   -3.7930 hc        1 VIQ      0.065033
     26 H62C        4.0160   -1.3460   -2.4260 hc        1 VIQ      0.065033
     27 H63C        3.7790   -0.7590   -4.1280 hc        1 VIQ      0.065033
     28 H31C        1.8590   -0.6560   -5.9130 h1        1 VIQ      0.074700
     29 H32C        0.5790   -1.9150   -6.2870 h1        1 VIQ      0.074700
     30 H33C        2.2760   -2.4410   -5.8260 h1        1 VIQ      0.074700
     31 H51C       -1.3350   -3.0310   -1.2180 hc        1 VIQ      0.069700
     32 H52C       -2.2170   -1.6880   -2.0570 hc        1 VIQ      0.069700
     33 H53C       -1.1500   -1.3180   -0.6330 hc        1 VIQ      0.069700
     34 H161        5.3610    1.1590   -0.8180 hc        1 VIQ      0.078700
     35 H162        4.4870    1.3230    0.7610 hc        1 VIQ      0.078700
     36 H163        4.1620   -0.0910   -0.3330 hc        1 VIQ      0.078700
     37 H101        5.6110    2.5400   -2.5690 hc        1 VIQ      0.067033
     38 H102        5.1070    4.2770   -2.4710 hc        1 VIQ      0.067033
     39 H103        5.5510    3.3870   -0.9600 hc        1 VIQ      0.067033
     40 H12         0.4740    3.6710   -2.9030 ha        1 VIQ      0.172000
     41 H151        1.4730    4.6960   -4.6720 h1        1 VIQ      0.071700
     42 H152        2.6050    6.1350   -4.4550 h1        1 VIQ      0.071700
     43 H153        1.2900    5.8010   -3.2060 h1        1 VIQ      0.071700
     44 H141       -0.6480    0.6290   -1.6080 hc        1 VIQ      0.087700
     45 H142       -0.9250    1.9610   -0.4010 hc        1 VIQ      0.087700
     46 H143       -1.1170    2.2850   -2.1720 hc        1 VIQ      0.087700
     47 H121        1.1930   -2.2740   -0.1190 hn        1 VIQ      0.412300
@<TRIPOS>BOND
     1    1    2 1   
     2    2    3 1   
     3    2   13 1   
     4    4    5 1   
     5    4   24 1   
     6    4   47 1   
     7    5    6 2   
     8    5   11 1   
     9    6    7 1   
    10    6    8 1   
    11    7   25 1   
    12    7   26 1   
    13    7   27 1   
    14    8    9 1   
    15    8   10 1   
    16    9   28 1   
    17    9   29 1   
    18    9   30 1   
    19   10   11 2   
    20   11   12 1   
    21   12   31 1   
    22   12   32 1   
    23   12   33 1   
    24   13   14 ar  
    25   13   22 ar  
    26   14   15 1   
    27   14   16 ar  
    28   15   34 1   
    29   15   35 1   
    30   15   36 1   
    31   16   17 1   
    32   16   18 ar  
    33   17   37 1   
    34   17   38 1   
    35   17   39 1   
    36   18   19 1   
    37   18   21 ar  
    38   19   20 1   
    39   20   41 1   
    40   20   42 1   
    41   20   43 1   
    42   21   22 ar  
    43   21   40 1   
    44   22   23 1   
    45   23   44 1   
    46   23   45 1   
    47   23   46 1   
@<TRIPOS>SUBSTRUCTURE
     1 VIQ         1 TEMP              0 ****  ****    0 ROOT
