@<TRIPOS>MOLECULE
VIQ
   46    47     1     0     0
SMALL
bcc


@<TRIPOS>ATOM
      1 O2          0.8780   -2.3630   -1.3390 o         1 VIQ     -0.662300
      2 S           0.4760   -2.0150   -0.0340 sy        1 VIQ      1.515200
      3 O3          0.1420   -3.1280    0.7750 o         1 VIQ     -0.662300
      4 N1          1.6540   -1.2080    0.7520 nh        1 VIQ     -0.749500
      5 C1          2.2430   -0.0170    0.3650 cc        1 VIQ     -0.062700
      6 C2          2.0790    1.2620    0.9590 cd        1 VIQ     -0.091600
      7 C6          1.2420    1.6610    2.1000 c3        1 VIQ     -0.033800
      8 N2          2.9230    2.1280    0.2490 na        1 VIQ      0.093400
      9 C3          3.0030    3.5470    0.4940 c3        1 VIQ      0.040600
     10 N3          3.5810    1.5020   -0.7400 nd        1 VIQ     -0.509800
     11 C4          3.2190    0.1900   -0.7060 cc        1 VIQ      0.326600
     12 C5          3.7390   -0.8560   -1.6050 c3        1 VIQ     -0.141400
     13 C7         -0.8110   -0.9190   -0.0980 ca        1 VIQ     -0.413500
     14 C8         -1.7250   -0.8110    0.9780 ca        1 VIQ      0.072700
     15 C16        -1.4800   -1.5550    2.2430 c3        1 VIQ     -0.087800
     16 C9         -2.8790   -0.0240    0.8840 ca        1 VIQ     -0.142300
     17 C10        -3.8760    0.0350    1.9800 c3        1 VIQ     -0.043800
     18 C11        -3.0910    0.7240   -0.2970 ca        1 VIQ      0.194100
     19 O1         -4.2370    1.4870   -0.3240 os        1 VIQ     -0.323900
     20 C15        -4.5070    2.1920   -1.5320 c3        1 VIQ      0.111700
     21 C12        -2.1670    0.6820   -1.3430 ca        1 VIQ     -0.250000
     22 C13        -1.0350   -0.1310   -1.2440 ca        1 VIQ      0.092700
     23 C14        -0.0960   -0.1220   -2.3950 c3        1 VIQ     -0.091800
     24 H1          2.0140   -1.5660    1.6090 hn        1 VIQ      0.451800
     25 H61C        1.8800    1.9340    2.9800 hc        1 VIQ      0.055367
     26 H62C        0.6060    2.5450    1.8400 hc        1 VIQ      0.055367
     27 H63C        0.5720    0.8150    2.3930 hc        1 VIQ      0.055367
     28 H31C        3.0120    3.7180    1.6040 h1        1 VIQ      0.058367
     29 H32C        3.9360    3.9730    0.0390 h1        1 VIQ      0.058367
     30 H33C        2.1070    4.0590    0.0490 h1        1 VIQ      0.058367
     31 H51C        2.8870   -1.4590   -2.0170 hc        1 VIQ      0.063033
     32 H52C        4.3200   -0.4240   -2.4570 hc        1 VIQ      0.063033
     33 H53C        4.4110   -1.5410   -1.0280 hc        1 VIQ      0.063033
     34 H161       -0.3980   -1.5250    2.5280 hc        1 VIQ      0.064033
     35 H162       -2.0590   -1.1290    3.0980 hc        1 VIQ      0.064033
     36 H163       -1.7720   -2.6310    2.1120 hc        1 VIQ      0.064033
     37 H101       -3.4620    0.6000    2.8530 hc        1 VIQ      0.049033
     38 H102       -4.8120    0.5490    1.6490 hc        1 VIQ      0.049033
     39 H103       -4.1480   -0.9960    2.3180 hc        1 VIQ      0.049033
     40 H12        -2.3210    1.2800   -2.2520 ha        1 VIQ      0.144000
     41 H151       -3.7170    2.9580   -1.7230 h1        1 VIQ      0.049367
     42 H152       -4.5900    1.4860   -2.3930 h1        1 VIQ      0.049367
     43 H153       -5.4920    2.6840   -1.3270 h1        1 VIQ      0.049367
     44 H141       -0.1760   -1.0850   -2.9650 hc        1 VIQ      0.069033
     45 H142       -0.3180    0.7230   -3.0910 hc        1 VIQ      0.069033
     46 H143        0.9650   -0.0190   -2.0450 hc        1 VIQ      0.069033
@<TRIPOS>BOND
     1    1    2 2   
     2    2    3 2   
     3    2    4 1   
     4    2   13 1   
     5    4    5 1   
     6    4   24 1   
     7    5    6 2   
     8    5   11 1   
     9    6    7 1   
    10    6    8 1   
    11    7   25 1   
    12    7   26 1   
    13    7   27 1   
    14    8    9 1   
    15    8   10 1   
    16    9   28 1   
    17    9   29 1   
    18    9   30 1   
    19   10   11 2   
    20   11   12 1   
    21   12   31 1   
    22   12   32 1   
    23   12   33 1   
    24   13   14 ar  
    25   13   22 ar  
    26   14   15 1   
    27   14   16 ar  
    28   15   34 1   
    29   15   35 1   
    30   15   36 1   
    31   16   17 1   
    32   16   18 ar  
    33   17   37 1   
    34   17   38 1   
    35   17   39 1   
    36   18   19 1   
    37   18   21 ar  
    38   19   20 1   
    39   20   41 1   
    40   20   42 1   
    41   20   43 1   
    42   21   22 ar  
    43   21   40 1   
    44   22   23 1   
    45   23   44 1   
    46   23   45 1   
    47   23   46 1   
@<TRIPOS>SUBSTRUCTURE
     1 VIQ         1 TEMP              0 ****  ****    0 ROOT
