@<TRIPOS>MOLECULE
VIQ
   46    40     1     0     0
SMALL
bcc


@<TRIPOS>ATOM
      1 O2          1.5370   -1.7900    0.9070 o         1 VIQ     -0.945000
      2 S           0.5300   -1.2120    0.0670 ss        1 VIQ      2.867000
      3 O3          0.1710   -2.3370   -0.7520 o         1 VIQ     -0.945000
      4 N1         -0.7710   -0.6750    0.9620 n2        1 VIQ     -0.805000
      5 C1         -1.6100   -1.6300    1.6710 c2        1 VIQ     -0.097000
      6 C2         -2.9830   -1.6480    1.6700 c1        1 VIQ     -0.068000
      7 C6         -3.8810   -0.7560    0.8440 c2        1 VIQ     -0.137250
      8 N2         -3.3920   -2.5580    2.5920 n2        1 VIQ     -0.097000
      9 C3         -4.7600   -2.9430    2.8570 c2        1 VIQ     -0.137250
     10 N3         -2.2740   -3.1090    3.1700 n2        1 VIQ     -0.097000
     11 C4         -1.1790   -2.5370    2.6020 c1        1 VIQ     -0.068000
     12 C5          0.2620   -2.8460    2.9400 c2        1 VIQ     -0.137250
     13 C7          1.2130    0.1510   -0.9390 c1        1 VIQ     -0.865000
     14 C8          2.0710    1.0790   -0.3580 c2        1 VIQ      0.083000
     15 C16         2.5920    0.8570    1.0780 c3        1 VIQ     -0.216000
     16 C9          2.5220    2.1780   -1.1010 c1        1 VIQ     -0.132000
     17 C10         3.6000    3.1160   -0.5110 c2        1 VIQ     -0.137250
     18 C11         2.1100    2.3390   -2.4230 c2        1 VIQ      0.151000
     19 O1          2.6720    3.3820   -3.2230 os        1 VIQ     -0.205000
     20 C15         1.7540    4.4110   -3.5490 c3        1 VIQ     -0.079000
     21 C12         1.2530    1.4120   -3.0020 c1        1 VIQ     -0.248000
     22 C13         0.8020    0.3140   -2.2600 c1        1 VIQ      0.089000
     23 C14        -0.0460   -0.7660   -2.9390 c3        1 VIQ     -0.212000
     24 H1         -0.9760    0.2110    0.9790 hn        1 VIQ      0.246000
     25 H61C       -4.6390   -0.4610    1.3900 ha        1 VIQ      0.095750
     26 H62C       -3.3720    0.0290    0.5370 ha        1 VIQ      0.095750
     27 H63C       -4.2100   -1.2510    0.0740 ha        1 VIQ      0.095750
     28 H31C       -5.1940   -3.2080    2.0190 ha        1 VIQ      0.095750
     29 H32C       -5.2450   -2.1820    3.2510 ha        1 VIQ      0.095750
     30 H33C       -4.7720   -3.6980    3.4850 ha        1 VIQ      0.095750
     31 H51C        0.3310   -3.0870    3.8850 ha        1 VIQ      0.095750
     32 H52C        0.8150   -2.0570    2.7640 ha        1 VIQ      0.095750
     33 H53C        0.5720   -3.5880    2.3920 ha        1 VIQ      0.095750
     34 H161        3.2950    0.1660    1.0690 hc        1 VIQ      0.106333
     35 H162        1.8450    0.5610    1.6580 hc        1 VIQ      0.106333
     36 H163        2.9620    1.6950    1.4240 hc        1 VIQ      0.106333
     37 H101        3.2480    3.5540    0.2890 ha        1 VIQ      0.095750
     38 H102        4.3940    2.5930   -0.2740 ha        1 VIQ      0.095750
     39 H103        3.8430    3.7980   -1.1770 ha        1 VIQ      0.095750
     40 H12         0.9620    1.5270   -3.9360 ha        1 VIQ      0.144000
     41 H151        0.8510    4.0350   -3.6170 h1        1 VIQ      0.089333
     42 H152        2.0060    4.8140   -4.4100 h1        1 VIQ      0.089333
     43 H153        1.7700    5.0980   -2.8490 h1        1 VIQ      0.089333
     44 H141        0.1370   -0.7660   -3.9040 hc        1 VIQ      0.104667
     45 H142        0.1770   -1.6360   -2.5670 hc        1 VIQ      0.104667
     46 H143       -0.9930   -0.5790   -2.7870 hc        1 VIQ      0.104667
@<TRIPOS>BOND
     1    1    2 1   
     2    2    3 1   
     3    4    5 1   
     4    4   24 1   
     5    5    6 1   
     6    5   11 1   
     7    6    8 1   
     8    7   25 1   
     9    7   26 1   
    10    7   27 1   
    11    8   10 1   
    12    9   28 1   
    13    9   29 1   
    14    9   30 1   
    15   10   11 1   
    16   12   31 1   
    17   12   32 1   
    18   12   33 1   
    19   13   14 1   
    20   13   22 1   
    21   14   15 1   
    22   14   16 1   
    23   15   34 1   
    24   15   35 1   
    25   15   36 1   
    26   16   18 1   
    27   17   37 1   
    28   17   38 1   
    29   17   39 1   
    30   18   19 1   
    31   18   21 1   
    32   19   20 1   
    33   20   41 1   
    34   20   42 1   
    35   20   43 1   
    36   21   40 1   
    37   22   23 1   
    38   23   44 1   
    39   23   45 1   
    40   23   46 1   
@<TRIPOS>SUBSTRUCTURE
     1 VIQ         1 TEMP              0 ****  ****    0 ROOT
