@<TRIPOS>MOLECULE
VIQ
   46    47     1     0     0
SMALL
bcc


@<TRIPOS>ATOM
      1 O2          0.1270    0.2060    0.3890 o         1 VIQ     -0.662300
      2 S           1.4960    0.0830    0.0780 sy        1 VIQ      1.515200
      3 O3          2.3330   -0.0080    1.2170 o         1 VIQ     -0.662300
      4 N1          1.7820   -1.2500   -0.8150 nh        1 VIQ     -0.749500
      5 C1          1.2230   -1.5660   -2.0400 cc        1 VIQ     -0.061700
      6 C2          1.8630   -1.5720   -3.3070 cd        1 VIQ     -0.091600
      7 C6          3.2480   -1.2250   -3.6590 c3        1 VIQ     -0.032800
      8 N2          0.8930   -1.9970   -4.2270 na        1 VIQ      0.093400
      9 C3          1.1480   -2.1640   -5.6360 c3        1 VIQ      0.040600
     10 N3         -0.2850   -2.2630   -3.6400 nd        1 VIQ     -0.509800
     11 C4         -0.1410   -2.0260   -2.3080 cc        1 VIQ      0.326600
     12 C5         -1.1970   -2.2100   -1.2950 c3        1 VIQ     -0.141400
     13 C7          1.9800    1.3650   -0.9140 ca        1 VIQ     -0.413500
     14 C8          3.3300    1.7910   -0.9420 ca        1 VIQ      0.073700
     15 C16         4.3700    1.0190   -0.2110 c3        1 VIQ     -0.086800
     16 C9          3.7220    2.9410   -1.6370 ca        1 VIQ     -0.142300
     17 C10         5.1210    3.4310   -1.6100 c3        1 VIQ     -0.043800
     18 C11         2.7460    3.6480   -2.3760 ca        1 VIQ      0.194100
     19 O1          3.1960    4.7630   -3.0470 os        1 VIQ     -0.323900
     20 C15         2.2160    5.5320   -3.7390 c3        1 VIQ      0.111700
     21 C12         1.4220    3.2070   -2.4140 ca        1 VIQ     -0.250000
     22 C13         1.0420    2.0730   -1.6910 ca        1 VIQ      0.091700
     23 C14        -0.3830    1.6620   -1.7820 c3        1 VIQ     -0.091800
     24 H1          2.4280   -1.9350   -0.4880 hn        1 VIQ      0.451800
     25 H61C        3.7490   -2.0750   -4.1870 hc        1 VIQ      0.055033
     26 H62C        3.2720   -0.3300   -4.3320 hc        1 VIQ      0.055033
     27 H63C        3.8260   -0.9880   -2.7320 hc        1 VIQ      0.055033
     28 H31C        0.1860   -2.2930   -6.1990 h1        1 VIQ      0.058367
     29 H32C        1.6870   -1.2550   -6.0160 h1        1 VIQ      0.058367
     30 H33C        1.7940   -3.0690   -5.7940 h1        1 VIQ      0.058367
     31 H51C       -2.1950   -2.4000   -1.7620 hc        1 VIQ      0.063033
     32 H52C       -1.2680   -1.2950   -0.6500 hc        1 VIQ      0.063033
     33 H53C       -0.9380   -3.0830   -0.6440 hc        1 VIQ      0.063033
     34 H161        4.3230    1.2610    0.8840 hc        1 VIQ      0.064033
     35 H162        4.2130   -0.0830   -0.3260 hc        1 VIQ      0.064033
     36 H163        5.3990    1.2470   -0.5820 hc        1 VIQ      0.064033
     37 H101        5.7850    2.7490   -2.1990 hc        1 VIQ      0.049033
     38 H102        5.2000    4.4560   -2.0510 hc        1 VIQ      0.049033
     39 H103        5.5000    3.4770   -0.5580 hc        1 VIQ      0.049033
     40 H12         0.6670    3.7440   -3.0050 ha        1 VIQ      0.144000
     41 H151        2.8070    6.3890   -4.1510 h1        1 VIQ      0.049367
     42 H152        1.4290    5.8960   -3.0350 h1        1 VIQ      0.049367
     43 H153        1.7610    4.9340   -4.5660 h1        1 VIQ      0.049367
     44 H141       -0.9120    1.8940   -0.8200 hc        1 VIQ      0.069033
     45 H142       -0.4710    0.5580   -1.9620 hc        1 VIQ      0.069033
     46 H143       -0.9050    2.1950   -2.6130 hc        1 VIQ      0.069033
@<TRIPOS>BOND
     1    1    2 2   
     2    2    3 2   
     3    2    4 1   
     4    2   13 1   
     5    4    5 1   
     6    4   24 1   
     7    5    6 2   
     8    5   11 1   
     9    6    7 1   
    10    6    8 1   
    11    7   25 1   
    12    7   26 1   
    13    7   27 1   
    14    8    9 1   
    15    8   10 1   
    16    9   28 1   
    17    9   29 1   
    18    9   30 1   
    19   10   11 2   
    20   11   12 1   
    21   12   31 1   
    22   12   32 1   
    23   12   33 1   
    24   13   14 ar  
    25   13   22 ar  
    26   14   15 1   
    27   14   16 ar  
    28   15   34 1   
    29   15   35 1   
    30   15   36 1   
    31   16   17 1   
    32   16   18 ar  
    33   17   37 1   
    34   17   38 1   
    35   17   39 1   
    36   18   19 1   
    37   18   21 ar  
    38   19   20 1   
    39   20   41 1   
    40   20   42 1   
    41   20   43 1   
    42   21   22 ar  
    43   21   40 1   
    44   22   23 1   
    45   23   44 1   
    46   23   45 1   
    47   23   46 1   
@<TRIPOS>SUBSTRUCTURE
     1 VIQ         1 TEMP              0 ****  ****    0 ROOT
