@<TRIPOS>MOLECULE
VIQ
   46    47     1     0     0
SMALL
bcc


@<TRIPOS>ATOM
      1 O2          0.1300    0.2140    0.3940 o         1 VIQ     -0.662300
      2 S           1.4980    0.0870    0.0800 sy        1 VIQ      1.515200
      3 O3          2.3370   -0.0030    1.2180 o         1 VIQ     -0.662300
      4 N1          1.7810   -1.2470   -0.8100 nu        1 VIQ     -0.749500
      5 C1          1.2190   -1.5650   -2.0340 cc        1 VIQ     -0.061700
      6 C2          1.8570   -1.5740   -3.3030 cd        1 VIQ     -0.091600
      7 C6          3.2410   -1.2310   -3.6580 c3        1 VIQ     -0.032800
      8 N2          0.8850   -1.9990   -4.2200 na        1 VIQ      0.093400
      9 C3          1.1360   -2.1650   -5.6300 c3        1 VIQ      0.040600
     10 N3         -0.2930   -2.2610   -3.6310 nd        1 VIQ     -0.509800
     11 C4         -0.1470   -2.0220   -2.2990 cc        1 VIQ      0.326600
     12 C5         -1.2020   -2.2020   -1.2850 c3        1 VIQ     -0.141400
     13 C7          1.9830    1.3660   -0.9150 ca        1 VIQ     -0.413500
     14 C8          3.3340    1.7900   -0.9460 ca        1 VIQ      0.073700
     15 C16         4.3740    1.0160   -0.2160 c3        1 VIQ     -0.086800
     16 C9          3.7280    2.9370   -1.6450 ca        1 VIQ     -0.142300
     17 C10         5.1280    3.4240   -1.6210 c3        1 VIQ     -0.043800
     18 C11         2.7520    3.6460   -2.3820 ca        1 VIQ      0.194100
     19 O1          3.2030    4.7590   -3.0560 os        1 VIQ     -0.323900
     20 C15         2.2230    5.5290   -3.7470 c3        1 VIQ      0.111700
     21 C12         1.4270    3.2070   -2.4170 ca        1 VIQ     -0.250000
     22 C13         1.0460    2.0750   -1.6920 ca        1 VIQ      0.091700
     23 C14        -0.3800    1.6670   -1.7780 c3        1 VIQ     -0.091800
     24 H1          2.4250   -1.9340   -0.4840 hn        1 VIQ      0.451800
     25 H61C        3.8200   -0.9860   -2.7320 hc        1 VIQ      0.054700
     26 H62C        3.7430   -2.0860   -4.1780 hc        1 VIQ      0.054700
     27 H63C        3.2660   -0.3410   -4.3380 hc        1 VIQ      0.054700
     28 H31C        0.1760   -2.3220   -6.1880 h1        1 VIQ      0.058367
     29 H32C        1.6500   -1.2440   -6.0170 h1        1 VIQ      0.058367
     30 H33C        1.8060   -3.0530   -5.7870 h1        1 VIQ      0.058367
     31 H51C       -1.2690   -1.2860   -0.6410 hc        1 VIQ      0.063033
     32 H52C       -2.2010   -2.3890   -1.7500 hc        1 VIQ      0.063033
     33 H53C       -0.9440   -3.0750   -0.6340 hc        1 VIQ      0.063033
     34 H161        5.4030    1.2420   -0.5890 hc        1 VIQ      0.064033
     35 H162        4.3290    1.2600    0.8780 hc        1 VIQ      0.064033
     36 H163        4.2150   -0.0850   -0.3300 hc        1 VIQ      0.064033
     37 H101        5.7890    2.7390   -2.2090 hc        1 VIQ      0.049033
     38 H102        5.5090    3.4720   -0.5700 hc        1 VIQ      0.049033
     39 H103        5.2080    4.4480   -2.0650 hc        1 VIQ      0.049033
     40 H12         0.6720    3.7460   -3.0080 ha        1 VIQ      0.144000
     41 H151        2.8150    6.3840   -4.1610 h1        1 VIQ      0.049367
     42 H152        1.4380    5.8950   -3.0410 h1        1 VIQ      0.049367
     43 H153        1.7650    4.9310   -4.5710 h1        1 VIQ      0.049367
     44 H141       -0.4710    0.5640   -1.9560 hc        1 VIQ      0.069033
     45 H142       -0.9030    2.2010   -2.6090 hc        1 VIQ      0.069033
     46 H143       -0.9070    1.9030   -0.8160 hc        1 VIQ      0.069033
@<TRIPOS>BOND
     1    1    2 2   
     2    2    3 2   
     3    2    4 1   
     4    2   13 1   
     5    4    5 1   
     6    4   24 1   
     7    5    6 2   
     8    5   11 1   
     9    6    7 1   
    10    6    8 1   
    11    7   25 1   
    12    7   26 1   
    13    7   27 1   
    14    8    9 1   
    15    8   10 1   
    16    9   28 1   
    17    9   29 1   
    18    9   30 1   
    19   10   11 2   
    20   11   12 1   
    21   12   31 1   
    22   12   32 1   
    23   12   33 1   
    24   13   14 ar  
    25   13   22 ar  
    26   14   15 1   
    27   14   16 ar  
    28   15   34 1   
    29   15   35 1   
    30   15   36 1   
    31   16   17 1   
    32   16   18 ar  
    33   17   37 1   
    34   17   38 1   
    35   17   39 1   
    36   18   19 1   
    37   18   21 ar  
    38   19   20 1   
    39   20   41 1   
    40   20   42 1   
    41   20   43 1   
    42   21   22 ar  
    43   21   40 1   
    44   22   23 1   
    45   23   44 1   
    46   23   45 1   
    47   23   46 1   
@<TRIPOS>SUBSTRUCTURE
     1 VIQ         1 TEMP              0 ****  ****    0 ROOT
