@<TRIPOS>MOLECULE
VIR
   73    66     1     0     0
SMALL
bcc


@<TRIPOS>ATOM
      1 C1          3.0940    2.2650    1.2920 c1        1 VIR      0.011000
      2 C10        -1.1160    0.3320    3.7130 c1        1 VIR     -0.012000
      3 C12        -1.0370    1.9670    2.1840 c1        1 VIR     -0.036000
      4 C13        -1.6850   -0.8640    4.4840 c2        1 VIR     -0.144000
      5 C14        -2.9800   -1.3470    3.8060 c2        1 VIR      0.241000
      6 C16        -2.9570   -2.8760    3.6890 c3        1 VIR     -0.249000
      7 C17        -4.0040   -3.3260    2.6700 c3        1 VIR      0.077000
      8 C19        -3.3200   -3.8150    1.4280 c2        1 VIR     -0.164000
      9 C2          4.4550    2.3240    1.2800 c1        1 VIR     -0.177000
     10 C20        -4.1240   -4.0100    0.1350 c1        1 VIR     -0.077000
     11 C21        -5.6090   -3.7050    0.1170 c2        1 VIR     -0.191000
     12 C22        -3.4650   -4.6770   -1.0850 c2        1 VIR     -0.126000
     13 C23        -2.7640   -3.7990   -2.1760 c1        1 VIR     -0.173000
     14 C24        -2.6830   -2.2710   -2.0000 c2        1 VIR     -0.004000
     15 C26        -0.8930   -0.8120   -2.5480 c1        1 VIR      0.356000
     16 C28        -0.7050    0.3790   -3.4930 c1        1 VIR     -0.152500
     17 C29         0.6520    1.1590   -3.5080 c1        1 VIR     -0.152500
     18 C3          5.0620    2.3690    2.5580 c2        1 VIR     -0.144000
     19 C30         1.8390    0.6610   -2.6550 c2        1 VIR     -0.107000
     20 C31         2.6860   -0.2550   -3.4690 c3        1 VIR     -0.207000
     21 C32         2.6660    1.8400   -2.2040 c3        1 VIR      0.044000
     22 C33         2.7490    2.8570   -3.3250 c3        1 VIR     -0.118000
     23 C34         4.1770    2.9730   -3.7950 c3        1 VIR     -0.210000
     24 C35         2.2760    4.1970   -2.8240 c3        1 VIR     -0.210000
     25 C37         2.3400    1.6420    0.0990 c1        1 VIR      0.375000
     26 C4          3.7480    2.3300    3.4970 c3        1 VIR     -0.031000
     27 C6          1.1710    2.6010    2.8160 c1        1 VIR      0.415000
     28 C8          0.2430    1.4670    2.3740 c1        1 VIR     -0.191000
     29 N25        -1.9100   -1.6990   -3.0890 n3        1 VIR     -0.371000
     30 N5          2.5380    2.2610    2.5080 n3        1 VIR     -0.267000
     31 N9          0.1780    0.4940    3.3760 n2        1 VIR     -0.106000
     32 O11        -1.8810    1.2750    2.9950 os        1 VIR     -0.123000
     33 O15        -3.4940   -0.6780    2.9330 o         1 VIR     -0.301000
     34 O18        -4.7760   -4.3650    3.2200 oh        1 VIR     -0.327000
     35 O27        -0.8030   -0.6550   -1.3540 o         1 VIR     -0.408000
     36 O36         2.0640    2.4360   -1.0730 os        1 VIR     -0.249000
     37 O38         2.0400    0.4650    0.1200 o         1 VIR     -0.339000
     38 O7          0.9140    3.2440    3.8170 o         1 VIR     -0.333000
     39 H12        -1.2730    2.7250    1.6350 DU        1 VIR      0.255000
     40 H131       -1.8800   -0.5950    5.4070 ha        1 VIR      0.148000
     41 H132       -1.0310   -1.5880    4.4880 ha        1 VIR      0.148000
     42 H161       -3.1600   -3.2730    4.5620 hc        1 VIR      0.130500
     43 H162       -2.0640   -3.1700    3.3930 hc        1 VIR      0.130500
     44 H17        -4.5860   -2.5720    2.4460 h1        1 VIR      0.088000
     45 H19        -2.3680   -4.0100    1.4430 ha        1 VIR      0.148000
     46 HC2         4.9240    2.6880    0.5000 ha        1 VIR      0.168000
     47 H211       -5.9710   -3.8990   -0.7730 ha        1 VIR      0.089667
     48 H212       -6.0650   -4.2620    0.7840 ha        1 VIR      0.089667
     49 H213       -5.7500   -2.7630    0.3280 ha        1 VIR      0.089667
     50 H22        -3.5160   -5.6450   -1.1970 ha        1 VIR      0.134000
     51 H23        -2.3440   -4.2250   -2.9530 ha        1 VIR      0.126000
     52 H241       -3.5850   -1.8930   -2.0070 h4        1 VIR      0.109000
     53 H242       -2.2510   -2.0640   -1.1520 h4        1 VIR      0.109000
     54 H28        -1.4590    0.6970   -4.0370 ha        1 VIR      0.142000
     55 H29         0.7710    1.9210   -4.1130 ha        1 VIR      0.142000
     56 HC31        5.8130    1.7590    2.7480 ha        1 VIR      0.107000
     57 HC32        5.4970    3.2380    2.6710 ha        1 VIR      0.107000
     58 H30         1.5020    0.1860   -1.8770 ha        1 VIR      0.138000
     59 H311        2.7000    0.0540   -4.4000 hc        1 VIR      0.079333
     60 H312        3.5970   -0.2590   -3.1130 hc        1 VIR      0.079333
     61 H313        2.3200   -1.1520   -3.4310 hc        1 VIR      0.079333
     62 H32         3.5710    1.5350   -1.9710 h1        1 VIR      0.124000
     63 H33         2.1850    2.5700   -4.0680 hc        1 VIR      0.089000
     64 H341        4.7470    3.2350   -3.0440 hc        1 VIR      0.079667
     65 H342        4.2350    3.6470   -4.4990 hc        1 VIR      0.079667
     66 H343        4.4770    2.1070   -4.1460 hc        1 VIR      0.079667
     67 H351        1.3770    4.1040   -2.4410 hc        1 VIR      0.079667
     68 H352        2.2490    4.8340   -3.5690 hc        1 VIR      0.079667
     69 H353        2.8910    4.5240   -2.1370 hc        1 VIR      0.079667
     70 HC41        3.7630    1.5360    4.0700 h1        1 VIR      0.103000
     71 HC42        3.6950    3.1440    4.0430 h1        1 VIR      0.103000
     72 H25        -2.3230   -1.4970   -3.8930 hn        1 VIR      0.226000
     73 H18'       -5.3740   -4.0230    3.7930 ho        1 VIR      0.219000
@<TRIPOS>BOND
     1    1    9 1   
     2    1   30 1   
     3    2   31 1   
     4    2   32 1   
     5    3   28 1   
     6    3   32 1   
     7    4    5 1   
     8    4   40 1   
     9    4   41 1   
    10    5    6 1   
    11    5   33 1   
    12    6    7 1   
    13    6   42 1   
    14    6   43 1   
    15    7    8 1   
    16    7   34 1   
    17    7   44 1   
    18    8   10 1   
    19    8   45 1   
    20    9   46 1   
    21   10   12 1   
    22   11   47 1   
    23   11   48 1   
    24   11   49 1   
    25   12   13 1   
    26   12   50 1   
    27   13   51 1   
    28   14   29 1   
    29   14   52 1   
    30   14   53 1   
    31   15   29 1   
    32   15   35 1   
    33   16   17 1   
    34   16   54 1   
    35   17   55 1   
    36   18   26 1   
    37   18   56 1   
    38   18   57 1   
    39   19   20 1   
    40   19   21 1   
    41   19   58 1   
    42   20   59 1   
    43   20   60 1   
    44   20   61 1   
    45   21   22 1   
    46   21   36 1   
    47   21   62 1   
    48   22   23 1   
    49   22   24 1   
    50   22   63 1   
    51   23   64 1   
    52   23   65 1   
    53   23   66 1   
    54   24   67 1   
    55   24   68 1   
    56   24   69 1   
    57   25   36 1   
    58   25   37 1   
    59   26   30 1   
    60   26   70 1   
    61   26   71 1   
    62   27   30 1   
    63   27   38 1   
    64   28   31 1   
    65   29   72 1   
    66   34   73 1   
@<TRIPOS>SUBSTRUCTURE
     1 VIR         1 TEMP              0 ****  ****    0 ROOT
