@<TRIPOS>MOLECULE
VIR
   74    68     1     0     0
SMALL
bcc


@<TRIPOS>ATOM
      1 C1         -0.2960   -0.1670   -2.2580 c1        1 VIR     -0.275000
      2 C10        -0.0750    1.1520    2.4040 c1        1 VIR     -0.166000
      3 C12        -1.7720   -1.1040    3.3670 c1        1 VIR      0.062000
      4 C13         0.3040    2.1280    2.9950 c1        1 VIR     -0.138000
      5 C14        -4.8490    2.5730    2.5220 c2        1 VIR      0.159000
      6 C16        -6.4100    5.8750    0.1620 c3        1 VIR     -0.171000
      7 C17        -6.4910    4.7690   -0.8270 c2        1 VIR      0.113000
      8 C19        -6.7490    4.9080   -2.1050 c1        1 VIR     -0.316000
      9 C2          0.7630    0.3930   -2.1420 c1        1 VIR      0.192000
     10 C20        -7.0200    5.0710   -3.3700 c2        1 VIR      0.024000
     11 C21        -8.4070    5.0750   -3.9030 c3        1 VIR     -0.189000
     12 C22        -5.9320    5.2930   -4.3820 c3        1 VIR     -0.014000
     13 C23        -5.6860    4.1390   -5.1920 c1        1 VIR     -0.143000
     14 C24        -5.4690    3.1840   -5.8850 c1        1 VIR     -0.086000
     15 C26        -4.4670    1.0290   -6.3330 c2        1 VIR      0.282000
     16 C28        -6.6680    0.5770   -1.7820 c2        1 VIR     -0.224000
     17 C29        -5.3620    0.7200   -2.0030 c2        1 VIR     -0.178000
     18 C3          1.9650    1.0660   -2.0090 c2        1 VIR     -0.456000
     19 C30        -4.3600    0.7450   -0.9100 c3        1 VIR     -0.140000
     20 C31         1.3430    4.6100   -1.4480 c3        1 VIR     -0.280000
     21 C32        -2.9160    0.8290   -1.3880 c3        1 VIR      0.096000
     22 C33        -2.6520    1.9520   -2.3270 c2        1 VIR     -0.238000
     23 C34        -2.7120   -2.8330   -2.9780 c3        1 VIR     -0.073000
     24 C35        -2.0950    3.0980   -1.9440 c2        1 VIR     -0.169000
     25 C37        -1.4960   -0.8600   -2.3890 c2        1 VIR      0.540000
     26 C4          3.2090    0.6190   -2.1520 c1        1 VIR      0.388000
     27 C6         -1.4450   -2.0070    1.0740 c2        1 VIR      0.376000
     28 C8         -1.1930   -0.8450    2.0240 c2        1 VIR     -0.139000
     29 N25        -5.2350    2.1250   -6.6820 n         1 VIR     -0.250000
     30 N5         -1.2050   -3.2520    1.5620 n         1 VIR     -0.384000
     31 N9         -0.3890    0.0950    1.6250 n2        1 VIR     -0.018000
     32 O11        -2.6480   -0.3570    3.9210 oh        1 VIR     -0.114000
     33 O27        -3.9090    0.8870   -5.2330 o         1 VIR     -0.380000
     34 O36        -2.7130   -0.4580   -2.0940 os        1 VIR     -0.164000
     35 O38        -1.4750   -2.0800   -2.9210 os        1 VIR     -0.146000
     36 O7         -1.8670   -1.8160   -0.0910 o         1 VIR     -0.450000
     37 H12        -2.9510    0.4410    3.4260 ho        1 VIR      0.221000
     38 H131       -5.1320    2.7390    3.5830 h4        1 VIR      0.101500
     39 H132        0.6410    2.9880    3.5190 ha        1 VIR      0.247000
     40 H161       -7.3380    5.8870    0.7870 hc        1 VIR      0.098000
     41 H162       -5.3570    3.2070    1.7620 h4        1 VIR      0.101500
     42 H17        -5.5300    5.7250    0.8350 hc        1 VIR      0.098000
     43 H19        -6.3120    6.8560   -0.3610 hc        1 VIR      0.098000
     44 HC2         1.8250    4.1670   -0.5490 hc        1 VIR      0.070500
     45 H211       -9.1500    4.8000   -3.1160 hc        1 VIR      0.092667
     46 H212       -8.6600    6.0950   -4.2890 hc        1 VIR      0.092667
     47 H213       -8.4920    4.3480   -4.7480 hc        1 VIR      0.092667
     48 H22        -6.2310    6.1530   -5.0490 hc        1 VIR      0.115000
     49 H23        -4.9750    5.5870   -3.8620 hc        1 VIR      0.115000
     50 H241       -1.7810    2.9000   -4.9960 ha        1 VIR      0.000500
     51 H242       -2.1270    2.5340   -5.4490 ha        1 VIR      0.000500
     52 H28        -4.4010    0.2740   -7.1520 h5        1 VIR      0.141000
     53 H29        -4.9630    0.8220   -3.0290 ha        1 VIR      0.151000
     54 HC31        1.9950    4.4610   -2.3370 hc        1 VIR      0.070500
     55 HC32        1.8810    2.1550   -1.7320 ha        1 VIR      0.242000
     56 H30        -4.4660   -0.1780   -0.2750 hc        1 VIR      0.124500
     57 H311        0.3550    4.1270   -1.6220 hc        1 VIR      0.070500
     58 H312       -4.5290    1.6350   -0.2380 hc        1 VIR      0.124500
     59 H313        1.1940    5.7000   -1.2840 hc        1 VIR      0.070500
     60 H32        -2.2130    0.8200   -0.5080 h1        1 VIR      0.134000
     61 H33        -2.9840    1.7840   -3.3710 ha        1 VIR      0.182000
     62 H341       -3.1170   -2.9410   -1.9420 h1        1 VIR      0.128000
     63 H342       -3.4330   -2.3070   -3.6480 h1        1 VIR      0.128000
     64 H343       -2.3680   -3.8080   -3.4070 h1        1 VIR      0.128000
     65 H351       -1.9400    3.9250   -2.6510 ha        1 VIR      0.126500
     66 H352       -7.0960    0.4650   -0.7760 ha        1 VIR      0.121000
     67 H353       -1.7720    3.2970   -0.9120 ha        1 VIR      0.126500
     68 HC41       -0.9410   -3.3780    2.5110 hn        1 VIR      0.251000
     69 HC42       -1.3820   -4.0480    0.9980 hn        1 VIR      0.251000
     70 H25        -7.3990    0.5590   -2.6010 ha        1 VIR      0.121000
     71 O15        -4.0110    1.7250    2.2030 o         1 VIR     -0.354000
     72 H252       -5.6460    2.1640   -7.5910 hn        1 VIR      0.255000
     73 O18        -6.2550    3.5390   -0.2350 oh        1 VIR     -0.299000
     74 H18'       -6.3880    2.8450   -0.9010 ho        1 VIR      0.229000
@<TRIPOS>BOND
     1    1    9 1   
     2    1   25 1   
     3    2    4 1   
     4    2   31 1   
     5    3   28 1   
     6    3   32 1   
     7    4   39 1   
     8    5   38 1   
     9    5   41 1   
    10    5   71 1   
    11    6    7 1   
    12    6   40 1   
    13    6   42 1   
    14    6   43 1   
    15    7    8 1   
    16    7   73 1   
    17    8   10 1   
    18    9   18 1   
    19   10   11 1   
    20   10   12 1   
    21   11   45 1   
    22   11   46 1   
    23   11   47 1   
    24   12   13 1   
    25   12   48 1   
    26   12   49 1   
    27   13   14 1   
    28   14   29 1   
    29   15   29 1   
    30   15   33 1   
    31   15   52 1   
    32   16   17 1   
    33   16   66 1   
    34   16   70 1   
    35   17   19 1   
    36   17   53 1   
    37   18   26 1   
    38   18   55 1   
    39   19   21 1   
    40   19   56 1   
    41   19   58 1   
    42   20   44 1   
    43   20   54 1   
    44   20   57 1   
    45   20   59 1   
    46   21   22 1   
    47   21   34 1   
    48   21   60 1   
    49   22   24 1   
    50   22   61 1   
    51   23   35 1   
    52   23   62 1   
    53   23   63 1   
    54   23   64 1   
    55   24   65 1   
    56   24   67 1   
    57   25   34 1   
    58   25   35 1   
    59   27   28 1   
    60   27   30 1   
    61   27   36 1   
    62   28   31 1   
    63   29   72 1   
    64   30   68 1   
    65   30   69 1   
    66   32   37 1   
    67   50   51 1   
    68   73   74 1   
@<TRIPOS>SUBSTRUCTURE
     1 VIR         1 TEMP              0 ****  ****    0 ROOT
