@<TRIPOS>MOLECULE
VIR
   73    75     1     0     0
SMALL
bcc


@<TRIPOS>ATOM
      1 C1         -0.1170    0.1710   -3.2610 ce        1 VIR     -0.054600
      2 C10         4.4540    0.1970    0.5050 cc        1 VIR      0.481700
      3 C12         3.0820    1.4580   -0.7170 cc        1 VIR      0.229300
      4 C13         5.5090    0.0120    1.5240 c3        1 VIR     -0.216700
      5 C14         4.9590    0.0750    2.9350 c         1 VIR      0.581100
      6 C16         3.6030   -0.5310    3.1190 c3        1 VIR     -0.180400
      7 C17         3.1320   -0.5730    4.5750 c3        1 VIR      0.183300
      8 C19         1.6440   -0.4410    4.6250 c2        1 VIR     -0.220200
      9 C2         -0.2120    0.4510   -4.5900 c2        1 VIR     -0.138200
     10 C20         0.9870    0.7250    4.7570 ce        1 VIR     -0.064200
     11 C21         1.6870    2.0220    4.9430 c3        1 VIR     -0.065900
     12 C22        -0.4700    0.7910    4.7270 ce        1 VIR     -0.126000
     13 C23        -1.2310   -0.0160    3.9780 c2        1 VIR     -0.181200
     14 C24        -2.7270    0.0520    3.9800 c3        1 VIR      0.116200
     15 C26        -4.2510    0.8610    2.2100 c         1 VIR      0.658300
     16 C28        -4.7070    0.7050    0.8020 ce        1 VIR     -0.219200
     17 C29        -3.8730    0.5380   -0.2270 c2        1 VIR     -0.128200
     18 C3          1.1110    0.9210   -5.1140 c3        1 VIR     -0.072200
     19 C30        -4.3330    0.4030   -1.6400 c3        1 VIR     -0.058500
     20 C31        -4.1680    1.7180   -2.3760 c3        1 VIR     -0.081100
     21 C32        -3.5830   -0.7510   -2.3330 c3        1 VIR      0.156100
     22 C33        -4.4520   -1.4350   -3.4000 c3        1 VIR     -0.068700
     23 C34        -3.6110   -2.2570   -4.3560 c3        1 VIR     -0.092100
     24 C35        -5.4830   -2.3250   -2.7350 c3        1 VIR     -0.092100
     25 C37        -1.2180   -0.2650   -2.3850 c         1 VIR      0.668300
     26 C4          2.0110    0.9300   -3.8500 c3        1 VIR      0.058000
     27 C6          1.7920   -0.4790   -1.8260 c         1 VIR      0.588600
     28 C8          2.8460    0.1090   -0.9750 cd        1 VIR      0.180500
     29 N25        -3.3180   -0.0490    2.6730 n         1 VIR     -0.563900
     30 N5          1.1810    0.4570   -2.7220 n         1 VIR     -0.366000
     31 N9          3.7310   -0.6710   -0.1990 nd        1 VIR     -0.609000
     32 O11         4.1010    1.5410    0.2160 os        1 VIR     -0.377800
     33 O18         3.5390   -1.8420    5.0810 oh        1 VIR     -0.599800
     34 O27        -4.7410    1.7330    2.9570 o         1 VIR     -0.608100
     35 O36        -2.4260   -0.2400   -3.0300 os        1 VIR     -0.434900
     36 O38        -1.1690   -0.6040   -1.2020 o         1 VIR     -0.528000
     37 O7          1.4180   -1.6520   -1.7280 o         1 VIR     -0.495100
     38 H12         2.6620    2.4020   -1.0550 h4        1 VIR      0.080100
     39 H131        5.9960   -0.9930    1.3850 hc        1 VIR      0.106700
     40 H132        6.2940    0.8060    1.3930 hc        1 VIR      0.106700
     41 H161        2.8690    0.0710    2.5170 hc        1 VIR      0.095700
     42 H162        3.6140   -1.5770    2.7070 hc        1 VIR      0.095700
     43 H17         3.6350    0.2420    5.1710 h1        1 VIR      0.063700
     44 H19         1.0980   -1.3930    4.5220 ha        1 VIR      0.140000
     45 HC2        -1.1110    0.3820   -5.2030 ha        1 VIR      0.172000
     46 H211        0.9830    2.8840    4.8460 hc        1 VIR      0.047700
     47 H212        2.1560    2.0640    5.9580 hc        1 VIR      0.047700
     48 H213        2.4970    2.1430    4.1800 hc        1 VIR      0.047700
     49 H22        -0.9200    1.5810    5.3540 ha        1 VIR      0.134000
     50 H23        -0.7810   -0.7890    3.3330 ha        1 VIR      0.131000
     51 H241       -3.1060   -0.8150    4.6030 h1        1 VIR      0.067200
     52 H242       -3.0830    1.0050    4.4710 h1        1 VIR      0.067200
     53 H28        -5.8000    0.7790    0.6860 ha        1 VIR      0.153000
     54 H29        -2.7770    0.4950   -0.0930 ha        1 VIR      0.151000
     55 HC31        1.5090    0.2310   -5.8970 hc        1 VIR      0.071700
     56 HC32        1.0310    1.9470   -5.5510 hc        1 VIR      0.071700
     57 H30        -5.4310    0.1380   -1.6460 hc        1 VIR      0.065700
     58 H311       -4.8170    2.5000   -1.9150 hc        1 VIR      0.042700
     59 H312       -3.1070    2.0610   -2.3340 hc        1 VIR      0.042700
     60 H313       -4.4540    1.5910   -3.4480 hc        1 VIR      0.042700
     61 H32        -3.2520   -1.5100   -1.5690 h1        1 VIR      0.080700
     62 H33        -4.9790   -0.6320   -3.9870 hc        1 VIR      0.056700
     63 H341       -4.2680   -2.7850   -5.0880 hc        1 VIR      0.039867
     64 H342       -2.9060   -1.5980   -4.9190 hc        1 VIR      0.039867
     65 H343       -3.0140   -3.0170   -3.7970 hc        1 VIR      0.039867
     66 H351       -4.9840   -3.1250   -2.1360 hc        1 VIR      0.039867
     67 H352       -6.1490   -1.7400   -2.0570 hc        1 VIR      0.039867
     68 H353       -6.1180   -2.8130   -3.5140 hc        1 VIR      0.039867
     69 HC41        2.9150    0.2830   -3.9990 h1        1 VIR      0.058700
     70 HC42        2.3470    1.9730   -3.6070 h1        1 VIR      0.058700
     71 H25        -2.8720   -0.6470    2.0170 hn        1 VIR      0.314500
     72 H18'        3.2690   -1.8710    6.0060 ho        1 VIR      0.406000
     73 O15         5.6230    0.5920    3.8350 o         1 VIR     -0.517100
@<TRIPOS>BOND
     1    1    9 2   
     2    1   25 1   
     3    1   30 1   
     4    2    4 1   
     5    2   31 2   
     6    2   32 1   
     7    3   28 2   
     8    3   32 1   
     9    3   38 1   
    10    4    5 1   
    11    4   39 1   
    12    4   40 1   
    13    5    6 1   
    14    5   73 2   
    15    6    7 1   
    16    6   41 1   
    17    6   42 1   
    18    7    8 1   
    19    7   33 1   
    20    7   43 1   
    21    8   10 2   
    22    8   44 1   
    23    9   18 1   
    24    9   45 1   
    25   10   11 1   
    26   10   12 1   
    27   11   46 1   
    28   11   47 1   
    29   11   48 1   
    30   12   13 2   
    31   12   49 1   
    32   13   14 1   
    33   13   50 1   
    34   14   29 1   
    35   14   51 1   
    36   14   52 1   
    37   15   16 1   
    38   15   29 1   
    39   15   34 2   
    40   16   17 2   
    41   16   53 1   
    42   17   19 1   
    43   17   54 1   
    44   18   26 1   
    45   18   55 1   
    46   18   56 1   
    47   19   20 1   
    48   19   21 1   
    49   19   57 1   
    50   20   58 1   
    51   20   59 1   
    52   20   60 1   
    53   21   22 1   
    54   21   35 1   
    55   21   61 1   
    56   22   23 1   
    57   22   24 1   
    58   22   62 1   
    59   23   63 1   
    60   23   64 1   
    61   23   65 1   
    62   24   66 1   
    63   24   67 1   
    64   24   68 1   
    65   25   35 1   
    66   25   36 2   
    67   26   30 1   
    68   26   69 1   
    69   26   70 1   
    70   27   28 1   
    71   27   30 1   
    72   27   37 2   
    73   28   31 1   
    74   29   71 1   
    75   33   72 1   
@<TRIPOS>SUBSTRUCTURE
     1 VIR         1 TEMP              0 ****  ****    0 ROOT
