@<TRIPOS>MOLECULE
VIT
   81    82     1     0     0
SMALL
bcc


@<TRIPOS>ATOM
      1 C1          2.0940    0.9250    6.5110 c3        1 VIT     -0.089100
      2 C2         -0.5910   -0.4380   -7.4800 ca        1 VIT     -0.116300
      3 C3         -0.9490   -0.3750   -6.1240 ca        1 VIT     -0.113300
      4 C4          0.0110    0.0180   -5.1790 ca        1 VIT      0.112100
      5 C5          1.3250    0.3700   -5.5570 ca        1 VIT     -0.077300
      6 C6          1.6690    0.3480   -6.9140 ca        1 VIT     -0.069300
      7 C7          0.7060   -0.0540   -7.8590 ca        1 VIT      0.087100
      8 C8         -1.5630   -0.8900   -8.5040 c3        1 VIT     -0.056800
      9 O1         -0.2600    0.1390   -3.8270 os        1 VIT     -0.326900
     10 C9         -1.4240   -0.5670   -3.3430 c3        1 VIT      0.155800
     11 C10        -2.3260   -0.7350   -5.6920 c3        1 VIT     -0.028100
     12 C11        -2.6150   -0.3180   -4.2670 c3        1 VIT     -0.102400
     13 C13         3.0340    0.7290   -7.3460 c3        1 VIT     -0.047800
     14 O2          1.1230   -0.0930   -9.1780 oh        1 VIT     -0.506100
     15 C14        -1.1100   -2.0500   -3.2240 c3        1 VIT     -0.115100
     16 C15        -1.7120    0.0590   -1.9710 c3        1 VIT     -0.070400
     17 C17        -0.8270    0.6780    0.2760 c3        1 VIT     -0.076400
     18 C18         0.2170    0.4090    1.3510 c3        1 VIT     -0.064700
     19 C19         1.5620    0.9820    0.9540 c3        1 VIT     -0.090100
     20 C20        -0.2510    0.9900    2.6790 c3        1 VIT     -0.076400
     21 C21         0.5030    0.4110    3.8590 c3        1 VIT     -0.079400
     22 C22        -0.0140    0.9800    5.1630 c3        1 VIT     -0.076400
     23 C23         0.6870    0.3800    6.3760 c3        1 VIT     -0.064700
     24 C24        -0.1280    0.6590    7.6320 c3        1 VIT     -0.076400
     25 C25         0.3040   -0.1980    8.8030 c3        1 VIT     -0.079400
     26 C26        -0.5790    0.0470   10.0090 c3        1 VIT     -0.076400
     27 C27        -0.1470   -0.7680   11.2190 c3        1 VIT     -0.067700
     28 C28        -0.7620   -0.1950   12.4800 c3        1 VIT     -0.089600
     29 C29        -0.5280   -2.2260   11.0700 c3        1 VIT     -0.089600
     30 HC11        2.0740    2.0300    6.6670 hc        1 VIT      0.033700
     31 HC12        2.6130    0.4550    7.3800 hc        1 VIT      0.033700
     32 HC13        2.6870    0.7090    5.5900 hc        1 VIT      0.033700
     33 HC81       -2.0990   -0.0110   -8.9440 hc        1 VIT      0.045367
     34 HC82       -1.0450   -1.4420   -9.3290 hc        1 VIT      0.045367
     35 HC83       -2.3240   -1.5820   -8.0660 hc        1 VIT      0.045367
     36 H101       -2.4620   -1.8470   -5.7980 hc        1 VIT      0.052700
     37 H102       -3.0740   -0.2440   -6.3720 hc        1 VIT      0.052700
     38 H111       -3.5020   -0.8820   -3.8800 hc        1 VIT      0.055200
     39 H112       -2.8640    0.7760   -4.2410 hc        1 VIT      0.055200
     40 H121        2.4900    1.8820   -4.5910 hc        1 VIT      0.048033
     41 H122        1.9720    0.5230   -3.5070 hc        1 VIT      0.048033
     42 H123        3.2980    0.2640   -4.7230 hc        1 VIT      0.048033
     43 H131        3.3540    1.6740   -6.8400 hc        1 VIT      0.049033
     44 H132        3.7600   -0.0780   -7.0710 hc        1 VIT      0.049033
     45 H133        3.0790    0.8810   -8.4520 hc        1 VIT      0.049033
     46 HO21        0.3470    0.0640   -9.7350 ho        1 VIT      0.415000
     47 H141       -0.9750   -2.5000   -4.2370 hc        1 VIT      0.047700
     48 H142       -0.1650   -2.1960   -2.6480 hc        1 VIT      0.047700
     49 H143       -1.9440   -2.5720   -2.6990 hc        1 VIT      0.047700
     50 H151       -2.6540   -0.4020   -1.5760 hc        1 VIT      0.049700
     51 H152       -1.8950    1.1560   -2.1140 hc        1 VIT      0.049700
     52 H171       -1.8450    0.4270    0.6780 hc        1 VIT      0.039200
     53 H172       -0.8290    1.7710    0.0250 hc        1 VIT      0.039200
     54 H18         0.3250   -0.7070    1.4700 hc        1 VIT      0.046700
     55 H191        1.4900    2.0860    0.8010 hc        1 VIT      0.034033
     56 H192        2.3210    0.7850    1.7490 hc        1 VIT      0.034033
     57 H193        1.9200    0.5160    0.0040 hc        1 VIT      0.034033
     58 H201       -1.3460    0.7800    2.8120 hc        1 VIT      0.039200
     59 H202       -0.1270    2.1040    2.6630 hc        1 VIT      0.039200
     60 H211        1.5970    0.6340    3.7550 hc        1 VIT      0.040700
     61 H212        0.3920   -0.7060    3.8650 hc        1 VIT      0.040700
     62 H221       -1.1160    0.7780    5.2350 hc        1 VIT      0.039700
     63 H222        0.1200    2.0940    5.1690 hc        1 VIT      0.039700
     64 H23         0.7480   -0.7360    6.2340 hc        1 VIT      0.047700
     65 H241       -1.2130    0.4630    7.4210 hc        1 VIT      0.039200
     66 H242       -0.0340    1.7440    7.9030 hc        1 VIT      0.039200
     67 H251        1.3700    0.0280    9.0690 hc        1 VIT      0.040700
     68 H252        0.2570   -1.2810    8.5130 hc        1 VIT      0.040700
     69 H261       -1.6430   -0.1990    9.7550 hc        1 VIT      0.039200
     70 H262       -0.5450    1.1390   10.2700 hc        1 VIT      0.039200
     71 H27         0.9750   -0.7020   11.3110 hc        1 VIT      0.045700
     72 H281       -0.4570   -0.7980   13.3690 hc        1 VIT      0.032700
     73 H282       -0.4270    0.8590   12.6340 hc        1 VIT      0.032700
     74 H283       -1.8760   -0.2060   12.4110 hc        1 VIT      0.032700
     75 H291       -1.6360   -2.3340   10.9730 hc        1 VIT      0.032700
     76 H292       -0.0500   -2.6660   10.1630 hc        1 VIT      0.032700
     77 H293       -0.1940   -2.8060   11.9630 hc        1 VIT      0.032700
     78 C16        -0.5840   -0.1340   -0.9800 c3        1 VIT     -0.078400
     79 C12         2.3210    0.7770   -4.5390 c3        1 VIT     -0.045800
     80 H161        0.3820    0.1760   -1.4600 hc        1 VIT      0.049200
     81 H162       -0.4940   -1.2190   -0.7130 hc        1 VIT      0.049200
@<TRIPOS>BOND
     1    1   23 1   
     2    1   30 1   
     3    1   31 1   
     4    1   32 1   
     5    2    3 ar  
     6    2    7 ar  
     7    2    8 1   
     8    3    4 ar  
     9    3   11 1   
    10    4    5 ar  
    11    4    9 1   
    12    5    6 ar  
    13    5   79 1   
    14    6    7 ar  
    15    6   13 1   
    16    7   14 1   
    17    8   33 1   
    18    8   34 1   
    19    8   35 1   
    20    9   10 1   
    21   10   12 1   
    22   10   15 1   
    23   10   16 1   
    24   11   12 1   
    25   11   36 1   
    26   11   37 1   
    27   12   38 1   
    28   12   39 1   
    29   13   43 1   
    30   13   44 1   
    31   13   45 1   
    32   14   46 1   
    33   15   47 1   
    34   15   48 1   
    35   15   49 1   
    36   16   50 1   
    37   16   51 1   
    38   16   78 1   
    39   17   18 1   
    40   17   52 1   
    41   17   53 1   
    42   17   78 1   
    43   18   19 1   
    44   18   20 1   
    45   18   54 1   
    46   19   55 1   
    47   19   56 1   
    48   19   57 1   
    49   20   21 1   
    50   20   58 1   
    51   20   59 1   
    52   21   22 1   
    53   21   60 1   
    54   21   61 1   
    55   22   23 1   
    56   22   62 1   
    57   22   63 1   
    58   23   24 1   
    59   23   64 1   
    60   24   25 1   
    61   24   65 1   
    62   24   66 1   
    63   25   26 1   
    64   25   67 1   
    65   25   68 1   
    66   26   27 1   
    67   26   69 1   
    68   26   70 1   
    69   27   28 1   
    70   27   29 1   
    71   27   71 1   
    72   28   72 1   
    73   28   73 1   
    74   28   74 1   
    75   29   75 1   
    76   29   76 1   
    77   29   77 1   
    78   40   79 1   
    79   41   79 1   
    80   42   79 1   
    81   78   80 1   
    82   78   81 1   
@<TRIPOS>SUBSTRUCTURE
     1 VIT         1 TEMP              0 ****  ****    0 ROOT
