@<TRIPOS>MOLECULE
VIT
   81    79     1     0     0
SMALL
bcc


@<TRIPOS>ATOM
      1 C1         -0.0070    1.2890   -0.0890 c1        1 VIT     -0.057000
      2 C2         -0.9730   -5.9400  -11.8900 ca        1 VIT     -0.129000
      3 C3         -0.0950   -5.6300  -10.8560 ca        1 VIT     -0.131000
      4 C4         -0.4560   -4.6560   -9.9120 ca        1 VIT      0.049000
      5 C5         -1.6990   -3.9920   -9.9770 ca        1 VIT     -0.048000
      6 C6         -2.5960   -4.3280  -11.0040 ca        1 VIT     -0.122000
      7 C7         -2.2130   -5.2920  -11.9570 ca        1 VIT      0.056000
      8 C8          1.0480   -8.1980  -13.9320 c3        1 VIT     -0.271000
      9 O1          0.3520   -4.3490   -8.8340 os        1 VIT     -0.230000
     10 C9          1.7840   -4.5180   -9.0370 c3        1 VIT      0.015000
     11 C10         1.2290   -6.2960  -10.7540 c3        1 VIT     -0.190000
     12 C11         2.2020   -5.6310   -9.9090 c1        1 VIT     -0.028000
     13 C13        -3.9290   -3.6880  -11.1060 c3        1 VIT     -0.184000
     14 O2         -3.0180   -5.6810  -13.0080 oh        1 VIT     -0.257000
     15 C14         2.3440   -3.2270   -9.6420 c3        1 VIT     -0.209000
     16 C15         2.3410   -4.7710   -7.6240 c3        1 VIT     -0.125000
     17 C17         2.4850   -3.9790   -5.2670 c3        1 VIT     -0.154000
     18 C18         2.3030   -2.8190   -4.2990 c3        1 VIT     -0.107000
     19 C19         0.8420   -2.5920   -3.9750 c3        1 VIT     -0.211500
     20 C20         3.0860   -3.0740   -3.0260 c3        1 VIT     -0.211500
     21 C21         2.0190    0.6490   -2.4160 c3        1 VIT     -0.220000
     22 C22         1.9580    0.0190   -1.0490 c3        1 VIT     -0.179000
     23 C23         1.4140    0.9730    0.0080 c3        1 VIT     -0.195000
     24 C24         1.7890    0.4730    1.4000 c3        1 VIT     -0.123000
     25 C25         1.3630    1.4460    2.4790 c3        1 VIT     -0.133000
     26 C26         1.6920    0.9510    3.8360 c2        1 VIT     -0.171000
     27 C27         1.5160    1.6800    4.9500 c2        1 VIT     -0.118000
     28 C28         1.8510    1.1490    6.2930 c3        1 VIT     -0.179500
     29 C29         0.9800    3.0620    4.9130 c3        1 VIT     -0.179500
     30 HC11       -0.7920   -0.7830    0.3660 ha        1 VIT      0.013500
     31 HC12       -0.9980   -0.4060    0.8970 ha        1 VIT      0.013500
     32 HC13       -0.4660    1.1100   -1.0760 ha        1 VIT      0.032000
     33 HC81        0.0110   -8.3150  -14.3160 hc        1 VIT      0.068500
     34 HC82       -0.7050   -6.6890  -12.6520 ha        1 VIT      0.153000
     35 HC83        1.3860   -7.1510  -14.0910 hc        1 VIT      0.068500
     36 H101        1.0690   -8.4320  -12.8440 hc        1 VIT      0.068500
     37 H102        1.7260   -8.8930  -14.4740 hc        1 VIT      0.068500
     38 H111        1.6810   -6.4360  -11.7810 hc        1 VIT      0.155500
     39 H112        1.1110   -7.3410  -10.3300 hc        1 VIT      0.155500
     40 H121       -1.1710   -2.7550   -8.2940 hc        1 VIT      0.088667
     41 H122       -2.8900   -3.3250   -8.3240 hc        1 VIT      0.088667
     42 H123       -2.3470   -2.0130   -9.4580 hc        1 VIT      0.088667
     43 H131       -3.9670   -3.0160  -12.0020 hc        1 VIT      0.086333
     44 H132       -4.1700   -3.0750  -10.2040 hc        1 VIT      0.086333
     45 H133       -4.7280   -4.4650  -11.2100 hc        1 VIT      0.086333
     46 HO21       -3.7920   -5.1010  -13.0340 ho        1 VIT      0.218000
     47 H141        1.9200   -2.3540   -9.0910 hc        1 VIT      0.093667
     48 H142        2.0540   -3.1430  -10.7160 hc        1 VIT      0.093667
     49 H143        3.4560   -3.2220   -9.5560 hc        1 VIT      0.093667
     50 H151        3.4420   -4.9580   -7.7200 hc        1 VIT      0.098500
     51 H152        1.8610   -5.6990   -7.2180 hc        1 VIT      0.098500
     52 H171        3.5620   -4.2970   -5.2620 hc        1 VIT      0.080500
     53 H172        1.8790   -4.8550   -4.9150 hc        1 VIT      0.080500
     54 H18         2.7090   -1.8840   -4.7820 hc        1 VIT      0.083000
     55 H191        0.4040   -3.4930   -3.4820 hc        1 VIT      0.073667
     56 H192        0.2610   -2.3800   -4.9040 hc        1 VIT      0.073667
     57 H193        0.7330   -1.7210   -3.2810 hc        1 VIT      0.073667
     58 H201        2.3920   -0.0940   -3.1640 hc        1 VIT      0.075667
     59 H202        2.7410   -4.0160   -2.5370 hc        1 VIT      0.073667
     60 H211        4.1750   -3.1690   -3.2490 hc        1 VIT      0.073667
     61 H212        2.9410   -2.2280   -2.3090 hc        1 VIT      0.073667
     62 H221        1.0080    0.9950   -2.7430 hc        1 VIT      0.075667
     63 H222        2.7080    1.5280   -2.4180 hc        1 VIT      0.075667
     64 H23         2.9870   -0.3200   -0.7550 hc        1 VIT      0.084000
     65 H241        1.3080   -0.8960   -1.0830 hc        1 VIT      0.084000
     66 H242        1.8990    1.9940   -0.1360 hc        1 VIT      0.145000
     67 H251        1.3010   -0.5230    1.5720 hc        1 VIT      0.079500
     68 H252        2.8990    0.3170    1.4460 hc        1 VIT      0.079500
     69 H261        1.8620    2.4390    2.3090 hc        1 VIT      0.101000
     70 H262        0.2540    1.6250    2.3950 hc        1 VIT      0.101000
     71 H27         2.0940   -0.0730    3.8970 ha        1 VIT      0.118000
     72 H281        2.5930    1.8170    6.7970 hc        1 VIT      0.079167
     73 H282        0.9310    1.1080    6.9290 hc        1 VIT      0.079167
     74 H283        2.2840    0.1200    6.2360 hc        1 VIT      0.079167
     75 H291        0.7580    3.4390    5.9410 hc        1 VIT      0.079167
     76 H292        0.0390    3.1010    4.3090 hc        1 VIT      0.079167
     77 H293        1.7230    3.7500    4.4370 hc        1 VIT      0.079167
     78 C16         2.0830   -3.6160   -6.6810 c3        1 VIT     -0.159000
     79 C12        -2.0430   -2.9680   -8.9620 c3        1 VIT     -0.176000
     80 H161        0.9940   -3.3450   -6.7150 hc        1 VIT      0.088000
     81 H162        2.6630   -2.7160   -7.0170 hc        1 VIT      0.088000
@<TRIPOS>BOND
     1    1   23 1   
     2    1   32 1   
     3    2    3 1   
     4    2    7 1   
     5    2   34 1   
     6    3    4 1   
     7    3   11 1   
     8    4    5 1   
     9    4    9 1   
    10    5    6 1   
    11    5   79 1   
    12    6    7 1   
    13    6   13 1   
    14    7   14 1   
    15    8   33 1   
    16    8   35 1   
    17    8   36 1   
    18    8   37 1   
    19    9   10 1   
    20   10   12 1   
    21   10   15 1   
    22   10   16 1   
    23   11   12 1   
    24   11   38 1   
    25   11   39 1   
    26   13   43 1   
    27   13   44 1   
    28   13   45 1   
    29   14   46 1   
    30   15   47 1   
    31   15   48 1   
    32   15   49 1   
    33   16   50 1   
    34   16   51 1   
    35   16   78 1   
    36   17   18 1   
    37   17   52 1   
    38   17   53 1   
    39   17   78 1   
    40   18   19 1   
    41   18   20 1   
    42   18   54 1   
    43   19   55 1   
    44   19   56 1   
    45   19   57 1   
    46   20   59 1   
    47   20   60 1   
    48   20   61 1   
    49   21   22 1   
    50   21   58 1   
    51   21   62 1   
    52   21   63 1   
    53   22   23 1   
    54   22   64 1   
    55   22   65 1   
    56   23   24 1   
    57   23   66 1   
    58   24   25 1   
    59   24   67 1   
    60   24   68 1   
    61   25   26 1   
    62   25   69 1   
    63   25   70 1   
    64   26   27 1   
    65   26   71 1   
    66   27   28 1   
    67   27   29 1   
    68   28   72 1   
    69   28   73 1   
    70   28   74 1   
    71   29   75 1   
    72   29   76 1   
    73   29   77 1   
    74   30   31 1   
    75   40   79 1   
    76   41   79 1   
    77   42   79 1   
    78   78   80 1   
    79   78   81 1   
@<TRIPOS>SUBSTRUCTURE
     1 VIT         1 TEMP              0 ****  ****    0 ROOT
