@<TRIPOS>MOLECULE
VIV
   81    82     1     0     0
SMALL
bcc


@<TRIPOS>ATOM
      1 O1         -3.8380   -0.2970   -0.1370 os        1 VIV     -0.327900
      2 O2         -9.2260    0.9300    0.1350 oh        1 VIV     -0.507100
      3 C1          6.5070    2.0760   -0.7280 c3        1 VIV     -0.089100
      4 C2         -7.4920   -0.6570    0.4050 ca        1 VIV     -0.068300
      5 C3         -6.1350   -1.0040    0.3350 ca        1 VIV     -0.117300
      6 C4         -5.1910   -0.0290   -0.0200 ca        1 VIV      0.109100
      7 C5         -5.5710    1.2930   -0.3340 ca        1 VIV     -0.069300
      8 C6         -6.9300    1.6310   -0.3030 ca        1 VIV     -0.121300
      9 C7         -7.8720    0.6580    0.0850 ca        1 VIV      0.089100
     10 C8         -8.5070   -1.6630    0.7930 c3        1 VIV     -0.046800
     11 C9         -3.3590   -1.4810    0.5380 c3        1 VIV      0.155800
     12 C10        -5.7080   -2.3910    0.6580 c3        1 VIV     -0.028100
     13 C11        -4.2790   -2.6670    0.2480 c3        1 VIV     -0.101400
     14 C12        -4.5420    2.2960   -0.6990 c3        1 VIV     -0.046800
     15 C13        -7.3880    2.9930   -0.6660 c3        1 VIV     -0.057800
     16 C14        -3.2530   -1.2100    2.0310 c3        1 VIV     -0.115100
     17 C15        -1.9820   -1.7490   -0.0840 c3        1 VIV     -0.070400
     18 C16        -0.9930   -0.6280    0.1510 c3        1 VIV     -0.078400
     19 C17         0.2710   -0.8470   -0.6550 c3        1 VIV     -0.076400
     20 C18         1.3440    0.1880   -0.3420 c3        1 VIV     -0.064700
     21 C19         0.9530    1.5510   -0.8730 c3        1 VIV     -0.090100
     22 C20         2.6770   -0.2620   -0.9290 c3        1 VIV     -0.077400
     23 C21         3.8520    0.4690   -0.3130 c3        1 VIV     -0.079400
     24 C22         5.1610   -0.0270   -0.8910 c3        1 VIV     -0.076400
     25 C23         6.3700    0.6450   -0.2520 c3        1 VIV     -0.064700
     26 C24         7.6280   -0.1550   -0.5640 c3        1 VIV     -0.076400
     27 C25         8.7890    0.2240    0.3320 c3        1 VIV     -0.079400
     28 C26        10.0000   -0.6380    0.0430 c3        1 VIV     -0.076400
     29 C27        11.1830   -0.2930    0.9380 c3        1 VIV     -0.067700
     30 C28        12.1880   -1.4270    0.9310 c3        1 VIV     -0.089600
     31 C29        11.8480    0.9960    0.5040 c3        1 VIV     -0.089600
     32 HO21       -9.3320    1.8820    0.2770 ho        1 VIV      0.416000
     33 HC12        5.5880    2.6600   -0.4800 hc        1 VIV      0.033700
     34 HC13        7.3780    2.5700   -0.2350 hc        1 VIV      0.033700
     35 HC81       -8.1780   -2.2190    1.7070 hc        1 VIV      0.048033
     36 HC82       -9.4930   -1.1800    1.0050 hc        1 VIV      0.048033
     37 HC83       -8.6490   -2.4030   -0.0350 hc        1 VIV      0.048033
     38 H101       -6.3870   -3.1230    0.1400 hc        1 VIV      0.054700
     39 H102       -5.8310   -2.5600    1.7640 hc        1 VIV      0.054700
     40 H111       -4.2420   -2.8860   -0.8520 hc        1 VIV      0.055200
     41 H112       -3.8950   -3.5680    0.7920 hc        1 VIV      0.055200
     42 H121       -4.6980    3.2440   -0.1250 hc        1 VIV      0.047700
     43 H122       -3.5120    1.9170   -0.4780 hc        1 VIV      0.047700
     44 H123       -4.6010    2.5280   -1.7920 hc        1 VIV      0.047700
     45 H131       -7.5810    3.5960    0.2580 hc        1 VIV      0.046367
     46 H132       -6.6270    3.5320   -1.2820 hc        1 VIV      0.046367
     47 H133       -8.3340    2.9460   -1.2640 hc        1 VIV      0.046367
     48 H141       -2.6840   -0.2670    2.2090 hc        1 VIV      0.047700
     49 H142       -4.2700   -1.0940    2.4770 hc        1 VIV      0.047700
     50 H143       -2.7270   -2.0560    2.5320 hc        1 VIV      0.047700
     51 H151       -2.1150   -1.8980   -1.1880 hc        1 VIV      0.049700
     52 H152       -1.5900   -2.7060    0.3500 hc        1 VIV      0.049700
     53 H161       -0.7360   -0.5710    1.2420 hc        1 VIV      0.049200
     54 H162       -1.4700    0.3470   -0.1330 hc        1 VIV      0.049200
     55 H171        0.0300   -0.8140   -1.7500 hc        1 VIV      0.039200
     56 H172        0.6700   -1.8730   -0.4330 hc        1 VIV      0.039200
     57 H18         1.4540    0.2570    0.7770 hc        1 VIV      0.046700
     58 H191        0.0010    1.8950   -0.4010 hc        1 VIV      0.034033
     59 H192        1.7470    2.3020   -0.6460 hc        1 VIV      0.034033
     60 H193        0.8060    1.5150   -1.9800 hc        1 VIV      0.034033
     61 H201        2.6700   -0.0980   -2.0380 hc        1 VIV      0.039700
     62 H202        2.8060   -1.3640   -0.7570 hc        1 VIV      0.039700
     63 H211        3.8500    0.3160    0.7990 hc        1 VIV      0.040200
     64 H212        3.7510    1.5710   -0.4960 hc        1 VIV      0.040200
     65 H221        5.1770    0.1530   -1.9980 hc        1 VIV      0.039700
     66 H222        5.2280   -1.1370   -0.7350 hc        1 VIV      0.039700
     67 H23         6.2220    0.6520    0.8650 hc        1 VIV      0.047700
     68 H241        7.9130    0.0020   -1.6370 hc        1 VIV      0.039700
     69 H242        7.4140   -1.2490   -0.4340 hc        1 VIV      0.039700
     70 H251        8.4900    0.1030    1.4070 hc        1 VIV      0.040200
     71 H252        9.0500    1.3040    0.1810 hc        1 VIV      0.040200
     72 H261       10.2990   -0.5200   -1.0320 hc        1 VIV      0.039700
     73 H262        9.7270   -1.7160    0.1940 hc        1 VIV      0.039700
     74 H27        10.8050   -0.1620    1.9910 hc        1 VIV      0.045700
     75 H281       13.0640   -1.1720    1.5760 hc        1 VIV      0.033033
     76 H282       11.7230   -2.3650    1.3190 hc        1 VIV      0.033033
     77 H283       12.5560   -1.6170   -0.1060 hc        1 VIV      0.033033
     78 H291       11.1230    1.8430    0.5380 hc        1 VIV      0.033033
     79 H292       12.7040    1.2350    1.1800 hc        1 VIV      0.033033
     80 H293       12.2380    0.9050   -0.5390 hc        1 VIV      0.033033
     81 HC11        6.6590    2.1100   -1.8340 hc        1 VIV      0.033700
@<TRIPOS>BOND
     1    1    6 1   
     2    1   11 1   
     3    2    9 1   
     4    2   32 1   
     5    3   25 1   
     6    3   33 1   
     7    3   34 1   
     8    3   81 1   
     9    4    5 ar  
    10    4    9 ar  
    11    4   10 1   
    12    5    6 ar  
    13    5   12 1   
    14    6    7 ar  
    15    7    8 ar  
    16    7   14 1   
    17    8    9 ar  
    18    8   15 1   
    19   10   35 1   
    20   10   36 1   
    21   10   37 1   
    22   11   13 1   
    23   11   16 1   
    24   11   17 1   
    25   12   13 1   
    26   12   38 1   
    27   12   39 1   
    28   13   40 1   
    29   13   41 1   
    30   14   42 1   
    31   14   43 1   
    32   14   44 1   
    33   15   45 1   
    34   15   46 1   
    35   15   47 1   
    36   16   48 1   
    37   16   49 1   
    38   16   50 1   
    39   17   18 1   
    40   17   51 1   
    41   17   52 1   
    42   18   19 1   
    43   18   53 1   
    44   18   54 1   
    45   19   20 1   
    46   19   55 1   
    47   19   56 1   
    48   20   21 1   
    49   20   22 1   
    50   20   57 1   
    51   21   58 1   
    52   21   59 1   
    53   21   60 1   
    54   22   23 1   
    55   22   61 1   
    56   22   62 1   
    57   23   24 1   
    58   23   63 1   
    59   23   64 1   
    60   24   25 1   
    61   24   65 1   
    62   24   66 1   
    63   25   26 1   
    64   25   67 1   
    65   26   27 1   
    66   26   68 1   
    67   26   69 1   
    68   27   28 1   
    69   27   70 1   
    70   27   71 1   
    71   28   29 1   
    72   28   72 1   
    73   28   73 1   
    74   29   30 1   
    75   29   31 1   
    76   29   74 1   
    77   30   75 1   
    78   30   76 1   
    79   30   77 1   
    80   31   78 1   
    81   31   79 1   
    82   31   80 1   
@<TRIPOS>SUBSTRUCTURE
     1 VIV         1 TEMP              0 ****  ****    0 ROOT
