@<TRIPOS>MOLECULE
VIV
   81    82     1     0     0
SMALL
bcc


@<TRIPOS>ATOM
      1 O1          0.1380    0.5510   -0.0980 os        1 VIV     -0.327900
      2 O2          5.4170   -1.0620   -0.4890 oh        1 VIV     -0.507100
      3 C1         -8.4440    4.0470    5.1090 c3        1 VIV     -0.089100
      4 C2          3.4340   -0.3330   -1.5570 ca        1 VIV     -0.068300
      5 C3          2.0920    0.0690   -1.4940 ca        1 VIV     -0.117300
      6 C4          1.4650    0.1870   -0.2440 ca        1 VIV      0.109100
      7 C5          2.1430   -0.1110    0.9580 ca        1 VIV     -0.069300
      8 C6          3.4710   -0.5500    0.8930 ca        1 VIV     -0.121300
      9 C7          4.1070   -0.6360   -0.3600 ca        1 VIV      0.089100
     10 C8          4.1250   -0.4490   -2.8620 c3        1 VIV     -0.046800
     11 C9         -0.4660    1.2320   -1.2190 c3        1 VIV      0.155800
     12 C10         1.3550    0.3850   -2.7450 c3        1 VIV     -0.028100
     13 C11        -0.1360    0.5060   -2.5230 c3        1 VIV     -0.101400
     14 C12         1.4460    0.0320    2.2580 c3        1 VIV     -0.046800
     15 C13         4.2160   -0.9180    2.1220 c3        1 VIV     -0.057800
     16 C14         0.0060    2.6780   -1.2520 c3        1 VIV     -0.115100
     17 C15        -1.9760    1.1390   -0.9600 c3        1 VIV     -0.070400
     18 C16        -2.4060    1.8330    0.3140 c3        1 VIV     -0.078400
     19 C17        -3.8570    1.5330    0.6270 c3        1 VIV     -0.076400
     20 C18        -4.3650    2.3190    1.8290 c3        1 VIV     -0.064700
     21 C19        -3.7370    1.8130    3.1110 c3        1 VIV     -0.090100
     22 C20        -5.8850    2.2300    1.8960 c3        1 VIV     -0.077400
     23 C21        -6.4860    3.3020    2.7810 c3        1 VIV     -0.079400
     24 C22        -7.9980    3.2080    2.7940 c3        1 VIV     -0.076400
     25 C23        -8.6400    4.3080    3.6300 c3        1 VIV     -0.064700
     26 C24       -10.1210    4.4160    3.2880 c3        1 VIV     -0.076400
     27 C25       -10.7350    5.7090    3.7840 c3        1 VIV     -0.079400
     28 C26       -12.1860    5.8140    3.3670 c3        1 VIV     -0.076400
     29 C27       -12.8310    7.1110    3.8370 c3        1 VIV     -0.067700
     30 C28       -14.0980    7.3780    3.0500 c3        1 VIV     -0.089600
     31 C29       -13.1370    7.0710    5.3190 c3        1 VIV     -0.089600
     32 HO21        5.8720   -0.8750    0.3440 ho        1 VIV      0.416000
     33 HC12       -8.8930    4.8710    5.7140 hc        1 VIV      0.033700
     34 HC13       -7.3560    3.9860    5.3540 hc        1 VIV      0.033700
     35 HC81        5.2280   -0.5680   -2.7260 hc        1 VIV      0.048033
     36 HC82        3.7410   -1.3410   -3.4200 hc        1 VIV      0.048033
     37 HC83        3.9390    0.4610   -3.4860 hc        1 VIV      0.048033
     38 H101        1.5490   -0.4170   -3.5090 hc        1 VIV      0.054700
     39 H102        1.7600    1.3450   -3.1710 hc        1 VIV      0.054700
     40 H111       -0.6030    1.0600   -3.3770 hc        1 VIV      0.055200
     41 H112       -0.5920   -0.5180   -2.4860 hc        1 VIV      0.055200
     42 H121        2.0830    0.6000    2.9820 hc        1 VIV      0.047700
     43 H122        1.2280   -0.9760    2.6910 hc        1 VIV      0.047700
     44 H123        0.4770    0.5780    2.1400 hc        1 VIV      0.047700
     45 H131        4.8480   -1.8240    1.9430 hc        1 VIV      0.046367
     46 H132        4.8810   -0.0750    2.4380 hc        1 VIV      0.046367
     47 H133        3.5230   -1.1530    2.9660 hc        1 VIV      0.046367
     48 H141        1.0890    2.7270   -1.5180 hc        1 VIV      0.047700
     49 H142       -0.1300    3.1480   -0.2480 hc        1 VIV      0.047700
     50 H143       -0.5830    3.2510   -2.0070 hc        1 VIV      0.047700
     51 H151       -2.2580    0.0550   -0.9030 hc        1 VIV      0.049700
     52 H152       -2.5030    1.5890   -1.8410 hc        1 VIV      0.049700
     53 H161       -2.2670    2.9420    0.2080 hc        1 VIV      0.049200
     54 H162       -1.7490    1.4910    1.1580 hc        1 VIV      0.049200
     55 H171       -3.9820    0.4360    0.8210 hc        1 VIV      0.039200
     56 H172       -4.4820    1.7860   -0.2710 hc        1 VIV      0.039200
     57 H18        -4.0790    3.4000    1.6920 hc        1 VIV      0.046700
     58 H191       -2.6270    1.9260    3.0720 hc        1 VIV      0.034033
     59 H192       -3.9770    0.7340    3.2680 hc        1 VIV      0.034033
     60 H193       -4.1170    2.3910    3.9870 hc        1 VIV      0.034033
     61 H201       -6.1820    1.2170    2.2750 hc        1 VIV      0.039700
     62 H202       -6.3090    2.3340    0.8620 hc        1 VIV      0.039700
     63 H211       -6.1750    4.3140    2.4090 hc        1 VIV      0.040200
     64 H212       -6.0910    3.1970    3.8250 hc        1 VIV      0.040200
     65 H221       -8.3730    3.2770    1.7380 hc        1 VIV      0.039700
     66 H222       -8.3100    2.2070    3.1920 hc        1 VIV      0.039700
     67 H23        -8.1440    5.2860    3.3700 hc        1 VIV      0.047700
     68 H241      -10.2490    4.3590    2.1740 hc        1 VIV      0.039700
     69 H242      -10.6690    3.5430    3.7300 hc        1 VIV      0.039700
     70 H251      -10.1600    6.5800    3.3730 hc        1 VIV      0.040200
     71 H252      -10.6590    5.7610    4.9020 hc        1 VIV      0.040200
     72 H261      -12.7610    4.9420    3.7760 hc        1 VIV      0.039700
     73 H262      -12.2500    5.7580    2.2480 hc        1 VIV      0.039700
     74 H27       -12.1100    7.9560    3.6460 hc        1 VIV      0.045700
     75 H281      -14.8230    6.5390    3.1810 hc        1 VIV      0.033033
     76 H282      -14.5810    8.3210    3.4020 hc        1 VIV      0.033033
     77 H283      -13.8690    7.4810    1.9620 hc        1 VIV      0.033033
     78 H291      -12.2040    6.9080    5.9100 hc        1 VIV      0.033033
     79 H292      -13.5980    8.0350    5.6450 hc        1 VIV      0.033033
     80 H293      -13.8510    6.2430    5.5510 hc        1 VIV      0.033033
     81 HC11       -8.9280    3.0860    5.4070 hc        1 VIV      0.033700
@<TRIPOS>BOND
     1    1    6 1   
     2    1   11 1   
     3    2    9 1   
     4    2   32 1   
     5    3   25 1   
     6    3   33 1   
     7    3   34 1   
     8    3   81 1   
     9    4    5 ar  
    10    4    9 ar  
    11    4   10 1   
    12    5    6 ar  
    13    5   12 1   
    14    6    7 ar  
    15    7    8 ar  
    16    7   14 1   
    17    8    9 ar  
    18    8   15 1   
    19   10   35 1   
    20   10   36 1   
    21   10   37 1   
    22   11   13 1   
    23   11   16 1   
    24   11   17 1   
    25   12   13 1   
    26   12   38 1   
    27   12   39 1   
    28   13   40 1   
    29   13   41 1   
    30   14   42 1   
    31   14   43 1   
    32   14   44 1   
    33   15   45 1   
    34   15   46 1   
    35   15   47 1   
    36   16   48 1   
    37   16   49 1   
    38   16   50 1   
    39   17   18 1   
    40   17   51 1   
    41   17   52 1   
    42   18   19 1   
    43   18   53 1   
    44   18   54 1   
    45   19   20 1   
    46   19   55 1   
    47   19   56 1   
    48   20   21 1   
    49   20   22 1   
    50   20   57 1   
    51   21   58 1   
    52   21   59 1   
    53   21   60 1   
    54   22   23 1   
    55   22   61 1   
    56   22   62 1   
    57   23   24 1   
    58   23   63 1   
    59   23   64 1   
    60   24   25 1   
    61   24   65 1   
    62   24   66 1   
    63   25   26 1   
    64   25   67 1   
    65   26   27 1   
    66   26   68 1   
    67   26   69 1   
    68   27   28 1   
    69   27   70 1   
    70   27   71 1   
    71   28   29 1   
    72   28   72 1   
    73   28   73 1   
    74   29   30 1   
    75   29   31 1   
    76   29   74 1   
    77   30   75 1   
    78   30   76 1   
    79   30   77 1   
    80   31   78 1   
    81   31   79 1   
    82   31   80 1   
@<TRIPOS>SUBSTRUCTURE
     1 VIV         1 TEMP              0 ****  ****    0 ROOT
