@<TRIPOS>MOLECULE
VIV
   81    82     1     0     0
SMALL
bcc


@<TRIPOS>ATOM
      1 O1          0.1520    0.5980   -0.0910 os        1 VIV     -0.327900
      2 O2          5.4550   -0.9350   -0.4810 oh        1 VIV     -0.507100
      3 C1         -8.4630    4.0300    5.1080 c3        1 VIV     -0.089100
      4 C2          3.4550   -0.2610   -1.5520 ca        1 VIV     -0.068300
      5 C3          2.1060    0.1190   -1.4890 ca        1 VIV     -0.117300
      6 C4          1.4850    0.2530   -0.2380 ca        1 VIV      0.109100
      7 C5          2.1740   -0.0080    0.9650 ca        1 VIV     -0.069300
      8 C6          3.5090   -0.4270    0.9020 ca        1 VIV     -0.121300
      9 C7          4.1390   -0.5280   -0.3530 ca        1 VIV      0.089100
     10 C8          4.1390   -0.3930   -2.8590 c3        1 VIV     -0.046800
     11 C9         -0.4690    1.2460   -1.2230 c3        1 VIV      0.155800
     12 C10         1.3570    0.3980   -2.7420 c3        1 VIV     -0.028100
     13 C11        -0.1350    0.4990   -2.5140 c3        1 VIV     -0.101400
     14 C12         1.4830    0.1500    2.2670 c3        1 VIV     -0.046800
     15 C13         4.2670   -0.7570    2.1330 c3        1 VIV     -0.057800
     16 C14        -0.0220    2.6990   -1.2880 c3        1 VIV     -0.115100
     17 C15        -1.9760    1.1340   -0.9530 c3        1 VIV     -0.070400
     18 C16        -2.4100    1.8460    0.3100 c3        1 VIV     -0.078400
     19 C17        -3.8540    1.5300    0.6370 c3        1 VIV     -0.076400
     20 C18        -4.3670    2.3270    1.8300 c3        1 VIV     -0.064700
     21 C19        -3.7310    1.8430    3.1170 c3        1 VIV     -0.090100
     22 C20        -5.8850    2.2260    1.9020 c3        1 VIV     -0.076400
     23 C21        -6.4930    3.2990    2.7810 c3        1 VIV     -0.079400
     24 C22        -8.0040    3.1970    2.7930 c3        1 VIV     -0.076400
     25 C23        -8.6520    4.2940    3.6280 c3        1 VIV     -0.064700
     26 C24       -10.1310    4.4010    3.2790 c3        1 VIV     -0.076400
     27 C25       -10.7520    5.6870    3.7840 c3        1 VIV     -0.079400
     28 C26       -12.2000    5.7950    3.3540 c3        1 VIV     -0.076400
     29 C27       -12.8520    7.0840    3.8340 c3        1 VIV     -0.067700
     30 C28       -14.1110    7.3590    3.0380 c3        1 VIV     -0.089600
     31 C29       -13.1740    7.0230    5.3130 c3        1 VIV     -0.089600
     32 HO21        5.9110   -0.7240    0.3460 ho        1 VIV      0.416000
     33 HC12       -8.9530    3.0710    5.4020 hc        1 VIV      0.033700
     34 HC13       -8.9100    4.8550    5.7130 hc        1 VIV      0.033700
     35 HC81        3.9350    0.5010   -3.5000 hc        1 VIV      0.048033
     36 HC82        3.7670   -1.3020   -3.3950 hc        1 VIV      0.048033
     37 HC83        5.2450   -0.4910   -2.7260 hc        1 VIV      0.048033
     38 H101        1.7430    1.3550   -3.1900 hc        1 VIV      0.054700
     39 H102        1.5600   -0.4170   -3.4900 hc        1 VIV      0.054700
     40 H111       -0.5730   -0.5320   -2.4520 hc        1 VIV      0.055200
     41 H112       -0.6160    1.0270   -3.3760 hc        1 VIV      0.055200
     42 H121        0.5030    0.6770    2.1440 hc        1 VIV      0.047700
     43 H122        1.2840   -0.8530    2.7230 hc        1 VIV      0.047700
     44 H123        2.1140    0.7430    2.9750 hc        1 VIV      0.047700
     45 H131        4.9130   -1.6560    1.9700 hc        1 VIV      0.046367
     46 H132        3.5830   -0.9850    2.9870 hc        1 VIV      0.046367
     47 H133        4.9190    0.1040    2.4290 hc        1 VIV      0.046367
     48 H141       -0.1590    3.1860   -0.2930 hc        1 VIV      0.047700
     49 H142        1.0590    2.7590   -1.5620 hc        1 VIV      0.047700
     50 H143       -0.6240    3.2450   -2.0510 hc        1 VIV      0.047700
     51 H151       -2.2400    0.0460   -0.8730 hc        1 VIV      0.049700
     52 H152       -2.5160    1.5580   -1.8390 hc        1 VIV      0.049700
     53 H161       -1.7430    1.5300    1.1570 hc        1 VIV      0.049200
     54 H162       -2.2880    2.9540    0.1820 hc        1 VIV      0.049200
     55 H171       -4.4880    1.7600   -0.2610 hc        1 VIV      0.039200
     56 H172       -3.9630    0.4340    0.8480 hc        1 VIV      0.039200
     57 H18        -4.0900    3.4090    1.6790 hc        1 VIV      0.046700
     58 H191       -3.9670    0.7650    3.2910 hc        1 VIV      0.034033
     59 H192       -4.1090    2.4320    3.9860 hc        1 VIV      0.034033
     60 H193       -2.6210    1.9580    3.0710 hc        1 VIV      0.034033
     61 H201       -6.1730    1.2130    2.2890 hc        1 VIV      0.039700
     62 H202       -6.3130    2.3190    0.8680 hc        1 VIV      0.039700
     63 H211       -6.0980    3.2010    3.8260 hc        1 VIV      0.040200
     64 H212       -6.1870    4.3110    2.4050 hc        1 VIV      0.040200
     65 H221       -8.3800    3.2630    1.7370 hc        1 VIV      0.039700
     66 H222       -8.3120    2.1950    3.1920 hc        1 VIV      0.039700
     67 H23        -8.1560    5.2740    3.3740 hc        1 VIV      0.047700
     68 H241      -10.2530    4.3540    2.1640 hc        1 VIV      0.039700
     69 H242      -10.6800    3.5230    3.7100 hc        1 VIV      0.039700
     70 H251      -10.6870    5.7270    4.9030 hc        1 VIV      0.040200
     71 H252      -10.1760    6.5640    3.3870 hc        1 VIV      0.040200
     72 H261      -12.7770    4.9160    3.7460 hc        1 VIV      0.039700
     73 H262      -12.2530    5.7520    2.2330 hc        1 VIV      0.039700
     74 H27       -12.1310    7.9330    3.6620 hc        1 VIV      0.045700
     75 H281      -14.8360    6.5170    3.1500 hc        1 VIV      0.033033
     76 H282      -14.6000    8.2960    3.3970 hc        1 VIV      0.033033
     77 H283      -13.8710    7.4770    1.9540 hc        1 VIV      0.033033
     78 H291      -13.6400    7.9820    5.6460 hc        1 VIV      0.033033
     79 H292      -13.8890    6.1910    5.5250 hc        1 VIV      0.033033
     80 H293      -12.2470    6.8540    5.9110 hc        1 VIV      0.033033
     81 HC11       -7.3770    3.9620    5.3570 hc        1 VIV      0.033700
@<TRIPOS>BOND
     1    1    6 1   
     2    1   11 1   
     3    2    9 1   
     4    2   32 1   
     5    3   25 1   
     6    3   33 1   
     7    3   34 1   
     8    3   81 1   
     9    4    5 ar  
    10    4    9 ar  
    11    4   10 1   
    12    5    6 ar  
    13    5   12 1   
    14    6    7 ar  
    15    7    8 ar  
    16    7   14 1   
    17    8    9 ar  
    18    8   15 1   
    19   10   35 1   
    20   10   36 1   
    21   10   37 1   
    22   11   13 1   
    23   11   16 1   
    24   11   17 1   
    25   12   13 1   
    26   12   38 1   
    27   12   39 1   
    28   13   40 1   
    29   13   41 1   
    30   14   42 1   
    31   14   43 1   
    32   14   44 1   
    33   15   45 1   
    34   15   46 1   
    35   15   47 1   
    36   16   48 1   
    37   16   49 1   
    38   16   50 1   
    39   17   18 1   
    40   17   51 1   
    41   17   52 1   
    42   18   19 1   
    43   18   53 1   
    44   18   54 1   
    45   19   20 1   
    46   19   55 1   
    47   19   56 1   
    48   20   21 1   
    49   20   22 1   
    50   20   57 1   
    51   21   58 1   
    52   21   59 1   
    53   21   60 1   
    54   22   23 1   
    55   22   61 1   
    56   22   62 1   
    57   23   24 1   
    58   23   63 1   
    59   23   64 1   
    60   24   25 1   
    61   24   65 1   
    62   24   66 1   
    63   25   26 1   
    64   25   67 1   
    65   26   27 1   
    66   26   68 1   
    67   26   69 1   
    68   27   28 1   
    69   27   70 1   
    70   27   71 1   
    71   28   29 1   
    72   28   72 1   
    73   28   73 1   
    74   29   30 1   
    75   29   31 1   
    76   29   74 1   
    77   30   75 1   
    78   30   76 1   
    79   30   77 1   
    80   31   78 1   
    81   31   79 1   
    82   31   80 1   
@<TRIPOS>SUBSTRUCTURE
     1 VIV         1 TEMP              0 ****  ****    0 ROOT
