@<TRIPOS>MOLECULE
VJ6
   81    82     1     0     0
SMALL
bcc


@<TRIPOS>ATOM
      1 C1          2.1280   -1.7660   -1.1970 c         1 VJ6      0.672300
      2 N1          3.4120   -1.9170   -0.6740 n         1 VJ6     -0.490100
      3 O1          1.8060   -0.7270   -1.8050 o         1 VJ6     -0.585100
      4 C2          1.1520   -2.8760   -0.9750 ce        1 VJ6     -0.202400
      5 N2         -6.9240   -1.4320   -1.7400 n         1 VJ6     -0.641000
      6 O2         -3.5950   -2.0580    1.2720 os        1 VJ6     -0.430900
      7 C3         -0.1520   -2.5410   -0.9790 c2        1 VJ6     -0.077200
      8 N3         -3.6730   -2.8440    3.4230 n         1 VJ6     -0.640000
      9 O3         -5.0460   -0.8560   -0.5620 os        1 VJ6     -0.426900
     10 C4         -1.2660   -3.4510   -0.6360 c3        1 VJ6     -0.064200
     11 O4         -4.8100   -1.4640   -2.7440 o         1 VJ6     -0.598000
     12 C5         -2.6260   -2.8050   -0.8100 c3        1 VJ6     -0.108400
     13 O5         -0.6450    4.7780    0.5510 os        1 VJ6     -0.423600
     14 C6         -2.8360   -1.6190    0.1280 c3        1 VJ6      0.139100
     15 O6         -0.0290    1.2540    0.9380 os        1 VJ6     -0.422600
     16 C7         -3.6530   -0.4950   -0.5460 c3        1 VJ6      0.192300
     17 O7         -1.6370   -2.2850    2.4130 o         1 VJ6     -0.601000
     18 C8         -3.5240    0.8100    0.1950 c2        1 VJ6     -0.147400
     19 O8          7.8230    0.1480   -0.2290 os        1 VJ6     -0.329900
     20 C9         -2.5090    1.6290   -0.1270 c2        1 VJ6     -0.123200
     21 O9          2.5900    2.5950    1.4920 os        1 VJ6     -0.420600
     22 C10        -2.2280    2.9480    0.5060 c3        1 VJ6     -0.036500
     23 C11        -0.7920    3.3990    0.1860 c3        1 VJ6      0.140100
     24 C12         0.2610    2.6460    1.0300 c3        1 VJ6      0.130100
     25 C13         1.6580    2.9240    0.4620 c3        1 VJ6      0.095400
     26 C14        -0.4930    5.6500   -0.5550 c3        1 VJ6      0.115700
     27 C15         3.9490    2.7000    1.0930 c3        1 VJ6      0.173700
     28 C16         4.5090    1.4320    0.5260 ca        1 VJ6     -0.065300
     29 C17         5.8930    1.3340    0.3760 ca        1 VJ6     -0.175000
     30 C18         6.4430    0.1460   -0.1310 ca        1 VJ6      0.141100
     31 C19         5.6370   -0.9380   -0.4900 ca        1 VJ6     -0.235000
     32 C20         4.2380   -0.8260   -0.3420 ca        1 VJ6      0.101600
     33 C21         3.6850    0.3640    0.1730 ca        1 VJ6     -0.163000
     34 C22         1.6630   -4.2390   -0.7180 c3        1 VJ6     -0.056900
     35 C23        -2.8770   -2.3840    2.4040 c         1 VJ6      0.736100
     36 C24        -5.5620   -1.2800   -1.7710 c         1 VJ6      0.738100
     37 C25        -4.5440    1.0860    1.2290 c3        1 VJ6     -0.045900
     38 C26        -3.2390    3.9770    0.0320 c3        1 VJ6     -0.089100
     39 C27         0.3340    0.5250    2.1030 c3        1 VJ6      0.106700
     40 C28         8.4150   -1.0020   -0.8180 c3        1 VJ6      0.114700
     41 H1          3.6930   -2.8060   -0.3330 hn        1 VJ6      0.318500
     42 H2         -7.4000   -1.3720   -0.8760 hn        1 VJ6      0.325500
     43 H3         -7.3510   -1.8940   -2.5040 hn        1 VJ6      0.325500
     44 H4         -0.4340   -1.4980   -1.2230 ha        1 VJ6      0.151000
     45 H5         -3.2610   -2.9260    4.3190 hn        1 VJ6      0.323500
     46 H6         -4.6540   -2.7480    3.3480 hn        1 VJ6      0.323500
     47 H7         -1.2210   -4.3770   -1.2730 hc        1 VJ6      0.067200
     48 H8         -1.1470   -3.7710    0.4390 hc        1 VJ6      0.067200
     49 H9         -2.7530   -2.4650   -1.8730 hc        1 VJ6      0.071700
     50 H10        -3.4230   -3.5710   -0.6110 hc        1 VJ6      0.071700
     51 H11        -1.8510   -1.1810    0.4620 h1        1 VJ6      0.105700
     52 H12        -3.2670   -0.3760   -1.6010 h1        1 VJ6      0.099700
     53 H13        -1.7850    1.3220   -0.9040 ha        1 VJ6      0.135000
     54 H14        -2.3110    2.8540    1.6260 hc        1 VJ6      0.066700
     55 H15        -0.5790    3.2440   -0.9060 h1        1 VJ6      0.056700
     56 H16         0.2090    3.0010    2.0960 h1        1 VJ6      0.072700
     57 H17         1.7550    4.0140    0.2100 h1        1 VJ6      0.048700
     58 H18         1.8460    2.3010   -0.4520 h1        1 VJ6      0.048700
     59 H19         0.4280    5.3980   -1.1360 h1        1 VJ6      0.035033
     60 H20        -1.3900    5.6040   -1.2220 h1        1 VJ6      0.035033
     61 H21        -0.4000    6.6660   -0.0950 h1        1 VJ6      0.035033
     62 H22         4.0880    3.5360    0.3560 h1        1 VJ6      0.058200
     63 H23         4.4880    2.9530    2.0490 h1        1 VJ6      0.058200
     64 H24         6.5570    2.1650    0.6520 ha        1 VJ6      0.147000
     65 H25         6.0800   -1.8620   -0.8870 ha        1 VJ6      0.139000
     66 H26         2.5910    0.4560    0.2960 ha        1 VJ6      0.167000
     67 H27         2.4740   -4.5030   -1.4410 hc        1 VJ6      0.044700
     68 H28         2.0690   -4.3180    0.3220 hc        1 VJ6      0.044700
     69 H29         0.8470   -4.9970   -0.8250 hc        1 VJ6      0.044700
     70 H30        -5.4810    1.4620    0.7470 hc        1 VJ6      0.043700
     71 H31        -4.7920    0.1410    1.7770 hc        1 VJ6      0.043700
     72 H32        -4.1900    1.8500    1.9640 hc        1 VJ6      0.043700
     73 H33        -3.1760    4.1080   -1.0750 hc        1 VJ6      0.040367
     74 H34        -4.2710    3.6400    0.2930 hc        1 VJ6      0.040367
     75 H35        -3.0420    4.9610    0.5210 hc        1 VJ6      0.040367
     76 H36         0.0040   -0.5240    1.8860 h1        1 VJ6      0.044700
     77 H37         1.4390    0.5800    2.2640 h1        1 VJ6      0.044700
     78 H38        -0.2030    0.9220    2.9990 h1        1 VJ6      0.044700
     79 H39         9.5070   -0.7540   -0.8330 h1        1 VJ6      0.043367
     80 H40         8.2280   -1.9070   -0.1900 h1        1 VJ6      0.043367
     81 H41         8.0330   -1.1600   -1.8550 h1        1 VJ6      0.043367
@<TRIPOS>BOND
     1    1    2 1   
     2    1    3 2   
     3    1    4 1   
     4    2   32 1   
     5    2   41 1   
     6    4    7 2   
     7    4   34 1   
     8    5   36 1   
     9    5   42 1   
    10    5   43 1   
    11    6   14 1   
    12    6   35 1   
    13    7   10 1   
    14    7   44 1   
    15    8   35 1   
    16    8   45 1   
    17    8   46 1   
    18    9   16 1   
    19    9   36 1   
    20   10   12 1   
    21   10   47 1   
    22   10   48 1   
    23   11   36 2   
    24   12   14 1   
    25   12   49 1   
    26   12   50 1   
    27   13   23 1   
    28   13   26 1   
    29   14   16 1   
    30   14   51 1   
    31   15   24 1   
    32   15   39 1   
    33   16   18 1   
    34   16   52 1   
    35   17   35 2   
    36   18   20 2   
    37   18   37 1   
    38   19   30 1   
    39   19   40 1   
    40   20   22 1   
    41   20   53 1   
    42   21   25 1   
    43   21   27 1   
    44   22   23 1   
    45   22   38 1   
    46   22   54 1   
    47   23   24 1   
    48   23   55 1   
    49   24   25 1   
    50   24   56 1   
    51   25   57 1   
    52   25   58 1   
    53   26   59 1   
    54   26   60 1   
    55   26   61 1   
    56   27   28 1   
    57   27   62 1   
    58   27   63 1   
    59   28   29 ar  
    60   28   33 ar  
    61   29   30 ar  
    62   29   64 1   
    63   30   31 ar  
    64   31   32 ar  
    65   31   65 1   
    66   32   33 ar  
    67   33   66 1   
    68   34   67 1   
    69   34   68 1   
    70   34   69 1   
    71   37   70 1   
    72   37   71 1   
    73   37   72 1   
    74   38   73 1   
    75   38   74 1   
    76   38   75 1   
    77   39   76 1   
    78   39   77 1   
    79   39   78 1   
    80   40   79 1   
    81   40   80 1   
    82   40   81 1   
@<TRIPOS>SUBSTRUCTURE
     1 VJ6         1 TEMP              0 ****  ****    0 ROOT
