@<TRIPOS>MOLECULE
VJ6
   84    85     1     0     0
SMALL
bcc


@<TRIPOS>ATOM
      1 C1         -0.0220    0.0990   -0.3120 c         1 VJ6      0.552300
      2 N1          1.4640    0.3770   -0.2380 n4        1 VJ6     -0.534200
      3 O1         -0.7460    0.9840    0.1290 o         1 VJ6     -0.421100
      4 C2         -0.4690   -1.1700   -0.9240 ce        1 VJ6     -0.192400
      5 N2         -8.6190   -2.0070    0.8050 n4        1 VJ6     -0.713400
      6 O2         -4.8140   -4.8410   -0.2330 os        1 VJ6     -0.393900
      7 C3         -1.7920   -1.4430   -0.8480 c2        1 VJ6     -0.041200
      8 N3         -4.7420   -7.1510   -0.7000 n4        1 VJ6     -0.711400
      9 O3         -6.4360   -2.9070    0.6910 os        1 VJ6     -0.400900
     10 C4         -2.4410   -2.6260   -1.4570 c3        1 VJ6     -0.081200
     11 O4         -6.6970   -0.6900    1.2370 o         1 VJ6     -0.380000
     12 C5         -3.9170   -2.7600   -1.1170 c3        1 VJ6     -0.112400
     13 O5         -2.0780   -3.9620    6.4240 os        1 VJ6     -0.414600
     14 C6         -4.1570   -3.5820    0.1430 c3        1 VJ6      0.149100
     15 O6         -1.6430   -3.8890    2.9300 os        1 VJ6     -0.466600
     16 C7         -5.0540   -2.8970    1.1920 c3        1 VJ6      0.214300
     17 O7         -2.7670   -5.8500   -0.4900 o         1 VJ6     -0.398000
     18 C8         -4.9790   -3.5870    2.5150 c2        1 VJ6     -0.271400
     19 O8          3.8240    2.2240    3.6700 os        1 VJ6     -0.290900
     20 C9         -4.0690   -3.1410    3.4040 c2        1 VJ6     -0.003200
     21 O9          1.0160   -3.0280    3.5760 os        1 VJ6     -0.427600
     22 C10        -3.7240   -3.7900    4.6950 c3        1 VJ6     -0.057500
     23 C11        -2.3490   -3.3020    5.1890 c3        1 VJ6      0.141100
     24 C12        -1.1680   -3.6880    4.2640 c3        1 VJ6      0.117100
     25 C13        -0.1290   -2.5590    4.2840 c3        1 VJ6      0.102400
     26 C14        -1.9880   -3.0940    7.5470 c3        1 VJ6      0.107700
     27 C15         2.2160   -2.3320    3.8860 c3        1 VJ6      0.161700
     28 C16         2.3410   -1.0400    3.1370 ca        1 VJ6     -0.067300
     29 C17         3.0060    0.0330    3.7190 ca        1 VJ6     -0.100000
     30 C18         3.1590    1.2400    2.9960 ca        1 VJ6      0.182100
     31 C19         2.6430    1.3700    1.7000 ca        1 VJ6     -0.199000
     32 C20         1.9810    0.2640    1.1350 ca        1 VJ6     -0.011400
     33 C21         1.8260   -0.9360    1.8360 ca        1 VJ6     -0.141000
     34 C22         0.5220   -2.0350   -1.6020 c3        1 VJ6     -0.090900
     35 C23        -3.9870   -5.8860   -0.4620 c         1 VJ6      0.620100
     36 C24        -7.1500   -1.7860    0.9540 c         1 VJ6      0.619100
     37 C25        -5.8730   -4.7430    2.7400 c3        1 VJ6     -0.039900
     38 C26        -4.7880   -3.5080    5.7400 c3        1 VJ6     -0.094100
     39 C27        -0.8950   -4.8750    2.2250 c3        1 VJ6      0.114700
     40 C28         4.0640    3.4540    2.9810 c3        1 VJ6      0.100700
     41 H1          1.9840   -0.2760   -0.8360 hn        1 VJ6      0.470800
     42 H2         -8.9500   -2.6410    1.5450 hn        1 VJ6      0.496467
     43 H3         -9.1030   -1.0970    0.8910 hn        1 VJ6      0.496467
     44 H4         -2.4630   -0.7310   -0.3260 ha        1 VJ6      0.155000
     45 H5         -5.2860   -7.0780   -1.5710 hn        1 VJ6      0.497800
     46 H6         -4.0690   -7.9310   -0.7810 hn        1 VJ6      0.497800
     47 H7         -1.8940   -3.5660   -1.1620 hc        1 VJ6      0.097200
     48 H8         -2.3440   -2.5330   -2.5790 hc        1 VJ6      0.097200
     49 H9         -4.4440   -3.2500   -1.9810 hc        1 VJ6      0.083700
     50 H10        -4.3810   -1.7440   -0.9980 hc        1 VJ6      0.083700
     51 H11        -3.1840   -3.8210    0.6770 h1        1 VJ6      0.136700
     52 H12        -4.7000   -1.8250    1.2690 h1        1 VJ6      0.114700
     53 H13        -3.4690   -2.2410    3.1670 ha        1 VJ6      0.134000
     54 H14        -3.6500   -4.9070    4.5470 hc        1 VJ6      0.085700
     55 H15        -2.3830   -2.1850    5.3180 h1        1 VJ6      0.055700
     56 H16        -0.6970   -4.6360    4.6560 h1        1 VJ6      0.101700
     57 H17        -0.5210   -1.6450    3.7670 h1        1 VJ6      0.047700
     58 H18         0.1270   -2.3170    5.3500 h1        1 VJ6      0.047700
     59 H19        -2.9500   -2.5470    7.7000 h1        1 VJ6      0.052033
     60 H20        -1.1460   -2.3710    7.4180 h1        1 VJ6      0.052033
     61 H21        -1.7850   -3.7870    8.4040 h1        1 VJ6      0.052033
     62 H22         3.0290   -3.0390    3.5530 h1        1 VJ6      0.089200
     63 H23         2.3050   -2.1580    4.9930 h1        1 VJ6      0.089200
     64 H24         3.4270   -0.0320    4.7380 ha        1 VJ6      0.191000
     65 H25         2.7610    2.3180    1.1530 ha        1 VJ6      0.167000
     66 H26         1.3110   -1.8090    1.4030 ha        1 VJ6      0.154000
     67 H27         0.0260   -2.9230   -2.0710 hc        1 VJ6      0.074700
     68 H28         1.0440   -1.4830   -2.4260 hc        1 VJ6      0.074700
     69 H29         1.2830   -2.4240   -0.8770 hc        1 VJ6      0.074700
     70 H30        -6.8390   -4.4060    3.1950 hc        1 VJ6      0.045033
     71 H31        -6.1030   -5.2590    1.7740 hc        1 VJ6      0.045033
     72 H32        -5.4090   -5.4810    3.4440 hc        1 VJ6      0.045033
     73 H33        -4.8640   -2.4140    5.9470 hc        1 VJ6      0.056033
     74 H34        -5.7800   -3.8820    5.3900 hc        1 VJ6      0.056033
     75 H35        -4.5210   -4.0310    6.6930 hc        1 VJ6      0.056033
     76 H36         0.1840   -4.5890    2.1720 h1        1 VJ6      0.042033
     77 H37        -1.0050   -5.8720    2.7170 h1        1 VJ6      0.042033
     78 H38        -1.3490   -4.8910    1.2010 h1        1 VJ6      0.042033
     79 H39         3.0980    3.9540    2.7300 h1        1 VJ6      0.068700
     80 H40         4.6380    4.0520    3.7380 h1        1 VJ6      0.068700
     81 H41         4.6800    3.2770    2.0670 h1        1 VJ6      0.068700
     82 H121        1.6300    1.3390   -0.5710 hn        1 VJ6      0.470800
     83 H231       -8.8280   -2.4240   -0.1110 hn        1 VJ6      0.496467
     84 H331       -5.3860   -7.3280    0.0830 hn        1 VJ6      0.497800
@<TRIPOS>BOND
     1    1    2 1   
     2    1    3 2   
     3    1    4 1   
     4    2   32 1   
     5    2   41 1   
     6    2   82 1   
     7    4    7 2   
     8    4   34 1   
     9    5   36 1   
    10    5   42 1   
    11    5   43 1   
    12    5   83 1   
    13    6   14 1   
    14    6   35 1   
    15    7   10 1   
    16    7   44 1   
    17    8   35 1   
    18    8   45 1   
    19    8   46 1   
    20    8   84 1   
    21    9   16 1   
    22    9   36 1   
    23   10   12 1   
    24   10   47 1   
    25   10   48 1   
    26   11   36 2   
    27   12   14 1   
    28   12   49 1   
    29   12   50 1   
    30   13   23 1   
    31   13   26 1   
    32   14   16 1   
    33   14   51 1   
    34   15   24 1   
    35   15   39 1   
    36   16   18 1   
    37   16   52 1   
    38   17   35 2   
    39   18   20 2   
    40   18   37 1   
    41   19   30 1   
    42   19   40 1   
    43   20   22 1   
    44   20   53 1   
    45   21   25 1   
    46   21   27 1   
    47   22   23 1   
    48   22   38 1   
    49   22   54 1   
    50   23   24 1   
    51   23   55 1   
    52   24   25 1   
    53   24   56 1   
    54   25   57 1   
    55   25   58 1   
    56   26   59 1   
    57   26   60 1   
    58   26   61 1   
    59   27   28 1   
    60   27   62 1   
    61   27   63 1   
    62   28   29 ar  
    63   28   33 ar  
    64   29   30 ar  
    65   29   64 1   
    66   30   31 ar  
    67   31   32 ar  
    68   31   65 1   
    69   32   33 ar  
    70   33   66 1   
    71   34   67 1   
    72   34   68 1   
    73   34   69 1   
    74   37   70 1   
    75   37   71 1   
    76   37   72 1   
    77   38   73 1   
    78   38   74 1   
    79   38   75 1   
    80   39   76 1   
    81   39   77 1   
    82   39   78 1   
    83   40   79 1   
    84   40   80 1   
    85   40   81 1   
@<TRIPOS>SUBSTRUCTURE
     1 VJ6         1 TEMP              0 ****  ****    0 ROOT
