@<TRIPOS>MOLECULE
VJ6
   83    84     1     0     0
SMALL
bcc


@<TRIPOS>ATOM
      1 C1         -0.6990   -1.0170    0.1170 c         1 VJ6      0.670300
      2 N1          0.4850   -0.3330    0.2150 ns        1 VJ6     -0.447100
      3 O1         -1.4750   -1.1850    1.0920 o         1 VJ6     -0.670100
      4 C2         -1.0750   -1.6770   -1.1830 ce        1 VJ6     -0.143400
      5 N2         -7.4340   -0.7640   -0.1380 nz        1 VJ6     -0.719400
      6 O2         -4.1060   -4.9220    0.3600 os        1 VJ6     -0.411900
      7 C3         -2.3830   -1.6860   -1.4870 c2        1 VJ6     -0.160200
      8 N3         -3.3190   -6.2630    2.1480 nz        1 VJ6     -0.730400
      9 O3         -5.7280   -2.2620    0.4300 os        1 VJ6     -0.398900
     10 C4         -3.0850   -2.6500   -2.3620 c3        1 VJ6     -0.057200
     11 O4         -5.1690   -0.0710   -0.0360 o         1 VJ6     -0.387000
     12 C5         -4.1070   -3.4430   -1.5450 c3        1 VJ6     -0.084400
     13 O5         -3.1260   -5.4140    4.7980 os        1 VJ6     -0.504600
     14 C6         -3.7200   -3.5780   -0.0750 c3        1 VJ6      0.151100
     15 O6         -1.2520   -4.4360    3.1120 os        1 VJ6     -0.489600
     16 C7         -4.3610   -2.5730    0.9000 c3        1 VJ6      0.190300
     17 O7         -2.0650   -5.9290    0.1570 o         1 VJ6     -0.377000
     18 C8         -4.5090   -3.0700    2.3090 c2        1 VJ6     -0.231400
     19 O8          2.9760    2.6220    3.2260 os        1 VJ6     -0.312900
     20 C9         -3.5570   -2.7550    3.2050 c2        1 VJ6     -0.064200
     21 O9          0.9070   -2.9050    4.5490 os        1 VJ6     -0.427600
     22 C10        -3.6080   -3.0870    4.6550 c3        1 VJ6     -0.055500
     23 C11        -2.5640   -4.1240    5.1010 c3        1 VJ6      0.145100
     24 C12        -1.1510   -4.0770    4.4940 c3        1 VJ6      0.121100
     25 C13        -0.4970   -2.7050    4.6830 c3        1 VJ6      0.096400
     26 C14        -2.9750   -6.3610    5.8520 c3        1 VJ6      0.108700
     27 C15         1.6880   -1.7440    4.8170 c3        1 VJ6      0.170700
     28 C16         1.6780   -0.7280    3.7190 ca        1 VJ6     -0.078300
     29 C17         2.3020    0.4970    3.9390 ca        1 VJ6     -0.150000
     30 C18         2.3310    1.4510    2.9020 ca        1 VJ6      0.161100
     31 C19         1.7290    1.2010    1.6630 ca        1 VJ6     -0.217000
     32 C20         1.0940   -0.0400    1.4600 ca        1 VJ6      0.071600
     33 C21         1.0880   -1.0040    2.4840 ca        1 VJ6     -0.172000
     34 C22         0.0090   -2.3710   -1.9050 c3        1 VJ6     -0.074900
     35 C23        -3.0710   -5.6890    0.8030 c         1 VJ6      0.632100
     36 C24        -5.9700   -0.9810    0.1000 c         1 VJ6      0.619100
     37 C25        -5.7370   -3.8410    2.6170 c3        1 VJ6     -0.062900
     38 C26        -3.4830   -1.8040    5.4630 c3        1 VJ6     -0.100100
     39 C27        -0.0170   -4.8870    2.5570 c3        1 VJ6      0.096700
     40 C28         3.0950    3.5990    2.1950 c3        1 VJ6      0.107700
     41 H1          0.9970   -0.1110   -0.6090 hn        1 VJ6      0.340500
     42 H2         -7.5740    0.1880   -0.5100 hn        1 VJ6      0.490133
     43 H3         -7.9450   -0.8670    0.7480 hn        1 VJ6      0.490133
     44 H4         -3.0540   -0.9800   -0.9590 ha        1 VJ6      0.126000
     45 H5         -3.2380   -7.2840    2.1190 hn        1 VJ6      0.496800
     46 H6         -4.2480   -5.9860    2.4930 hn        1 VJ6      0.496800
     47 H7         -2.3670   -3.3640   -2.8460 hc        1 VJ6      0.080700
     48 H8         -3.6190   -2.1130   -3.1920 hc        1 VJ6      0.080700
     49 H9         -4.2040   -4.4720   -1.9880 hc        1 VJ6      0.067200
     50 H10        -5.1140   -2.9610   -1.6280 hc        1 VJ6      0.067200
     51 H11        -2.5990   -3.4620    0.0510 h1        1 VJ6      0.127700
     52 H12        -3.7250   -1.6320    0.8740 h1        1 VJ6      0.153700
     53 H13        -2.6550   -2.1880    2.8860 ha        1 VJ6      0.181000
     54 H14        -4.6130   -3.5400    4.9100 hc        1 VJ6      0.074700
     55 H15        -2.4370   -4.0160    6.2190 h1        1 VJ6      0.085700
     56 H16        -0.5210   -4.8540    5.0210 h1        1 VJ6      0.076700
     57 H17        -0.7280   -2.3160    5.7120 h1        1 VJ6      0.058200
     58 H18        -0.8520   -1.9750    3.9080 h1        1 VJ6      0.058200
     59 H19        -3.5080   -6.0080    6.7690 h1        1 VJ6      0.055367
     60 H20        -3.4500   -7.2950    5.4610 h1        1 VJ6      0.055367
     61 H21        -1.8920   -6.5300    6.0720 h1        1 VJ6      0.055367
     62 H22         1.3610   -1.2720    5.7840 h1        1 VJ6      0.077700
     63 H23         2.7280   -2.1640    4.9360 h1        1 VJ6      0.077700
     64 H24         2.7800    0.7360    4.9010 ha        1 VJ6      0.166000
     65 H25         1.7520    1.9580    0.8660 ha        1 VJ6      0.153000
     66 H26         0.6120   -1.9830    2.3190 ha        1 VJ6      0.140000
     67 H27         0.6880   -2.9090   -1.1960 hc        1 VJ6      0.066367
     68 H28        -0.3840   -3.1120   -2.6440 hc        1 VJ6      0.066367
     69 H29         0.6200   -1.6190   -2.4700 hc        1 VJ6      0.066367
     70 H30        -5.5600   -4.5890    3.4310 hc        1 VJ6      0.051700
     71 H31        -6.5500   -3.1530    2.9630 hc        1 VJ6      0.051700
     72 H32        -6.1030   -4.3830    1.7080 hc        1 VJ6      0.051700
     73 H33        -2.5660   -1.2310    5.1840 hc        1 VJ6      0.058033
     74 H34        -3.4460   -2.0350    6.5550 hc        1 VJ6      0.058033
     75 H35        -4.3710   -1.1530    5.2730 hc        1 VJ6      0.058033
     76 H36         0.3030   -5.8340    3.0570 h1        1 VJ6      0.059033
     77 H37        -0.2490   -5.0630    1.4760 h1        1 VJ6      0.059033
     78 H38         0.7760   -4.1070    2.6720 h1        1 VJ6      0.059033
     79 H39         3.6560    3.1860    1.3220 h1        1 VJ6      0.055033
     80 H40         2.0870    3.9640    1.8830 h1        1 VJ6      0.055033
     81 H41         3.6780    4.4190    2.6890 h1        1 VJ6      0.055033
     82 H231       -7.7890   -1.4570   -0.8090 hn        1 VJ6      0.490133
     83 H331       -2.6040   -5.8770    2.8170 hn        1 VJ6      0.496800
@<TRIPOS>BOND
     1    1    2 1   
     2    1    3 2   
     3    1    4 1   
     4    2   32 1   
     5    2   41 1   
     6    4    7 2   
     7    4   34 1   
     8    5   36 1   
     9    5   42 1   
    10    5   43 1   
    11    5   82 1   
    12    6   14 1   
    13    6   35 1   
    14    7   10 1   
    15    7   44 1   
    16    8   35 1   
    17    8   45 1   
    18    8   46 1   
    19    8   83 1   
    20    9   16 1   
    21    9   36 1   
    22   10   12 1   
    23   10   47 1   
    24   10   48 1   
    25   11   36 2   
    26   12   14 1   
    27   12   49 1   
    28   12   50 1   
    29   13   23 1   
    30   13   26 1   
    31   14   16 1   
    32   14   51 1   
    33   15   24 1   
    34   15   39 1   
    35   16   18 1   
    36   16   52 1   
    37   17   35 2   
    38   18   20 2   
    39   18   37 1   
    40   19   30 1   
    41   19   40 1   
    42   20   22 1   
    43   20   53 1   
    44   21   25 1   
    45   21   27 1   
    46   22   23 1   
    47   22   38 1   
    48   22   54 1   
    49   23   24 1   
    50   23   55 1   
    51   24   25 1   
    52   24   56 1   
    53   25   57 1   
    54   25   58 1   
    55   26   59 1   
    56   26   60 1   
    57   26   61 1   
    58   27   28 1   
    59   27   62 1   
    60   27   63 1   
    61   28   29 ar  
    62   28   33 ar  
    63   29   30 ar  
    64   29   64 1   
    65   30   31 ar  
    66   31   32 ar  
    67   31   65 1   
    68   32   33 ar  
    69   33   66 1   
    70   34   67 1   
    71   34   68 1   
    72   34   69 1   
    73   37   70 1   
    74   37   71 1   
    75   37   72 1   
    76   38   73 1   
    77   38   74 1   
    78   38   75 1   
    79   39   76 1   
    80   39   77 1   
    81   39   78 1   
    82   40   79 1   
    83   40   80 1   
    84   40   81 1   
@<TRIPOS>SUBSTRUCTURE
     1 VJ6         1 TEMP              0 ****  ****    0 ROOT
