@<TRIPOS>MOLECULE
VJJ
   25    26     1     0     0
SMALL
bcc


@<TRIPOS>ATOM
      1 OAA         2.8120    2.2240    0.1500 o         1 VJJ     -0.825800
      2 OAB         4.4030    0.8180   -0.5510 o         1 VJJ     -0.825800
      3 CAC        -4.2460    1.1540   -0.9030 ca        1 VJJ     -0.182000
      4 CAD        -2.9730    1.1440   -1.4720 ca        1 VJJ     -0.105500
      5 CAE        -4.4690    0.5110    0.3160 ca        1 VJJ     -0.105500
      6 CAF         1.7440   -2.4420   -0.3760 ca        1 VJJ     -0.157000
      7 CAG        -1.9170    0.4940   -0.8360 ca        1 VJJ     -0.177500
      8 CAH        -3.4310   -0.1440    0.9690 ca        1 VJJ     -0.177500
      9 CAI         0.4490   -2.2470    0.1010 ca        1 VJJ     -0.154000
     10 CAJ         2.6360   -1.3740   -0.4540 ca        1 VJJ     -0.106000
     11 CAK         0.9600    0.1190    0.4420 ca        1 VJJ     -0.114000
     12 CAM         3.2300    1.0730   -0.1570 c         1 VJJ      0.908200
     13 CAN        -2.1500   -0.1510    0.3860 ca        1 VJJ      0.142100
     14 CAO         0.0740   -0.9610    0.5120 ca        1 VJJ      0.038100
     15 CAP         2.2510   -0.0900   -0.0510 ca        1 VJJ     -0.119600
     16 HAE        -5.4710    0.5230    0.7670 ha        1 VJJ      0.122000
     17 HAF         2.0570   -3.4470   -0.6940 ha        1 VJJ      0.110000
     18 HAG        -0.9070    0.4970   -1.2760 ha        1 VJJ      0.153000
     19 HAH        -3.5900   -0.6510    1.9310 ha        1 VJJ      0.153000
     20 HAI        -0.2660   -3.0770    0.1700 ha        1 VJJ      0.121000
     21 HAJ         3.6620   -1.5120   -0.8320 ha        1 VJJ      0.155000
     22 HAK         0.6650    1.1310    0.7630 ha        1 VJJ      0.167000
     23 HAC        -5.0720    1.6700   -1.4110 ha        1 VJJ      0.118000
     24 OAL        -1.1850   -0.8240    1.1150 os        1 VJJ     -0.260200
     25 HAD        -2.7930    1.6570   -2.4280 ha        1 VJJ      0.122000
@<TRIPOS>BOND
     1    1   12 1   
     2    2   12 1   
     3    3    4 ar  
     4    3    5 ar  
     5    3   23 1   
     6    4    7 ar  
     7    4   25 1   
     8    5    8 ar  
     9    5   16 1   
    10    6    9 ar  
    11    6   10 ar  
    12    6   17 1   
    13    7   13 ar  
    14    7   18 1   
    15    8   13 ar  
    16    8   19 1   
    17    9   14 ar  
    18    9   20 1   
    19   10   15 ar  
    20   10   21 1   
    21   11   14 ar  
    22   11   15 ar  
    23   11   22 1   
    24   12   15 1   
    25   13   24 1   
    26   14   24 1   
@<TRIPOS>SUBSTRUCTURE
     1 VJJ         1 TEMP              0 ****  ****    0 ROOT
