@<TRIPOS>MOLECULE
VJJ
   25    24     1     0     0
SMALL
bcc


@<TRIPOS>ATOM
      1 OAA        -0.0570   -2.2890    1.3700 o         1 VJJ     -0.557500
      2 OAB        -0.9020   -0.8240   -0.0910 o         1 VJJ     -0.557500
      3 CAC        -0.6220   -3.1230    5.3750 c1        1 VJJ     -0.059000
      4 CAD         0.2880   -3.1600    4.2900 c3        1 VJJ     -0.129000
      5 CAE        -0.8930   -2.3310    6.4170 c1        1 VJJ     -0.121000
      6 CAF         5.5210    0.9040    3.0770 c1        1 VJJ     -0.073000
      7 CAG         1.5090   -2.3230    4.2640 c2        1 VJJ     -0.202000
      8 CAH        -1.2960   -1.7350    7.3990 c1        1 VJJ     -0.239000
      9 CAI         4.6160    0.7570    4.1910 c3        1 VJJ     -0.189000
     10 CAJ         1.9920   -0.2190    1.8220 c1        1 VJJ     -0.044000
     11 CAK         2.6790   -0.1040    2.8770 c1        1 VJJ     -0.259000
     12 CAM         0.0040   -1.2300    0.6840 c2        1 VJJ      0.370000
     13 CAN         1.8810   -1.4600    5.2150 c2        1 VJJ     -0.061000
     14 CAO         3.3690   -0.0400    3.9900 c2        1 VJJ      0.038000
     15 CAP         1.2620   -0.3730    0.7520 c2        1 VJJ     -0.130000
     16 HAE        -1.6530   -1.2230    8.2520 ha        1 VJJ      0.212000
     17 HAF         5.2120    0.3170    5.0480 hc        1 VJJ      0.151500
     18 HAG         2.0750   -2.4180    3.3190 ha        1 VJJ      0.162000
     19 HAH         1.3650   -1.2990    6.1760 h4        1 VJJ      0.148000
     20 HAI         4.3330    1.8020    4.5220 hc        1 VJJ      0.151500
     21 HAJ         5.2400    0.4160    2.1310 ha        1 VJJ      0.055000
     22 HAK         1.5060    0.1460   -0.1890 ha        1 VJJ      0.134000
     23 HAC        -0.3420   -2.8570    3.3640 hc        1 VJJ      0.197000
     24 OAL         3.0280   -0.6790    5.1860 os        1 VJJ     -0.195000
     25 HAD         0.5690   -4.2350    4.0810 hc        1 VJJ      0.197000
@<TRIPOS>BOND
     1    1   12 1   
     2    2   12 1   
     3    3    4 1   
     4    3    5 1   
     5    4    7 1   
     6    4   23 1   
     7    4   25 1   
     8    5    8 1   
     9    6    9 1   
    10    6   21 1   
    11    7   13 1   
    12    7   18 1   
    13    8   16 1   
    14    9   14 1   
    15    9   17 1   
    16    9   20 1   
    17   10   11 1   
    18   10   15 1   
    19   11   14 1   
    20   12   15 1   
    21   13   19 1   
    22   13   24 1   
    23   14   24 1   
    24   15   22 1   
@<TRIPOS>SUBSTRUCTURE
     1 VJJ         1 TEMP              0 ****  ****    0 ROOT
