@<TRIPOS>MOLECULE
VJK
   48    50     1     0     0
SMALL
bcc


@<TRIPOS>ATOM
      1 C1          1.0480   -1.3750    0.4300 c3        1 VJK     -0.097400
      2 C2          0.6510    0.1210    0.2860 c3        1 VJK      0.170200
      3 C3          0.5220    0.7070    1.7040 c3        1 VJK     -0.134100
      4 C4         -0.7900    0.1010   -0.2790 c         1 VJK      0.558100
      5 C5         -2.3530    0.3160   -2.2120 c3        1 VJK      0.039800
      6 C6         -2.4420    0.5640   -3.7620 c3        1 VJK      0.630900
      7 C7          1.5800    2.2570   -0.5460 ca        1 VJK      0.622200
      8 C8          2.7700    2.9640   -0.2480 ca        1 VJK     -0.395600
      9 C9          2.6940    4.3730   -0.2750 ca        1 VJK      0.480200
     10 C10         0.4580    4.2850   -0.8720 ca        1 VJK      0.811800
     11 C11        -0.7620    5.0030   -1.2140 cc        1 VJK     -0.237000
     12 C12        -1.7130    4.6140   -2.1710 cd        1 VJK     -0.063100
     13 C13        -2.4520    6.5840   -1.3310 ca        1 VJK      0.415800
     14 F2         -3.6760    0.2600   -4.2550 f         1 VJK     -0.206633
     15 F          -2.1930    1.8660   -4.1050 f         1 VJK     -0.206633
     16 F1         -1.5370   -0.1810   -4.4700 f         1 VJK     -0.206633
     17 N          -1.0020    0.5990   -1.6880 n4        1 VJK     -0.678800
     18 O          -1.7780   -0.2980    0.3160 o         1 VJK     -0.424100
     19 C           1.1510   -2.1110   -0.8770 c3        1 VJK     -0.107100
     20 N1          1.5800    0.8290   -0.5860 nh        1 VJK     -0.856900
     21 N3          0.4210    2.9140   -0.8750 nb        1 VJK     -0.839000
     22 N2          1.5700    5.0400   -0.5630 nb        1 VJK     -0.675000
     23 C14        -1.1990    6.2650   -0.6640 ca        1 VJK     -0.160100
     24 C15        -0.7220    7.1710    0.2910 ca        1 VJK     -0.041000
     25 C16        -1.4760    8.3070    0.5390 ca        1 VJK     -0.253300
     26 C17        -2.6910    8.5240   -0.1660 ca        1 VJK      0.427200
     27 N5         -3.2010    7.7010   -1.0870 nb        1 VJK     -0.653000
     28 N4         -2.7360    5.5440   -2.2400 na        1 VJK     -0.264100
     29 H1          0.2780   -1.8640    1.0860 hc        1 VJK      0.086700
     30 H2          2.0290   -1.4230    0.9760 hc        1 VJK      0.086700
     31 H3          0.1890    1.7720    1.6780 hc        1 VJK      0.079033
     32 H4          1.5120    0.6510    2.2190 hc        1 VJK      0.079033
     33 H5         -0.2210    0.1140    2.2920 hc        1 VJK      0.079033
     34 H6         -2.6240   -0.7620   -2.0150 hx        1 VJK      0.146700
     35 H7         -3.1080    0.9750   -1.6960 hx        1 VJK      0.146700
     36 H8          3.7130    2.4590   -0.0080 ha        1 VJK      0.170000
     37 H9          3.5850    4.9920   -0.0470 h4        1 VJK      0.056100
     38 H10        -1.7080    3.7450   -2.8330 h4        1 VJK      0.161000
     39 H11        -0.8170    1.6380   -1.6750 hn        1 VJK      0.496300
     40 H12         1.3680   -3.1920   -0.6800 hc        1 VJK      0.050700
     41 H13         1.9730   -1.7100   -1.5190 hc        1 VJK      0.050700
     42 H14         0.1930   -2.0510   -1.4490 hc        1 VJK      0.050700
     43 H15         2.5110    0.4620   -0.5010 hn        1 VJK      0.434800
     44 H16         0.2250    6.9880    0.8200 ha        1 VJK      0.155000
     45 H17        -1.1450    9.0540    1.2750 ha        1 VJK      0.157000
     46 H18        -3.2910    9.4330    0.0330 h4        1 VJK      0.039100
     47 H19        -3.4800    5.5510   -2.8920 hn        1 VJK      0.323700
     48 HN3        -0.2930    0.1620   -2.2950 hn        1 VJK      0.496300
@<TRIPOS>BOND
     1    1    2 1   
     2    1   19 1   
     3    1   29 1   
     4    1   30 1   
     5    2    3 1   
     6    2    4 1   
     7    2   20 1   
     8    3   31 1   
     9    3   32 1   
    10    3   33 1   
    11    4   17 1   
    12    4   18 2   
    13    5    6 1   
    14    5   17 1   
    15    5   34 1   
    16    5   35 1   
    17    6   14 1   
    18    6   15 1   
    19    6   16 1   
    20    7    8 ar  
    21    7   20 1   
    22    7   21 ar  
    23    8    9 ar  
    24    8   36 1   
    25    9   22 ar  
    26    9   37 1   
    27   10   11 1   
    28   10   21 ar  
    29   10   22 ar  
    30   11   12 2   
    31   11   23 1   
    32   12   28 1   
    33   12   38 1   
    34   13   23 ar  
    35   13   27 ar  
    36   13   28 1   
    37   17   39 1   
    38   17   48 1   
    39   19   40 1   
    40   19   41 1   
    41   19   42 1   
    42   20   43 1   
    43   23   24 ar  
    44   24   25 ar  
    45   24   44 1   
    46   25   26 ar  
    47   25   45 1   
    48   26   27 ar  
    49   26   46 1   
    50   28   47 1   
@<TRIPOS>SUBSTRUCTURE
     1 VJK         1 TEMP              0 ****  ****    0 ROOT
