@<TRIPOS>MOLECULE
VJK
   48    50     1     0     0
SMALL
bcc


@<TRIPOS>ATOM
      1 C1          1.0260   -1.3420    0.5440 c3        1 VJK     -0.097400
      2 C2          0.6160    0.1460    0.3650 c3        1 VJK      0.170200
      3 C3          0.4000    0.7410    1.7690 c3        1 VJK     -0.134100
      4 C4         -0.7930    0.1000   -0.2780 c         1 VJK      0.558100
      5 C5         -2.2490    0.2760   -2.2950 c3        1 VJK      0.039800
      6 C6         -2.2570    0.5120   -3.8500 c3        1 VJK      0.630900
      7 C7          1.5570    2.2890   -0.4320 ca        1 VJK      0.622200
      8 C8          2.7190    3.0170   -0.0760 ca        1 VJK     -0.395600
      9 C9          2.6240    4.4240   -0.1190 ca        1 VJK      0.480200
     10 C10         0.4260    4.2980   -0.8370 ca        1 VJK      0.811800
     11 C11        -0.7840    4.9950   -1.2510 cc        1 VJK     -0.237000
     12 C12        -1.6770    4.5840   -2.2540 cd        1 VJK     -0.063100
     13 C13        -2.4870    6.5500   -1.4740 ca        1 VJK      0.415800
     14 F2         -3.4570    0.1850   -4.4070 f         1 VJK     -0.206633
     15 F          -2.0090    1.8150   -4.1890 f         1 VJK     -0.206633
     16 F1         -1.3040   -0.2250   -4.5010 f         1 VJK     -0.206633
     17 N          -0.9330    0.5840   -1.7010 ny        1 VJK     -0.678800
     18 O          -1.8060   -0.3100    0.2660 o         1 VJK     -0.424100
     19 C           1.2120   -2.0870   -0.7500 c3        1 VJK     -0.107100
     20 N1          1.5810    0.8620   -0.4610 nu        1 VJK     -0.856900
     21 N3          0.4090    2.9260   -0.8300 nb        1 VJK     -0.839000
     22 N2          1.5080    5.0720   -0.4740 nb        1 VJK     -0.675000
     23 C14        -1.2670    6.2550   -0.7370 ca        1 VJK     -0.160100
     24 C15        -0.8560    7.1760    0.2330 ca        1 VJK     -0.041000
     25 C16        -1.6370    8.3040    0.4290 ca        1 VJK     -0.253300
     26 C17        -2.8160    8.4970   -0.3430 ca        1 VJK      0.427200
     27 N5         -3.2640    7.6590   -1.2830 nb        1 VJK     -0.653000
     28 N4         -2.7070    5.4980   -2.3870 na        1 VJK     -0.264100
     29 H1          0.2280   -1.8380    1.1610 hc        1 VJK      0.086700
     30 H2          1.9750   -1.3720    1.1430 hc        1 VJK      0.086700
     31 H3         -0.3650    0.1420    2.3210 hc        1 VJK      0.079033
     32 H4          1.3610    0.7040    2.3380 hc        1 VJK      0.079033
     33 H5          0.0530    1.8010    1.7150 hc        1 VJK      0.079033
     34 H6         -2.5150   -0.8040   -2.1050 hx        1 VJK      0.146700
     35 H7         -3.0410    0.9280   -1.8270 hx        1 VJK      0.146700
     36 H8          3.6540    2.5270    0.2190 ha        1 VJK      0.170000
     37 H9          3.4920    5.0580    0.1510 h4        1 VJK      0.056100
     38 H10        -1.6240    3.7090   -2.9060 h4        1 VJK      0.160000
     39 H11        -0.7650    1.6250   -1.6860 hn        1 VJK      0.496300
     40 H12         1.4320   -3.1630   -0.5320 hc        1 VJK      0.050700
     41 H13         2.0620   -1.6790   -1.3480 hc        1 VJK      0.050700
     42 H14         0.2860   -2.0460   -1.3740 hc        1 VJK      0.050700
     43 H15         2.5100    0.5080   -0.3220 hn        1 VJK      0.434800
     44 H16         0.0640    7.0120    0.8140 ha        1 VJK      0.155000
     45 H17        -1.3570    9.0620    1.1740 ha        1 VJK      0.157000
     46 H18        -3.4380    9.3990   -0.1860 h4        1 VJK      0.039100
     47 H19        -3.4140    5.4890   -3.0780 hn        1 VJK      0.323700
     48 HN3        -0.1860    0.1530   -2.2640 hn        1 VJK      0.496300
@<TRIPOS>BOND
     1    1    2 1   
     2    1   19 1   
     3    1   29 1   
     4    1   30 1   
     5    2    3 1   
     6    2    4 1   
     7    2   20 1   
     8    3   31 1   
     9    3   32 1   
    10    3   33 1   
    11    4   17 1   
    12    4   18 2   
    13    5    6 1   
    14    5   17 1   
    15    5   34 1   
    16    5   35 1   
    17    6   14 1   
    18    6   15 1   
    19    6   16 1   
    20    7    8 ar  
    21    7   20 1   
    22    7   21 ar  
    23    8    9 ar  
    24    8   36 1   
    25    9   22 ar  
    26    9   37 1   
    27   10   11 1   
    28   10   21 ar  
    29   10   22 ar  
    30   11   12 2   
    31   11   23 1   
    32   12   28 1   
    33   12   38 1   
    34   13   23 ar  
    35   13   27 ar  
    36   13   28 1   
    37   17   39 1   
    38   17   48 1   
    39   19   40 1   
    40   19   41 1   
    41   19   42 1   
    42   20   43 1   
    43   23   24 ar  
    44   24   25 ar  
    45   24   44 1   
    46   25   26 ar  
    47   25   45 1   
    48   26   27 ar  
    49   26   46 1   
    50   28   47 1   
@<TRIPOS>SUBSTRUCTURE
     1 VJK         1 TEMP              0 ****  ****    0 ROOT
