@<TRIPOS>MOLECULE
VJP
   31    30     1     0     0
SMALL
bcc


@<TRIPOS>ATOM
      1 C          -0.7590   -0.2110   -0.1600 c1        1 VJP      0.037000
      2 N          -0.9190   -0.2360   -1.4750 n3        1 VJP     -0.253000
      3 O           0.2650   -0.6680    5.2850 o         1 VJP     -0.929500
      4 S           1.3930   -0.4210    4.4670 s6        1 VJP      2.858000
      5 C1          2.9340    1.0330   -0.4660 c2        1 VJP     -0.519000
      6 N1          1.9010    1.1760    4.7740 n         1 VJP     -0.768000
      7 O1          2.4760   -1.2880    4.6630 o         1 VJP     -0.929500
      8 C2          1.8620    0.8270   -1.1670 c1        1 VJP      0.096000
      9 C3          0.9390   -0.3770    2.8990 c2        1 VJP     -1.018000
     10 C4         -0.3120   -0.3100    2.3950 c2        1 VJP      0.220000
     11 C5         -0.5800   -0.2680    1.0360 c1        1 VJP     -0.268000
     12 C6          1.3930    1.7990    5.9620 c3        1 VJP     -0.105000
     13 C7          3.4550    3.9840    5.4490 cx        1 VJP     -0.190000
     14 C8          2.5710    4.4180    4.3210 cx        1 VJP     -0.190000
     15 C9          3.4110    3.1750    4.1810 cx        1 VJP     -0.195000
     16 C10         2.8380    1.8130    3.9640 c2        1 VJP      0.371000
     17 HN         -1.7870    0.1110   -1.8200 hn        1 VJP      0.233000
     18 HNA        -0.0990    0.0150   -2.0020 hn        1 VJP      0.233000
     19 H1          3.9220    1.2870   -0.8810 ha        1 VJP      0.214000
     20 H2          2.9600    0.9650    0.6430 ha        1 VJP      0.214000
     21 H4          1.7760   -0.4250    2.1690 h4        1 VJP      0.201000
     22 H5         -1.1930   -0.2790    3.0710 ha        1 VJP      0.152000
     23 H6          0.4910    1.2360    6.3370 h1        1 VJP      0.097000
     24 H6A         2.1680    1.7920    6.7770 h1        1 VJP      0.097000
     25 H7          1.0710    2.8550    5.7670 h1        1 VJP      0.097000
     26 H7A         4.3850    4.5520    5.6470 hc        1 VJP      0.120500
     27 H8          3.0160    3.6110    6.3880 hc        1 VJP      0.120500
     28 H8A         1.4740    4.3290    4.4180 hc        1 VJP      0.120500
     29 H9          2.8530    5.3030    3.7220 hc        1 VJP      0.120500
     30 H9A         4.3140    3.2600    3.5290 hc        1 VJP      0.152000
     31 O2          3.2290    1.1870    2.9510 o         1 VJP     -0.388000
@<TRIPOS>BOND
     1    1    2 1   
     2    1   11 1   
     3    2   17 1   
     4    2   18 1   
     5    3    4 1   
     6    4    6 1   
     7    4    7 1   
     8    4    9 1   
     9    5    8 1   
    10    5   19 1   
    11    5   20 1   
    12    6   12 1   
    13    6   16 1   
    14    9   10 1   
    15    9   21 1   
    16   10   11 1   
    17   10   22 1   
    18   12   23 1   
    19   12   24 1   
    20   12   25 1   
    21   13   14 1   
    22   13   15 1   
    23   13   26 1   
    24   13   27 1   
    25   14   15 1   
    26   14   28 1   
    27   14   29 1   
    28   15   16 1   
    29   15   30 1   
    30   16   31 1   
@<TRIPOS>SUBSTRUCTURE
     1 VJP         1 TEMP              0 ****  ****    0 ROOT
