@<TRIPOS>MOLECULE
VJP
   31    31     1     0     0
SMALL
bcc


@<TRIPOS>ATOM
      1 C          -0.9860   -0.3540   -0.3560 c1        1 VJP      0.037800
      2 N          -1.5510   -0.3150   -1.5620 n8        1 VJP     -0.709400
      3 O           0.6300   -0.6000    4.7420 o         1 VJP     -0.639300
      4 S           1.7750   -0.1970    4.0090 sy        1 VJP      1.481500
      5 C1          2.3340    0.6260    0.2300 c2        1 VJP     -0.204000
      6 N1          2.0960    1.3950    4.4400 n         1 VJP     -0.559200
      7 O1          2.9070   -1.0030    4.1840 o         1 VJP     -0.639300
      8 C2          2.4250    0.1010    1.4530 ce        1 VJP     -0.106000
      9 C3          1.3330   -0.0940    2.3870 ce        1 VJP     -0.379100
     10 C4          0.0360   -0.2570    2.0270 cf        1 VJP      0.181300
     11 C5         -0.4870   -0.2910    0.7440 ch        1 VJP     -0.234300
     12 C6          1.0030    2.1240    5.0130 c3        1 VJP      0.070300
     13 C7          3.2180    3.9290    6.1120 cx        1 VJP     -0.112900
     14 C8          3.2470    4.5750    4.7610 cx        1 VJP     -0.112900
     15 C9          3.8460    3.2060    4.9520 cx        1 VJP     -0.202700
     16 C10         3.3540    1.9850    4.2510 c         1 VJP      0.718100
     17 HN         -0.9270   -0.4660   -2.3270 hn        1 VJP      0.419300
     18 HNA        -2.4280   -0.7870   -1.6360 hn        1 VJP      0.419300
     19 H1          1.3910    0.9740   -0.2100 ha        1 VJP      0.113000
     20 H2          3.2210    0.7500   -0.4060 ha        1 VJP      0.113000
     21 H4          3.4170   -0.2090    1.8470 ha        1 VJP      0.159000
     22 H5         -0.7270   -0.4100    2.8280 ha        1 VJP      0.163000
     23 H6          0.0320    1.7050    4.6230 h1        1 VJP      0.052367
     24 H6A         0.9950    2.0200    6.1330 h1        1 VJP      0.052367
     25 H7          1.0400    3.2100    4.7390 h1        1 VJP      0.052367
     26 H7A         3.9000    4.3060    6.8980 hc        1 VJP      0.080450
     27 H8          2.2620    3.5950    6.5460 hc        1 VJP      0.080450
     28 H8A         3.9360    5.4210    4.5800 hc        1 VJP      0.080450
     29 H9          2.3120    4.6890    4.1850 hc        1 VJP      0.080450
     30 H9A         4.9620    3.1520    4.9610 hc        1 VJP      0.116700
     31 O2          4.1290    1.4130    3.4600 o         1 VJP     -0.572100
@<TRIPOS>BOND
     1    1    2 1   
     2    1   11 3   
     3    2   17 1   
     4    2   18 1   
     5    3    4 2   
     6    4    6 1   
     7    4    7 2   
     8    4    9 1   
     9    5    8 2   
    10    5   19 1   
    11    5   20 1   
    12    6   12 1   
    13    6   16 1   
    14    8    9 1   
    15    8   21 1   
    16    9   10 2   
    17   10   11 1   
    18   10   22 1   
    19   12   23 1   
    20   12   24 1   
    21   12   25 1   
    22   13   14 1   
    23   13   15 1   
    24   13   26 1   
    25   13   27 1   
    26   14   15 1   
    27   14   28 1   
    28   14   29 1   
    29   15   16 1   
    30   15   30 1   
    31   16   31 2   
@<TRIPOS>SUBSTRUCTURE
     1 VJP         1 TEMP              0 ****  ****    0 ROOT
