@<TRIPOS>MOLECULE
VK3
   21    22     1     0     0
SMALL
bcc


@<TRIPOS>ATOM
      1 C1K         1.7260   -0.0000    0.2590 c         1 VK3      0.565900
      2 O1K         2.9260   -0.0010   -0.0430 o         1 VK3     -0.513100
      3 C2K         1.2940    0.0000    1.6680 cc        1 VK3     -0.197200
      4 C3K         0.0040    0.0010    2.0420 cd        1 VK3     -0.116400
      5 C4K        -1.0950    0.0020    1.0420 c         1 VK3      0.566900
      6 O4K        -2.2830    0.0020    1.3900 o         1 VK3     -0.512100
      7 C5K        -0.6990    0.0010   -0.3820 ca        1 VK3     -0.135600
      8 C6K        -1.6920    0.0010   -1.3670 ca        1 VK3     -0.085000
      9 C7K        -1.3430    0.0010   -2.7190 ca        1 VK3     -0.117000
     10 C8K        -0.0020    0.0000   -3.0940 ca        1 VK3     -0.115000
     11 C9K         0.9960   -0.0000   -2.1170 ca        1 VK3     -0.085000
     12 C10         0.6560    0.0000   -0.7610 ca        1 VK3     -0.132600
     13 C11        -0.4140    0.0020    3.4630 c3        1 VK3     -0.066900
     14 H2K1        2.1110    0.0000    2.4090 ha        1 VK3      0.158000
     15 H6K1       -2.7510    0.0020   -1.0610 ha        1 VK3      0.160000
     16 H7K1       -2.1320    0.0010   -3.4860 ha        1 VK3      0.142000
     17 H8K1        0.2760   -0.0000   -4.1590 ha        1 VK3      0.142000
     18 H9K1        2.0620   -0.0010   -2.4020 ha        1 VK3      0.160000
     19 H111        0.4650    0.0020    4.1510 hc        1 VK3      0.060033
     20 H112       -1.0400    0.9060    3.6710 hc        1 VK3      0.060033
     21 H113       -1.0420   -0.9020    3.6720 hc        1 VK3      0.060033
@<TRIPOS>BOND
     1    1    2 2   
     2    1    3 1   
     3    1   12 1   
     4    3    4 2   
     5    3   14 1   
     6    4    5 1   
     7    4   13 1   
     8    5    6 2   
     9    5    7 1   
    10    7    8 ar  
    11    7   12 ar  
    12    8    9 ar  
    13    8   15 1   
    14    9   10 ar  
    15    9   16 1   
    16   10   11 ar  
    17   10   17 1   
    18   11   12 ar  
    19   11   18 1   
    20   13   19 1   
    21   13   20 1   
    22   13   21 1   
@<TRIPOS>SUBSTRUCTURE
     1 VK3         1 TEMP              0 ****  ****    0 ROOT
