@<TRIPOS>MOLECULE
VK3
   21    18     1     0     0
SMALL
bcc


@<TRIPOS>ATOM
      1 C1K        -0.2990    0.0180   -1.8240 c1        1 VK3      0.287500
      2 O1K        -0.9070    0.0160   -2.8770 o         1 VK3     -0.273500
      3 C2K         1.1940    0.0180   -1.8240 c1        1 VK3     -0.178000
      4 C3K         1.9290    0.0180   -0.5470 c1        1 VK3     -0.093000
      5 C4K         1.1780    0.0180    0.7440 c1        1 VK3      0.287500
      6 O4K         1.7820    0.0250    1.7980 o         1 VK3     -0.273500
      7 C5K        -0.3740    0.0180    0.7390 c2        1 VK3     -0.113500
      8 C6K        -1.0750    0.0180    1.9460 c1        1 VK3     -0.085000
      9 C7K        -2.4700    0.0180    1.9430 c1        1 VK3     -0.116000
     10 C8K        -3.1700    0.0180    0.7260 c1        1 VK3     -0.116000
     11 C9K        -2.4720    0.0180   -0.4820 c1        1 VK3     -0.085000
     12 C10        -1.0760    0.0180   -0.4810 c2        1 VK3     -0.113500
     13 C11         3.4400   -0.0630   -0.5430 c3        1 VK3     -0.189000
     14 H2K1        1.6830    0.0180   -2.6690 ha        1 VK3      0.158000
     15 H6K1       -0.5890    0.0180    2.7930 ha        1 VK3      0.160000
     16 H7K1       -2.9600    0.0180    2.7870 ha        1 VK3      0.142000
     17 H8K1       -4.1470    0.0180    0.7250 ha        1 VK3      0.142000
     18 H9K1       -2.9590    0.0180   -1.3270 ha        1 VK3      0.160000
     19 H111        3.7730    0.0370   -1.4550 hc        1 VK3      0.099333
     20 H112        3.7180   -0.9280   -0.1880 hc        1 VK3      0.099333
     21 H113        3.8020    0.6510    0.0160 hc        1 VK3      0.099333
@<TRIPOS>BOND
     1    1    2 1   
     2    1   12 1   
     3    3    4 1   
     4    3   14 1   
     5    4   13 1   
     6    5    6 1   
     7    5    7 1   
     8    7    8 1   
     9    7   12 1   
    10    8   15 1   
    11    9   10 1   
    12    9   16 1   
    13   10   17 1   
    14   11   12 1   
    15   11   18 1   
    16   13   19 1   
    17   13   20 1   
    18   13   21 1   
@<TRIPOS>SUBSTRUCTURE
     1 VK3         1 TEMP              0 ****  ****    0 ROOT
