@<TRIPOS>MOLECULE
VKC
   15    14     1     0     0
SMALL
bcc


@<TRIPOS>ATOM
      1 C           0.1760    0.1510    0.1220 c         1 VKC      0.923600
      2 O           1.0220    1.0700   -0.0370 o         1 VKC     -0.830800
      3 CA         -0.6840    0.1630    1.4140 c3        1 VKC      0.003400
      4 CD          0.5680   -0.1650    4.8380 c3        1 VKC      0.138400
      5 CG         -0.5080   -0.0490    3.7630 c3        1 VKC      0.086400
      6 OAD         0.1740   -0.1100    2.5190 os        1 VKC     -0.407600
      7 OE1         1.5010    0.8940    4.7660 oh        1 VKC     -0.625800
      8 OXT        -0.0790   -0.7580   -0.7150 o         1 VKC     -0.830800
      9 HA         -1.1560    1.1720    1.5430 h1        1 VKC      0.005200
     10 HAA        -1.4830   -0.6210    1.3650 h1        1 VKC      0.005200
     11 HD          0.1090   -0.0890    5.8590 h1        1 VKC      0.030700
     12 HDA         1.1070   -1.1450    4.7350 h1        1 VKC      0.030700
     13 HG         -1.0580    0.9250    3.8610 h1        1 VKC      0.017700
     14 HGA        -1.2400   -0.8940    3.8450 h1        1 VKC      0.017700
     15 HOE1        1.7360    0.9970    3.8320 ho        1 VKC      0.436000
@<TRIPOS>BOND
     1    1    2 1   
     2    1    3 1   
     3    1    8 1   
     4    3    6 1   
     5    3    9 1   
     6    3   10 1   
     7    4    5 1   
     8    4    7 1   
     9    4   11 1   
    10    4   12 1   
    11    5    6 1   
    12    5   13 1   
    13    5   14 1   
    14    7   15 1   
@<TRIPOS>SUBSTRUCTURE
     1 VKC         1 TEMP              0 ****  ****    0 ROOT
