@<TRIPOS>MOLECULE
VKC
   15    14     1     0     0
SMALL
bcc


@<TRIPOS>ATOM
      1 C          -1.8200   -0.3080   -0.0790 c         1 VKC      0.923600
      2 O          -1.7470   -1.3860   -0.7260 o         1 VKC     -0.830800
      3 CA         -0.6930    0.7410   -0.2750 c3        1 VKC      0.003400
      4 CD          2.8440    0.2860    0.5520 c3        1 VKC      0.138400
      5 CG          1.6210    1.0700    0.0860 c3        1 VKC      0.086400
      6 OAD         0.5070    0.2110    0.2810 os        1 VKC     -0.407600
      7 OE1         3.0300   -0.8960   -0.2010 oh        1 VKC     -0.625800
      8 OXT        -2.7700    0.0230    0.6820 o         1 VKC     -0.830800
      9 HA         -0.5480    0.9380   -1.3690 h1        1 VKC      0.005200
     10 HAA        -0.9490    1.6990    0.2470 h1        1 VKC      0.005200
     11 HD          3.7760    0.8890    0.3960 h1        1 VKC      0.030700
     12 HDA         2.7380    0.0230    1.6380 h1        1 VKC      0.030700
     13 HG          1.4990    2.0050    0.6920 h1        1 VKC      0.017700
     14 HGA         1.7200    1.3440   -0.9980 h1        1 VKC      0.017700
     15 HOE1        2.1610   -1.3200   -0.2760 ho        1 VKC      0.436000
@<TRIPOS>BOND
     1    1    2 1   
     2    1    3 1   
     3    1    8 1   
     4    3    6 1   
     5    3    9 1   
     6    3   10 1   
     7    4    5 1   
     8    4    7 1   
     9    4   11 1   
    10    4   12 1   
    11    5    6 1   
    12    5   13 1   
    13    5   14 1   
    14    7   15 1   
@<TRIPOS>SUBSTRUCTURE
     1 VKC         1 TEMP              0 ****  ****    0 ROOT
