@<TRIPOS>MOLECULE
VKC
   15    14     1     0     0
SMALL
bcc


@<TRIPOS>ATOM
      1 C           0.2080    0.1500    0.1240 c         1 VKC      0.923600
      2 O           1.1880    0.9280   -0.0150 o         1 VKC     -0.830800
      3 CA         -0.6530    0.2810    1.4090 c3        1 VKC      0.003400
      4 CD          0.5000   -0.2650    4.8400 c3        1 VKC      0.138400
      5 CG         -0.5340    0.0230    3.7570 c3        1 VKC      0.086400
      6 OAD         0.1420   -0.1300    2.5180 os        1 VKC     -0.407600
      7 OE1         1.5850    0.6400    4.7860 oh        1 VKC     -0.625800
      8 OXT        -0.1770   -0.6980   -0.7260 o         1 VKC     -0.830800
      9 HA         -0.9670    1.3480    1.5450 h1        1 VKC      0.005200
     10 HAA        -1.5620   -0.3720    1.3450 h1        1 VKC      0.005200
     11 HD          0.0490   -0.1290    5.8570 h1        1 VKC      0.030700
     12 HDA         0.8850   -1.3140    4.7310 h1        1 VKC      0.030700
     13 HG         -0.9320    1.0670    3.8610 h1        1 VKC      0.017700
     14 HGA        -1.3870   -0.7030    3.8250 h1        1 VKC      0.017700
     15 HOE1        1.8420    0.7140    3.8540 ho        1 VKC      0.436000
@<TRIPOS>BOND
     1    1    2 1   
     2    1    3 1   
     3    1    8 1   
     4    3    6 1   
     5    3    9 1   
     6    3   10 1   
     7    4    5 1   
     8    4    7 1   
     9    4   11 1   
    10    4   12 1   
    11    5    6 1   
    12    5   13 1   
    13    5   14 1   
    14    7   15 1   
@<TRIPOS>SUBSTRUCTURE
     1 VKC         1 TEMP              0 ****  ****    0 ROOT
