@<TRIPOS>MOLECULE
VL4
   66    69     1     0     0
SMALL
bcc


@<TRIPOS>ATOM
      1 C1         -6.0560   -2.4130    2.4330 ca        1 VL4     -0.150000
      2 C2         -5.3770   -3.5710    2.0500 ca        1 VL4     -0.136000
      3 C3         -5.8670   -1.2350    1.7180 ca        1 VL4     -0.097000
      4 C4         -4.5050   -3.5360    0.9670 ca        1 VL4     -0.137000
      5 C5          1.2560   -2.4640   -1.4110 ca        1 VL4     -0.147000
      6 C6          2.6000   -2.2610   -1.1230 ca        1 VL4     -0.164000
      7 C7         -4.9880   -1.1950    0.6260 ca        1 VL4     -0.092600
      8 C8          0.7130   -0.1760   -0.7690 ca        1 VL4     -0.059600
      9 C9         -4.2900   -2.3480    0.2520 ca        1 VL4     -0.036300
     10 C10         0.3190   -1.4390   -1.2350 ca        1 VL4     -0.099300
     11 C11         3.0100   -1.0080   -0.6480 ca        1 VL4      0.060100
     12 C12         2.0720    0.0310   -0.4780 ca        1 VL4      0.068100
     13 C15        -4.9310    0.0980   -0.1350 c         1 VL4      0.645700
     14 C17         8.2640    1.5870    1.1750 c         1 VL4      0.908600
     15 C18        -2.7210    4.9420    0.5410 cy        1 VL4     -0.095400
     16 C19        -3.7640    4.6190   -0.5490 cy        1 VL4     -0.096400
     17 C20        -2.9440    3.5510    1.1700 cy        1 VL4     -0.096400
     18 C21         3.8670    1.5100   -0.1260 c3        1 VL4      0.094400
     19 C22        -4.0130    3.2340    0.0960 cy        1 VL4     -0.092700
     20 C23         4.6870    0.3230    0.3690 c3        1 VL4      0.103100
     21 C24        -3.3300   -2.3640   -0.9070 c3        1 VL4      0.215100
     22 C25        -1.1160   -1.6890   -1.6010 c3        1 VL4      0.225100
     23 C26        -1.3970   -3.2680    0.2400 c3        1 VL4      0.159100
     24 C28        -3.6600    2.0740   -0.8230 c3        1 VL4      0.074000
     25 C29         6.1870    0.5380    0.2100 c3        1 VL4     -0.062400
     26 N30        -3.7530    0.7770   -0.2020 n         1 VL4     -0.514900
     27 N31        -1.9480   -2.1620   -0.4980 n3        1 VL4     -0.723600
     28 O32        -0.8960    1.0950    0.4830 o         1 VL4     -0.835800
     29 O33         8.6290    2.0990    0.0770 o         1 VL4     -0.856300
     30 O34        -5.9870    0.5190   -0.6760 o         1 VL4     -0.677100
     31 O35        -0.6340    1.5760   -1.6710 o         1 VL4     -0.835800
     32 O36         9.0600    1.3320    2.1250 o         1 VL4     -0.856300
     33 O37         2.4640    1.2670    0.0110 os        1 VL4     -0.298900
     34 O38         4.3630   -0.8530   -0.4030 os        1 VL4     -0.333900
     35 H1         -6.7390   -2.4330    3.2930 ha        1 VL4      0.116000
     36 H2         -5.5270   -4.5070    2.6060 ha        1 VL4      0.114000
     37 H3         -6.4150   -0.3210    1.9950 ha        1 VL4      0.139000
     38 H4         -3.9670   -4.4480    0.6660 ha        1 VL4      0.126000
     39 H5          0.9250   -3.4440   -1.7820 ha        1 VL4      0.105000
     40 H6          3.3440   -3.0560   -1.2610 ha        1 VL4      0.126000
     41 H241       -3.4620   -3.3490   -1.4520 h1        1 VL4      0.035700
     42 H242       -3.6140   -1.5460   -1.6290 h1        1 VL4      0.035700
     43 H251       -1.5650   -0.7130   -1.9580 h1        1 VL4      0.043200
     44 H252       -1.1420   -2.4240   -2.4620 h1        1 VL4      0.043200
     45 H30        -2.9130    0.4320    0.2310 hn        1 VL4      0.380500
     46 H271        6.6510    0.6770    2.3250 hc        1 VL4      0.023200
     47 H272        6.2360    2.2510    1.5320 hc        1 VL4      0.023200
     48 H181       -1.6930    5.0940    0.1490 hc        1 VL4      0.037200
     49 H182       -3.0020    5.7920    1.1970 hc        1 VL4      0.037200
     50 H191       -4.6520    5.2850   -0.5430 hc        1 VL4      0.055700
     51 H192       -3.3410    4.5660   -1.5740 hc        1 VL4      0.055700
     52 H201       -2.0540    2.8760    1.1110 hc        1 VL4      0.055700
     53 H202       -3.3390    3.5800    2.2060 hc        1 VL4      0.055700
     54 H22        -5.0420    3.1240    0.5100 hc        1 VL4      0.040700
     55 H211        4.0510    2.4160    0.5070 h1        1 VL4      0.065200
     56 H212        4.0990    1.7280   -1.2010 h1        1 VL4      0.065200
     57 H23         4.4220    0.1020    1.4400 h1        1 VL4      0.053700
     58 H281       -4.3500    2.1070   -1.7130 h1        1 VL4      0.089200
     59 H282       -2.5820    2.1910   -1.1690 h1        1 VL4      0.089200
     60 H291        6.6840   -0.4630    0.1100 hc        1 VL4      0.058200
     61 H292        6.4000    1.1090   -0.7310 hc        1 VL4      0.058200
     62 H261       -1.4040   -4.2370   -0.3370 h1        1 VL4      0.026033
     63 H262       -0.3380   -3.0290    0.5250 h1        1 VL4      0.026033
     64 H263       -1.9950   -3.4130    1.1790 h1        1 VL4      0.026033
     65 C27         6.7710    1.2780    1.3880 c3        1 VL4     -0.193400
     66 C16        -0.3270    0.9200   -0.6330 c         1 VL4      0.928200
@<TRIPOS>BOND
     1    1    2 ar  
     2    1    3 ar  
     3    1   35 1   
     4    2    4 ar  
     5    2   36 1   
     6    3    7 ar  
     7    3   37 1   
     8    4    9 ar  
     9    4   38 1   
    10    5    6 ar  
    11    5   10 ar  
    12    5   39 1   
    13    6   11 ar  
    14    6   40 1   
    15    7    9 ar  
    16    7   13 1   
    17    8   10 ar  
    18    8   12 ar  
    19    8   66 1   
    20    9   21 1   
    21   10   22 1   
    22   11   12 ar  
    23   11   34 1   
    24   12   33 1   
    25   13   26 1   
    26   13   30 2   
    27   14   29 1   
    28   14   32 1   
    29   14   65 1   
    30   15   16 1   
    31   15   17 1   
    32   15   48 1   
    33   15   49 1   
    34   16   19 1   
    35   16   50 1   
    36   16   51 1   
    37   17   19 1   
    38   17   52 1   
    39   17   53 1   
    40   18   20 1   
    41   18   33 1   
    42   18   55 1   
    43   18   56 1   
    44   19   24 1   
    45   19   54 1   
    46   20   25 1   
    47   20   34 1   
    48   20   57 1   
    49   21   27 1   
    50   21   41 1   
    51   21   42 1   
    52   22   27 1   
    53   22   43 1   
    54   22   44 1   
    55   23   27 1   
    56   23   62 1   
    57   23   63 1   
    58   23   64 1   
    59   24   26 1   
    60   24   58 1   
    61   24   59 1   
    62   25   60 1   
    63   25   61 1   
    64   25   65 1   
    65   26   45 1   
    66   28   66 1   
    67   31   66 1   
    68   46   65 1   
    69   47   65 1   
@<TRIPOS>SUBSTRUCTURE
     1 VL4         1 TEMP              0 ****  ****    0 ROOT
