@<TRIPOS>MOLECULE
VL4
   66    63     1     0     0
SMALL
bcc


@<TRIPOS>ATOM
      1 C1         -0.2640    3.6340    1.3750 c3        1 VL4     -0.070000
      2 C2         -1.6060    4.1780    1.8520 c3        1 VL4     -0.160000
      3 C3          0.0430    2.3770    1.9850 c1        1 VL4     -0.129000
      4 C4         -2.0160    5.4430    1.3270 c1        1 VL4     -0.024000
      5 C5          1.9070   -6.8880    5.4500 c2        1 VL4     -0.116000
      6 C6          1.5630   -7.2830    6.6630 c1        1 VL4     -0.287000
      7 C7          0.2980    1.3270    2.4980 c1        1 VL4     -0.129000
      8 C8          0.8770   -4.7400    6.1200 c2        1 VL4     -0.161000
      9 C9         -1.4420    6.3130    0.4790 c1        1 VL4     -0.152000
     10 C10         1.9450   -5.3930    5.2660 c3        1 VL4     -0.088000
     11 C11         1.0620   -6.5710    7.7000 c2        1 VL4      0.169000
     12 C12         0.3620   -5.3470    7.2230 c2        1 VL4      0.018000
     13 C15         0.6220    0.0640    3.1050 c2        1 VL4      0.429000
     14 C17         0.2050   -7.7280   13.6390 c2        1 VL4      0.345000
     15 C18        -1.5150   -6.1390    1.6240 c3        1 VL4     -0.220000
     16 C19        -3.2060   -0.1550    6.1250 c1        1 VL4     -0.220000
     17 C20        -0.1830   -5.7270    2.1760 c3        1 VL4     -0.220000
     18 C21        -1.4420   -3.8250    7.5710 c3        1 VL4     -0.093000
     19 C22        -2.2920   -0.0340    5.3530 c1        1 VL4     -0.132000
     20 C23         0.3860   -6.4020    9.9830 c3        1 VL4      0.012000
     21 C24        -1.0830    7.2100   -0.2600 c1        1 VL4     -0.190000
     22 C25         3.3430   -4.8110    5.5270 c3        1 VL4     -0.055000
     23 C26         3.3060   -2.9890    3.9220 c3        1 VL4     -0.129000
     24 C28        -1.3310    0.3100    4.3960 c1        1 VL4     -0.049000
     25 C29         0.7190   -7.0810   11.2640 c2        1 VL4     -0.202000
     26 N30        -0.2690   -0.4200    4.1030 n         1 VL4     -0.189000
     27 N31         3.5500   -3.4030    5.2800 n3        1 VL4     -0.314000
     28 O32        -0.2890   -3.3650    4.5350 o         1 VL4     -0.579500
     29 O33         1.3270   -8.2820   13.8220 o         1 VL4     -0.584000
     30 O34         1.6280   -0.5840    2.7810 o         1 VL4     -0.288000
     31 O35         0.8540   -2.3280    6.1020 o         1 VL4     -0.579500
     32 O36        -0.7010   -7.6910   14.5260 o         1 VL4     -0.584000
     33 O37        -0.6890   -4.9490    8.0190 os        1 VL4     -0.223000
     34 O38         1.3170   -6.8970    8.9910 os        1 VL4     -0.176000
     35 H1          0.5480    4.3750    1.6160 hc        1 VL4      0.098500
     36 H2         -2.4280    3.4340    1.6210 hc        1 VL4      0.165500
     37 H3         -0.2830    3.5140    0.2560 hc        1 VL4      0.098500
     38 H4         -1.6070    4.2690    2.9810 hc        1 VL4      0.165500
     39 H5          1.6530   -5.1940    4.1900 hc        1 VL4      0.124000
     40 H6          2.0430   -7.5320    4.5780 ha        1 VL4      0.121000
     41 H241       -0.7810    7.9960   -0.9010 ha        1 VL4      0.219000
     42 H242        2.9740   -2.8570    5.9060 hn        1 VL4      0.195000
     43 H251        3.6040   -5.0030    6.6060 h1        1 VL4      0.080000
     44 H252        4.0670   -5.3880    4.8850 h1        1 VL4      0.080000
     45 H30        -0.0160   -1.3210    4.5310 hn        1 VL4      0.312000
     46 H271       -1.0820   -6.5670   12.2790 ha        1 VL4      0.095000
     47 H272       -0.6610   -6.6250    9.6480 h1        1 VL4      0.088500
     48 H181        0.2970   -6.5760    2.7230 hc        1 VL4      0.072667
     49 H182       -0.3000   -4.8740    2.8990 hc        1 VL4      0.072667
     50 H191       -2.2210   -6.3810    2.4560 hc        1 VL4      0.072667
     51 H192       -1.9630   -5.3120    1.0200 hc        1 VL4      0.072667
     52 H201       -1.4210   -7.0380    0.9680 hc        1 VL4      0.072667
     53 H202       -4.0020   -0.2790    6.8120 ha        1 VL4      0.209000
     54 H22         0.5040   -5.4070    1.3570 hc        1 VL4      0.072667
     55 H211       -2.3120   -3.7990    8.2730 h1        1 VL4      0.092333
     56 H212       -1.7820   -3.9700    6.5140 h1        1 VL4      0.092333
     57 H23        -0.8290   -2.8930    7.6550 h1        1 VL4      0.092333
     58 H281       -2.8150   -4.8370    4.2480 ha        1 VL4     -0.000500
     59 H282       -2.1850   -4.5850    4.2910 ha        1 VL4     -0.000500
     60 H291        1.6930   -7.5940   11.3090 ha        1 VL4      0.151000
     61 H292        0.5210   -5.2890   10.0570 h1        1 VL4      0.088500
     62 H261        3.8920   -3.6330    3.2160 h1        1 VL4      0.065667
     63 H262        2.2180   -3.0270    3.6270 h1        1 VL4      0.065667
     64 H263        3.6470   -1.9250    3.8120 h1        1 VL4      0.065667
     65 C27        -0.1030   -7.0700   12.3150 c2        1 VL4     -0.182000
     66 C16         0.4450   -3.4070    5.5730 c2        1 VL4      0.353000
@<TRIPOS>BOND
     1    1    2 1   
     2    1    3 1   
     3    1   35 1   
     4    1   37 1   
     5    2    4 1   
     6    2   36 1   
     7    2   38 1   
     8    3    7 1   
     9    4    9 1   
    10    5    6 1   
    11    5   10 1   
    12    5   40 1   
    13    6   11 1   
    14    7   13 1   
    15    8   10 1   
    16    8   12 1   
    17    8   66 1   
    18    9   21 1   
    19   10   22 1   
    20   10   39 1   
    21   11   12 1   
    22   11   34 1   
    23   12   33 1   
    24   13   26 1   
    25   13   30 1   
    26   14   29 1   
    27   14   32 1   
    28   14   65 1   
    29   15   17 1   
    30   15   50 1   
    31   15   51 1   
    32   15   52 1   
    33   16   19 1   
    34   16   53 1   
    35   17   48 1   
    36   17   49 1   
    37   17   54 1   
    38   18   33 1   
    39   18   55 1   
    40   18   56 1   
    41   18   57 1   
    42   19   24 1   
    43   20   25 1   
    44   20   34 1   
    45   20   47 1   
    46   20   61 1   
    47   21   41 1   
    48   22   27 1   
    49   22   43 1   
    50   22   44 1   
    51   23   27 1   
    52   23   62 1   
    53   23   63 1   
    54   23   64 1   
    55   24   26 1   
    56   25   60 1   
    57   25   65 1   
    58   26   45 1   
    59   27   42 1   
    60   28   66 1   
    61   31   66 1   
    62   46   65 1   
    63   58   59 1   
@<TRIPOS>SUBSTRUCTURE
     1 VL4         1 TEMP              0 ****  ****    0 ROOT
