@<TRIPOS>MOLECULE
VLL
   17    16     1     0     0
SMALL
bcc


@<TRIPOS>ATOM
      1 N          -0.3190    1.9130    0.1360 n3        1 VLL     -0.902800
      2 CA         -0.1200    0.4810    0.3300 c3        1 VLL     -0.015500
      3 CB         -1.2060   -0.3740   -0.3900 c3        1 VLL      0.169500
      4 CG1        -1.1630   -1.7810    0.2060 c3        1 VLL     -0.091100
      5 C           1.2840   -0.0060   -0.1610 c         1 VLL      0.888600
      6 OXT         1.8400   -0.9410    0.4790 o         1 VLL     -0.841800
      7 O           1.7900    0.5790   -1.1610 o         1 VLL     -0.841800
      8 NG2        -2.5580    0.1710   -0.3650 n3        1 VLL     -0.902800
      9 HN1         0.3970    2.3920    0.6540 hn        1 VLL      0.333300
     10 HN2        -0.1510    2.1180   -0.8360 hn        1 VLL      0.333300
     11 HA         -0.1910    0.2780    1.4360 h1        1 VLL      0.041700
     12 HB         -0.9050   -0.4440   -1.4780 h1        1 VLL      0.058700
     13 HG11       -1.7790   -2.4830   -0.4030 hc        1 VLL      0.036033
     14 HG12       -0.0990   -2.1300    0.2190 hc        1 VLL      0.036033
     15 HG13       -1.5490   -1.7860    1.2540 hc        1 VLL      0.036033
     16 HG21       -2.8240    0.3540    0.5840 hn        1 VLL      0.330800
     17 HG22       -2.5740    1.0450   -0.8560 hn        1 VLL      0.330800
@<TRIPOS>BOND
     1    1    2 1   
     2    1    9 1   
     3    1   10 1   
     4    2    3 1   
     5    2    5 1   
     6    2   11 1   
     7    3    4 1   
     8    3    8 1   
     9    3   12 1   
    10    4   13 1   
    11    4   14 1   
    12    4   15 1   
    13    5    6 1   
    14    5    7 1   
    15    8   16 1   
    16    8   17 1   
@<TRIPOS>SUBSTRUCTURE
     1 VLL         1 TEMP              0 ****  ****    0 ROOT
