@<TRIPOS>MOLECULE
VLM
   20    19     1     0     0
SMALL
bcc


@<TRIPOS>ATOM
      1 N          -0.0300    1.4420    0.8860 n3        1 VLM     -0.907800
      2 CA         -0.1290    0.0510    0.4910 c3        1 VLM      0.096500
      3 C           1.2330   -0.4100   -0.0770 c         1 VLM      0.657100
      4 O           1.3740   -0.7730   -1.2620 o         1 VLM     -0.617100
      5 CB         -1.2470   -0.2990   -0.5170 c3        1 VLM     -0.096700
      6 CG1        -1.4560   -1.7990   -0.5490 c3        1 VLM     -0.094600
      7 CG2        -2.5430    0.4000   -0.1690 c3        1 VLM     -0.094600
      8 NT          2.2920   -0.4420    0.7950 n         1 VLM     -0.656000
      9 H           0.1060    2.0280    0.0840 hn        1 VLM      0.356300
     10 H2         -0.8700    1.7260    1.3530 hn        1 VLM      0.356300
     11 HA         -0.3280   -0.5460    1.4340 h1        1 VLM      0.072700
     12 HB         -0.9120    0.0350   -1.5400 hc        1 VLM      0.076700
     13 HG11       -2.2220   -2.0610   -1.3190 hc        1 VLM      0.038033
     14 HG12       -0.5000   -2.3140   -0.8120 hc        1 VLM      0.038033
     15 HG13       -1.8100   -2.1720    0.4420 hc        1 VLM      0.038033
     16 HG21       -2.4780    1.4970   -0.3660 hc        1 VLM      0.038033
     17 HG22       -3.3750   -0.0110   -0.7930 hc        1 VLM      0.038033
     18 HG23       -2.8040    0.2430    0.9060 hc        1 VLM      0.038033
     19 HNT1        2.2230    0.0080    1.6720 hn        1 VLM      0.311000
     20 HNT2        3.1950   -0.6530    0.4460 hn        1 VLM      0.311000
@<TRIPOS>BOND
     1    1    2 1   
     2    1    9 1   
     3    1   10 1   
     4    2    3 1   
     5    2    5 1   
     6    2   11 1   
     7    3    4 2   
     8    3    8 1   
     9    5    6 1   
    10    5    7 1   
    11    5   12 1   
    12    6   13 1   
    13    6   14 1   
    14    6   15 1   
    15    7   16 1   
    16    7   17 1   
    17    7   18 1   
    18    8   19 1   
    19    8   20 1   
@<TRIPOS>SUBSTRUCTURE
     1 VLM         1 TEMP              0 ****  ****    0 ROOT
