@<TRIPOS>MOLECULE
VLT
   27    27     1     0     0
SMALL
bcc


@<TRIPOS>ATOM
      1 N          -0.6110    1.5640   -0.6150 n3        1 VLT     -0.902800
      2 CA         -0.7490    0.1190   -0.4890 c3        1 VLT      0.197700
      3 C2         -2.1490   -0.4060   -0.3460 c2        1 VLT     -0.256200
      4 C3          0.0870   -0.4400    0.6820 c3        1 VLT     -0.031100
      5 C4          1.5520   -0.3390    0.4440 ca        1 VLT     -0.082300
      6 C5          2.2300    0.8640    0.6750 ca        1 VLT     -0.087500
      7 C6          2.2730   -1.4520   -0.0070 ca        1 VLT     -0.087500
      8 C7          3.6030    0.9590    0.4660 ca        1 VLT     -0.189000
      9 C8          3.6460   -1.3790   -0.2210 ca        1 VLT     -0.189000
     10 C9          4.3080   -0.1660    0.0190 ca        1 VLT      0.101100
     11 O1          5.6710   -0.1480   -0.2030 oh        1 VLT     -0.511100
     12 C10        -3.2440    0.3140   -0.1060 ce        1 VLT     -0.196200
     13 C          -4.6240   -0.3000    0.0150 c         1 VLT      0.893800
     14 O          -4.7520   -1.5530   -0.0960 o         1 VLT     -0.836800
     15 OXT        -5.5870    0.4930    0.2260 o         1 VLT     -0.836800
     16 H          -1.1920    1.8790   -1.3700 hn        1 VLT      0.339300
     17 H1         -0.3220   -0.3150   -1.4460 h1        1 VLT      0.049700
     18 H3         -2.2390   -1.5000   -0.4610 ha        1 VLT      0.141000
     19 H4         -0.1810    0.1010    1.6290 hc        1 VLT      0.053200
     20 H5         -0.2010   -1.5160    0.8200 hc        1 VLT      0.053200
     21 H6          1.6660    1.7480    1.0120 ha        1 VLT      0.139000
     22 H7          1.7460   -2.4000   -0.1970 ha        1 VLT      0.139000
     23 H8          4.1290    1.9070    0.6440 ha        1 VLT      0.130000
     24 H9          4.2150   -2.2490   -0.5750 ha        1 VLT      0.130000
     25 H10         5.9790    0.7540   -0.0390 ho        1 VLT      0.409000
     26 H11        -3.2330    1.4070    0.0240 ha        1 VLT      0.092000
     27 H2         -0.9380    2.0080    0.2240 hn        1 VLT      0.339300
@<TRIPOS>BOND
     1    1    2 1   
     2    1   16 1   
     3    1   27 1   
     4    2    3 1   
     5    2    4 1   
     6    2   17 1   
     7    3   12 2   
     8    3   18 1   
     9    4    5 1   
    10    4   19 1   
    11    4   20 1   
    12    5    6 ar  
    13    5    7 ar  
    14    6    8 ar  
    15    6   21 1   
    16    7    9 ar  
    17    7   22 1   
    18    8   10 ar  
    19    8   23 1   
    20    9   10 ar  
    21    9   24 1   
    22   10   11 1   
    23   11   25 1   
    24   12   13 1   
    25   12   26 1   
    26   13   14 1   
    27   13   15 1   
@<TRIPOS>SUBSTRUCTURE
     1 VLT         1 TEMP              0 ****  ****    0 ROOT
