@<TRIPOS>MOLECULE
VLT
   27    24     1     0     0
SMALL
bcc


@<TRIPOS>ATOM
      1 N          -2.4240    0.0400    1.2120 n3        1 VLT     -0.342000
      2 CA         -0.9960    0.0460    1.2490 c3        1 VLT      0.016000
      3 C2         -0.5360    0.0870    2.6880 c2        1 VLT     -0.206000
      4 C3         -0.4690    1.2770    0.5020 c3        1 VLT     -0.124000
      5 C4          0.2720    0.8410   -0.7480 c2        1 VLT     -0.076000
      6 C5         -0.4010    0.7470   -1.9440 c2        1 VLT     -0.092000
      7 C6          1.6480    0.5870   -0.6980 c1        1 VLT     -0.096000
      8 C7          0.2890    0.3970   -3.1130 c1        1 VLT     -0.161000
      9 C8          2.3370    0.2380   -1.8600 c1        1 VLT     -0.213000
     10 C9          1.6570    0.1440   -3.0640 c1        1 VLT      0.054000
     11 O1          2.3590   -0.2100   -4.2480 oh        1 VLT     -0.266000
     12 C10        -0.4160   -1.0710    3.3950 c1        1 VLT     -0.173000
     13 C          -0.7450   -2.4170    2.7260 c1        1 VLT      0.344000
     14 O          -1.9020   -2.8970    2.8160 o         1 VLT     -0.576500
     15 OXT         0.1560   -3.0420    2.0690 o         1 VLT     -0.576500
     16 H          -2.7180    0.8010    0.8170 hn        1 VLT      0.153000
     17 H1         -0.6470   -0.7860    0.8100 h1        1 VLT      0.084000
     18 H3         -0.3270    0.9530    3.1170 ha        1 VLT      0.085000
     19 H4          0.1000    1.7410    1.0480 hc        1 VLT      0.081500
     20 H5         -1.2320    1.8580    0.2460 hc        1 VLT      0.081500
     21 H6         -1.3360    0.9200   -1.9770 ha        1 VLT      0.149000
     22 H7          2.1070    0.6490    0.1160 ha        1 VLT      0.136000
     23 H8         -0.1890    0.3290   -3.9590 ha        1 VLT      0.138000
     24 H9          3.3140    0.0580   -1.8240 ha        1 VLT      0.122000
     25 H10         2.9290    0.4470   -4.4650 ho        1 VLT      0.208000
     26 H11        -0.1100   -1.0470    4.3600 ha        1 VLT      0.100000
     27 H2         -2.7190   -0.6900    0.7270 hn        1 VLT      0.153000
@<TRIPOS>BOND
     1    1    2 1   
     2    1   16 1   
     3    1   27 1   
     4    2    3 1   
     5    2    4 1   
     6    2   17 1   
     7    3   12 1   
     8    3   18 1   
     9    4    5 1   
    10    4   19 1   
    11    4   20 1   
    12    5    6 1   
    13    5    7 1   
    14    6    8 1   
    15    6   21 1   
    16    7   22 1   
    17    8   23 1   
    18    9   10 1   
    19    9   24 1   
    20   10   11 1   
    21   11   25 1   
    22   12   26 1   
    23   13   14 1   
    24   13   15 1   
@<TRIPOS>SUBSTRUCTURE
     1 VLT         1 TEMP              0 ****  ****    0 ROOT
