@<TRIPOS>MOLECULE
VM1
   20    21     1     0     0
SMALL
bcc


@<TRIPOS>ATOM
      1 O1A        -0.1070   -0.2090   -0.0710 o         1 VM1     -0.824300
      2 C1B         1.1510   -0.1300    0.0060 c         1 VM1      0.913200
      3 O1C         1.8060   -0.1160    1.0850 o         1 VM1     -0.824300
      4 S1D        -0.2460    0.2420   -5.2000 ss        1 VM1      0.034200
      5 C1E        -0.1940    0.0900   -6.8570 cc        1 VM1     -0.207100
      6 C1F         1.0860   -0.1490   -7.3090 cd        1 VM1     -0.158000
      7 C1G         1.9330   -0.0440   -1.2950 ca        1 VM1     -0.231900
      8 C1H         1.2870   -0.0690   -2.5300 ca        1 VM1     -0.072000
      9 C1I         2.0450    0.0170   -3.7120 ca        1 VM1     -0.173300
     10 C1J         1.4150   -0.0000   -5.0050 cc        1 VM1     -0.003100
     11 C1K         2.0230   -0.2030   -6.2340 cd        1 VM1     -0.186000
     12 C1L         3.3400    0.0650   -1.2840 ca        1 VM1      0.415200
     13 N1M         4.0910    0.1490   -2.4000 nb        1 VM1     -0.706000
     14 C1N         3.4480    0.1270   -3.5820 ca        1 VM1      0.388200
     15 H1H         0.1880   -0.1590   -2.5520 ha        1 VM1      0.158000
     16 H1K         3.0880   -0.3900   -6.3790 ha        1 VM1      0.147000
     17 H1L         3.8690    0.0830   -0.3120 h4        1 VM1      0.041100
     18 H1N         4.0880    0.2040   -4.4780 h4        1 VM1     -0.003900
     19 H1E        -1.0790    0.1710   -7.4840 h4        1 VM1      0.157000
     20 H1F         1.3700   -0.2860   -8.3530 ha        1 VM1      0.136000
@<TRIPOS>BOND
     1    1    2 1   
     2    2    3 1   
     3    2    7 1   
     4    4    5 1   
     5    4   10 1   
     6    5    6 2   
     7    5   19 1   
     8    6   11 1   
     9    6   20 1   
    10    7    8 ar  
    11    7   12 ar  
    12    8    9 ar  
    13    8   15 1   
    14    9   10 1   
    15    9   14 ar  
    16   10   11 2   
    17   11   16 1   
    18   12   13 ar  
    19   12   17 1   
    20   13   14 ar  
    21   14   18 1   
@<TRIPOS>SUBSTRUCTURE
     1 VM1         1 TEMP              0 ****  ****    0 ROOT
