@<TRIPOS>MOLECULE
VM1
   20    21     1     0     0
SMALL
bcc


@<TRIPOS>ATOM
      1 O1A         2.7990   -2.1500   -0.1660 o         1 VM1     -0.824300
      2 C1B         3.1240   -0.9310   -0.1000 c         1 VM1      0.913200
      3 O1C         4.3110   -0.5020   -0.0940 o         1 VM1     -0.824300
      4 S1D        -2.2540   -1.2680    0.2950 ss        1 VM1      0.034200
      5 C1E        -3.8690   -0.8910    0.1460 cc        1 VM1     -0.207100
      6 C1F        -4.0600    0.4510   -0.1060 cd        1 VM1     -0.158000
      7 C1G         2.0030    0.0930   -0.0200 ca        1 VM1     -0.231900
      8 C1H         0.6650   -0.2960   -0.0360 ca        1 VM1     -0.072000
      9 C1I        -0.3440    0.6820    0.0440 ca        1 VM1     -0.173300
     10 C1J        -1.7360    0.3190    0.0360 cc        1 VM1     -0.003100
     11 C1K        -2.8210    1.1560   -0.1710 cd        1 VM1     -0.186000
     12 C1L         2.2920    1.4720    0.0740 ca        1 VM1      0.415200
     13 N1M         1.3470    2.4290    0.1530 nb        1 VM1     -0.706000
     14 C1N         0.0610    2.0330    0.1390 ca        1 VM1      0.388200
     15 H1H         0.4250   -1.3700   -0.1140 ha        1 VM1      0.158000
     16 H1K        -2.7530    2.2270   -0.3690 ha        1 VM1      0.147000
     17 H1L         3.3490    1.7980    0.0860 h4        1 VM1      0.041100
     18 H1N        -0.6900    2.8370    0.2110 h4        1 VM1     -0.003900
     19 H1E        -4.6580   -1.6330    0.2370 h4        1 VM1      0.157000
     20 H1F        -5.0280    0.9340   -0.2440 ha        1 VM1      0.136000
@<TRIPOS>BOND
     1    1    2 1   
     2    2    3 1   
     3    2    7 1   
     4    4    5 1   
     5    4   10 1   
     6    5    6 2   
     7    5   19 1   
     8    6   11 1   
     9    6   20 1   
    10    7    8 ar  
    11    7   12 ar  
    12    8    9 ar  
    13    8   15 1   
    14    9   10 1   
    15    9   14 ar  
    16   10   11 2   
    17   11   16 1   
    18   12   13 ar  
    19   12   17 1   
    20   13   14 ar  
    21   14   18 1   
@<TRIPOS>SUBSTRUCTURE
     1 VM1         1 TEMP              0 ****  ****    0 ROOT
