@<TRIPOS>MOLECULE
VM2
   44    45     1     0     0
SMALL
bcc


@<TRIPOS>ATOM
      1 C1          0.1090   -0.0010    0.0700 c3        1 VM2     -0.091700
      2 C2          1.6180   -0.0940   -0.1410 c3        1 VM2     -0.077400
      3 C3          2.3480   -0.0660    1.1860 c3        1 VM2     -0.077900
      4 C4          1.8650   -1.1670    2.1050 c3        1 VM2     -0.083400
      5 C5          0.3650   -1.0950    2.3060 c3        1 VM2     -0.077900
      6 C6         -0.3720   -1.1210    0.9810 c3        1 VM2     -0.077400
      7 C2B        -2.9320   -1.3610   -3.0120 c3        1 VM2      0.134100
      8 C3B        -3.9830   -1.2460   -4.1360 c3        1 VM2      0.108100
      9 C4B        -4.7450    0.0780   -3.8880 c3        1 VM2      0.124100
     10 C5B        -4.0470    0.8050   -2.7110 c3        1 VM2     -0.125700
     11 C6B        -4.9030    0.7230   -1.4500 c3        1 VM2      0.127400
     12 O2B        -1.6960   -1.8870   -3.4420 oh        1 VM2     -0.610800
     13 O3B        -4.8330   -2.3650   -4.0010 oh        1 VM2     -0.592800
     14 O4B        -4.6310    0.8390   -5.0710 oh        1 VM2     -0.588800
     15 O6B        -6.1290    1.3550   -1.7680 oh        1 VM2     -0.585800
     16 CAR        -2.6790    0.1100   -2.5900 c3        1 VM2      0.107500
     17 N2B        -2.0220    0.2360   -1.2550 ny        1 VM2     -0.750000
     18 C7B        -0.5570   -0.0670   -1.3060 c3        1 VM2      0.099800
     19 H1         -0.1170    0.9900    0.5570 hc        1 VM2      0.064700
     20 H21C        1.8610   -1.0460   -0.6840 hc        1 VM2      0.046200
     21 H22C        1.9620    0.7620   -0.7780 hc        1 VM2      0.046200
     22 H61C       -1.4710   -1.0190    1.1790 hc        1 VM2      0.046200
     23 H62C       -0.2040   -2.1110    0.4790 hc        1 VM2      0.046200
     24 H7B1       -0.4350   -1.0980   -1.7550 hx        1 VM2      0.118200
     25 H7B2       -0.0780    0.6820   -2.0010 hx        1 VM2      0.118200
     26 H31C        3.4480   -0.1850    1.0000 hc        1 VM2      0.057450
     27 H32C        2.1960    0.9310    1.6780 hc        1 VM2      0.057450
     28 H41C        2.3780   -1.0780    3.0990 hc        1 VM2      0.059200
     29 H42C        2.1390   -2.1660    1.6740 hc        1 VM2      0.059200
     30 H51C        0.0270   -1.9620    2.9310 hc        1 VM2      0.057450
     31 H52C        0.1050   -0.1560    2.8610 hc        1 VM2      0.057450
     32 H2B        -3.3400   -1.9850   -2.1670 h1        1 VM2      0.077700
     33 H3B        -3.4890   -1.2290   -5.1470 h1        1 VM2      0.097700
     34 HA         -1.8820   -2.6940   -3.9450 ho        1 VM2      0.451000
     35 HAR        -1.9740    0.5720   -3.3500 hx        1 VM2      0.135700
     36 H4B        -5.8230   -0.1210   -3.6340 h1        1 VM2      0.095700
     37 HB         -5.4010   -2.3910   -4.7830 ho        1 VM2      0.437000
     38 H5B        -3.9050    1.8880   -2.9800 hc        1 VM2      0.106700
     39 HC         -5.3310    1.5060   -5.0560 ho        1 VM2      0.432000
     40 H6B1       -4.4190    1.2690   -0.5940 h1        1 VM2      0.024200
     41 H6B2       -5.0760   -0.3470   -1.1550 h1        1 VM2      0.024200
     42 H6B        -6.7130    1.2460   -1.0060 ho        1 VM2      0.431000
     43 HD         -2.1560    1.1930   -0.9090 hn        1 VM2      0.446800
     44 H2B2       -2.4720   -0.4080   -0.5930 hn        1 VM2      0.446800
@<TRIPOS>BOND
     1    1    2 1   
     2    1    6 1   
     3    1   18 1   
     4    1   19 1   
     5    2    3 1   
     6    2   20 1   
     7    2   21 1   
     8    3    4 1   
     9    3   26 1   
    10    3   27 1   
    11    4    5 1   
    12    4   28 1   
    13    4   29 1   
    14    5    6 1   
    15    5   30 1   
    16    5   31 1   
    17    6   22 1   
    18    6   23 1   
    19    7    8 1   
    20    7   12 1   
    21    7   16 1   
    22    7   32 1   
    23    8    9 1   
    24    8   13 1   
    25    8   33 1   
    26    9   10 1   
    27    9   14 1   
    28    9   36 1   
    29   10   11 1   
    30   10   16 1   
    31   10   38 1   
    32   11   15 1   
    33   11   40 1   
    34   11   41 1   
    35   12   34 1   
    36   13   37 1   
    37   14   39 1   
    38   15   42 1   
    39   16   17 1   
    40   16   35 1   
    41   17   18 1   
    42   17   43 1   
    43   17   44 1   
    44   18   24 1   
    45   18   25 1   
@<TRIPOS>SUBSTRUCTURE
     1 VM2         1 TEMP              0 ****  ****    0 ROOT
