@<TRIPOS>MOLECULE
VM2
   44    45     1     0     0
SMALL
bcc


@<TRIPOS>ATOM
      1 C1          0.1090   -0.0100    0.0620 c3        1 VM2     -0.091700
      2 C2          1.6170   -0.1130   -0.1510 c3        1 VM2     -0.077400
      3 C3          2.3490   -0.0880    1.1750 c3        1 VM2     -0.077900
      4 C4          1.8600   -1.1850    2.0970 c3        1 VM2     -0.083400
      5 C5          0.3620   -1.1030    2.2990 c3        1 VM2     -0.077900
      6 C6         -0.3780   -1.1250    0.9760 c3        1 VM2     -0.077400
      7 C2B        -2.9460   -1.3550   -3.0120 c3        1 VM2      0.134100
      8 C3B        -3.9980   -1.2350   -4.1350 c3        1 VM2      0.108100
      9 C4B        -4.7510    0.0960   -3.8880 c3        1 VM2      0.124100
     10 C5B        -4.0460    0.8210   -2.7140 c3        1 VM2     -0.125700
     11 C6B        -4.9000    0.7470   -1.4510 c3        1 VM2      0.127400
     12 O2B        -1.7150   -1.8900   -3.4420 oh        1 VM2     -0.610800
     13 O3B        -4.8560   -2.3470   -3.9950 oh        1 VM2     -0.592800
     14 O4B        -4.6330    0.8530   -5.0730 oh        1 VM2     -0.588800
     15 O6B        -6.1220    1.3870   -1.7700 oh        1 VM2     -0.585800
     16 CAR        -2.6820    0.1160   -2.5930 c3        1 VM2      0.107500
     17 N2B        -2.0220    0.2400   -1.2600 n4        1 VM2     -0.750000
     18 C7B        -0.5590   -0.0730   -1.3130 c3        1 VM2      0.099800
     19 H1         -0.1090    0.9830    0.5480 hc        1 VM2      0.064700
     20 H21C        1.9660    0.7400   -0.7890 hc        1 VM2      0.046200
     21 H22C        1.8530   -1.0670   -0.6930 hc        1 VM2      0.046200
     22 H61C       -1.4760   -1.0160    1.1760 hc        1 VM2      0.046200
     23 H62C       -0.2170   -2.1160    0.4750 hc        1 VM2      0.046200
     24 H7B1       -0.4450   -1.1060   -1.7600 hx        1 VM2      0.118200
     25 H7B2       -0.0770    0.6710   -2.0090 hx        1 VM2      0.118200
     26 H31C        2.2050    0.9100    1.6660 hc        1 VM2      0.057450
     27 H32C        3.4480   -0.2150    0.9880 hc        1 VM2      0.057450
     28 H41C        2.3750   -1.0970    3.0890 hc        1 VM2      0.059200
     29 H42C        2.1270   -2.1860    1.6670 hc        1 VM2      0.059200
     30 H51C        0.1080   -0.1610    2.8540 hc        1 VM2      0.057450
     31 H52C        0.0180   -1.9660    2.9270 hc        1 VM2      0.057450
     32 H2B        -3.3570   -1.9740   -2.1650 h1        1 VM2      0.077700
     33 H3B        -3.5060   -1.2230   -5.1470 h1        1 VM2      0.097700
     34 HA         -1.9070   -2.6970   -3.9440 ho        1 VM2      0.451000
     35 HAR        -1.9750    0.5710   -3.3550 hx        1 VM2      0.135700
     36 H4B        -5.8290   -0.0950   -3.6320 h1        1 VM2      0.095700
     37 HB         -5.4260   -2.3700   -4.7770 ho        1 VM2      0.437000
     38 H5B        -3.8960    1.9010   -2.9860 hc        1 VM2      0.106700
     39 HC         -5.3280    1.5250   -5.0590 ho        1 VM2      0.432000
     40 H6B1       -4.4100    1.2920   -0.5980 h1        1 VM2      0.024200
     41 H6B2       -5.0800   -0.3220   -1.1540 h1        1 VM2      0.024200
     42 H6B        -6.7050    1.2840   -1.0060 ho        1 VM2      0.431000
     43 HD         -2.4750   -0.4000   -0.5960 hn        1 VM2      0.446800
     44 H2B2       -2.1490    1.1980   -0.9160 hn        1 VM2      0.446800
@<TRIPOS>BOND
     1    1    2 1   
     2    1    6 1   
     3    1   18 1   
     4    1   19 1   
     5    2    3 1   
     6    2   20 1   
     7    2   21 1   
     8    3    4 1   
     9    3   26 1   
    10    3   27 1   
    11    4    5 1   
    12    4   28 1   
    13    4   29 1   
    14    5    6 1   
    15    5   30 1   
    16    5   31 1   
    17    6   22 1   
    18    6   23 1   
    19    7    8 1   
    20    7   12 1   
    21    7   16 1   
    22    7   32 1   
    23    8    9 1   
    24    8   13 1   
    25    8   33 1   
    26    9   10 1   
    27    9   14 1   
    28    9   36 1   
    29   10   11 1   
    30   10   16 1   
    31   10   38 1   
    32   11   15 1   
    33   11   40 1   
    34   11   41 1   
    35   12   34 1   
    36   13   37 1   
    37   14   39 1   
    38   15   42 1   
    39   16   17 1   
    40   16   35 1   
    41   17   18 1   
    42   17   43 1   
    43   17   44 1   
    44   18   24 1   
    45   18   25 1   
@<TRIPOS>SUBSTRUCTURE
     1 VM2         1 TEMP              0 ****  ****    0 ROOT
