@<TRIPOS>MOLECULE
VME
   22    21     1     0     0
SMALL
bcc


@<TRIPOS>ATOM
      1 N           1.0440    1.8340   -0.4900 n3        1 VME     -0.897800
      2 CA          0.5730    0.4710   -0.4350 c3        1 VME      0.140500
      3 C          -0.8460    0.3730    0.1290 c         1 VME      0.579100
      4 O          -1.3150    0.9620    1.1050 o         1 VME     -0.548000
      5 CB          1.4770   -0.4540    0.4150 c3        1 VME     -0.059700
      6 CG1         1.0070   -1.8880    0.2880 c3        1 VME     -0.090600
      7 CG2         2.9240   -0.3420   -0.0180 c3        1 VME     -0.090600
      8 CM         -3.0070   -0.5940   -0.1250 c3        1 VME      0.122700
      9 O2         -1.6640   -0.4500   -0.5910 os        1 VME     -0.434900
     10 HN1         0.4100    2.4090   -1.0080 hn        1 VME      0.364300
     11 HN2         1.1670    2.2120    0.4290 hn        1 VME      0.364300
     12 HA          0.5520    0.0720   -1.4940 h1        1 VME      0.091700
     13 HB          1.3910   -0.1360    1.4920 hc        1 VME      0.058700
     14 HG11        1.6120   -2.5460    0.9580 hc        1 VME      0.041200
     15 HG12       -0.0690   -1.9810    0.5750 hc        1 VME      0.041200
     16 HG13        1.1230   -2.2490   -0.7620 hc        1 VME      0.041200
     17 HG21        3.3430    0.6610    0.2380 hc        1 VME      0.041200
     18 HG22        3.5350   -1.1210    0.5000 hc        1 VME      0.041200
     19 HG23        3.0160   -0.4910   -1.1210 hc        1 VME      0.041200
     20 HMC1       -3.0070   -1.0270    0.9030 h1        1 VME      0.051033
     21 HMC2       -3.5180    0.3990   -0.1220 h1        1 VME      0.051033
     22 HMC3       -3.4710   -1.2910   -0.8650 h1        1 VME      0.051033
@<TRIPOS>BOND
     1    1    2 1   
     2    1   10 1   
     3    1   11 1   
     4    2    3 1   
     5    2    5 1   
     6    2   12 1   
     7    3    4 2   
     8    3    9 1   
     9    5    6 1   
    10    5    7 1   
    11    5   13 1   
    12    6   14 1   
    13    6   15 1   
    14    6   16 1   
    15    7   17 1   
    16    7   18 1   
    17    7   19 1   
    18    8    9 1   
    19    8   20 1   
    20    8   21 1   
    21    8   22 1   
@<TRIPOS>SUBSTRUCTURE
     1 VME         1 TEMP              0 ****  ****    0 ROOT
