@<TRIPOS>MOLECULE
VME
   22    21     1     0     0
SMALL
bcc


@<TRIPOS>ATOM
      1 N          -1.8340   -0.3630   -0.3650 n3        1 VME     -0.891800
      2 CA         -0.4210   -0.4060   -0.2450 c3        1 VME      0.137500
      3 C          -0.0380   -0.4030    1.2210 c         1 VME      0.580100
      4 O          -0.3410    0.5440    1.9280 o         1 VME     -0.552000
      5 CB          0.1860    0.8110   -0.9310 c3        1 VME     -0.057700
      6 CG1         1.2380    0.3520   -1.9530 c3        1 VME     -0.094600
      7 CG2        -0.9210    1.5970   -1.6540 c3        1 VME     -0.094600
      8 CM          0.7130   -1.4890    3.1980 c3        1 VME      0.124700
      9 O2          0.6300   -1.5190    1.7820 os        1 VME     -0.435900
     10 HN1        -2.1090   -0.9940   -0.9730 hn        1 VME      0.363300
     11 HN2        -2.2160   -0.5370    0.4510 hn        1 VME      0.363300
     12 HA         -0.0810   -1.2250   -0.6690 h1        1 VME      0.090700
     13 HB          0.6120    1.3880   -0.2590 hc        1 VME      0.063700
     14 HG11        1.9570   -0.1310   -1.4880 hc        1 VME      0.041533
     15 HG12        0.8160   -0.2430   -2.6120 hc        1 VME      0.041533
     16 HG13        1.6130    1.1370   -2.4120 hc        1 VME      0.041533
     17 HG21       -0.8920    2.4170   -2.2020 hc        1 VME      0.041533
     18 HG22       -0.4260    1.2590   -2.4310 hc        1 VME      0.041533
     19 HG23       -0.6810    2.2510   -0.9600 hc        1 VME      0.041533
     20 HMC1        1.2370   -0.7070    3.4780 h1        1 VME      0.051367
     21 HMC2        1.1500   -2.3090    3.5180 h1        1 VME      0.051367
     22 HMC3       -0.1910   -1.4300    3.5770 h1        1 VME      0.051367
@<TRIPOS>BOND
     1    1    2 1   
     2    1   10 1   
     3    1   11 1   
     4    2    3 1   
     5    2    5 1   
     6    2   12 1   
     7    3    4 2   
     8    3    9 1   
     9    5    6 1   
    10    5    7 1   
    11    5   13 1   
    12    6   14 1   
    13    6   15 1   
    14    6   16 1   
    15    7   17 1   
    16    7   18 1   
    17    7   19 1   
    18    8    9 1   
    19    8   20 1   
    20    8   21 1   
    21    8   22 1   
@<TRIPOS>SUBSTRUCTURE
     1 VME         1 TEMP              0 ****  ****    0 ROOT
