@<TRIPOS>MOLECULE
VMP
   47    49     1     0     0
SMALL
bcc


@<TRIPOS>ATOM
      1 C10        -4.2000   -0.5030   -0.8230 ca        1 VMP     -0.051000
      2 C11        -5.4620   -0.5260   -0.1710 ca        1 VMP     -0.049000
      3 C24        -6.4300   -1.5260   -0.4630 ca        1 VMP     -0.108000
      4 C26        -7.6440   -1.5270    0.1790 ca        1 VMP     -0.127000
      5 C27        -7.9460   -0.5310    1.1400 ca        1 VMP     -0.114000
      6 C25        -7.0290    0.4470    1.4400 ca        1 VMP     -0.124000
      7 C12        -5.7650    0.4720    0.7900 ca        1 VMP     -0.022000
      8 C13        -4.7990    1.4760    1.0730 ca        1 VMP     -0.117000
      9 C14        -3.5820    1.4770    0.4390 ca        1 VMP     -0.115000
     10 C9         -3.2760    0.4720   -0.5140 ca        1 VMP     -0.154600
     11 C8         -1.9660    0.4670   -1.2300 c         1 VMP      0.684700
     12 O8         -1.8810    0.2780   -2.4500 o         1 VMP     -0.514100
     13 N2         -0.8400    0.6650   -0.4160 n         1 VMP     -0.608500
     14 C7          0.4880    0.6890   -0.9000 c         1 VMP      0.753100
     15 O7          0.7550    0.4780   -2.0970 o         1 VMP     -0.553100
     16 N1          1.5170    1.0580    0.0180 n         1 VMP     -0.527900
     17 C1          2.8580    0.6020   -0.2890 c3        1 VMP      0.241500
     18 O5          3.1030   -0.5500    0.5440 os        1 VMP     -0.447600
     19 C5          4.3550   -1.1760    0.2650 c3        1 VMP      0.151100
     20 C6          4.4160   -2.4270    1.1450 c3        1 VMP      0.135400
     21 O6          3.7810   -3.4680    0.4230 oh        1 VMP     -0.594800
     22 C4          5.4920   -0.2030    0.6220 c3        1 VMP      0.117100
     23 O4          6.7150   -0.8390    0.2980 oh        1 VMP     -0.594800
     24 C3          5.3240    1.0920   -0.1890 c3        1 VMP      0.108100
     25 O3          6.3270    1.9840    0.2660 oh        1 VMP     -0.608800
     26 C2          3.9240    1.6850    0.0410 c3        1 VMP      0.091100
     27 O2          3.8340    2.7920   -0.8360 oh        1 VMP     -0.601800
     28 H10        -3.9710   -1.2680   -1.5830 ha        1 VMP      0.156000
     29 H24        -6.1860   -2.2940   -1.2140 ha        1 VMP      0.140000
     30 H26        -8.3960   -2.2980   -0.0450 ha        1 VMP      0.138000
     31 H27        -8.9250   -0.5540    1.6410 ha        1 VMP      0.136000
     32 H25        -7.2560    1.2250    2.1840 ha        1 VMP      0.136000
     33 H13        -5.0490    2.2560    1.8090 ha        1 VMP      0.139000
     34 H14        -2.8490    2.2720    0.6490 ha        1 VMP      0.135000
     35 H2         -1.0030    0.8080    0.5540 hn        1 VMP      0.318500
     36 H1          1.2960    0.9690    0.9890 hn        1 VMP      0.292500
     37 HA          2.9380    0.3170   -1.3810 h2        1 VMP      0.109700
     38 HB          3.8240    2.0300    1.1070 h1        1 VMP      0.058700
     39 H5          4.4110   -1.4650   -0.8210 h1        1 VMP      0.085700
     40 H61C        5.4930   -2.6870    1.3320 h1        1 VMP      0.045700
     41 H62C        3.8870   -2.2460    2.1180 h1        1 VMP      0.045700
     42 H4          5.4700    0.0380    1.7220 h1        1 VMP      0.058700
     43 H6          3.7960   -4.2450    0.9930 ho        1 VMP      0.403000
     44 HC          7.4060   -0.1690    0.3970 ho        1 VMP      0.426000
     45 H3          5.4730    0.8860   -1.2870 h1        1 VMP      0.069700
     46 HD          6.1900    2.8160   -0.2060 ho        1 VMP      0.429000
     47 H2A         2.9290    3.1240   -0.7990 ho        1 VMP      0.426000
@<TRIPOS>BOND
     1    1    2 ar  
     2    1   10 ar  
     3    1   28 1   
     4    2    3 ar  
     5    2    7 ar  
     6    3    4 ar  
     7    3   29 1   
     8    4    5 ar  
     9    4   30 1   
    10    5    6 ar  
    11    5   31 1   
    12    6    7 ar  
    13    6   32 1   
    14    7    8 ar  
    15    8    9 ar  
    16    8   33 1   
    17    9   10 ar  
    18    9   34 1   
    19   10   11 1   
    20   11   12 2   
    21   11   13 1   
    22   13   14 1   
    23   13   35 1   
    24   14   15 2   
    25   14   16 1   
    26   16   17 1   
    27   16   36 1   
    28   17   18 1   
    29   17   26 1   
    30   17   37 1   
    31   18   19 1   
    32   19   20 1   
    33   19   22 1   
    34   19   39 1   
    35   20   21 1   
    36   20   40 1   
    37   20   41 1   
    38   21   43 1   
    39   22   23 1   
    40   22   24 1   
    41   22   42 1   
    42   23   44 1   
    43   24   25 1   
    44   24   26 1   
    45   24   45 1   
    46   25   46 1   
    47   26   27 1   
    48   26   38 1   
    49   27   47 1   
@<TRIPOS>SUBSTRUCTURE
     1 VMP         1 TEMP              0 ****  ****    0 ROOT
