@<TRIPOS>MOLECULE
VMP
   49    51     1     0     0
SMALL
bcc


@<TRIPOS>ATOM
      1 C10        -0.4610    0.7820   -1.4230 ca        1 VMP      0.066000
      2 C11         0.8940    0.3980   -1.4260 ca        1 VMP     -0.088000
      3 C24         1.9360    1.3620   -1.3200 ca        1 VMP     -0.078000
      4 C26         3.2520    0.9600   -1.3190 ca        1 VMP     -0.105000
      5 C27         3.5830   -0.4110   -1.4220 ca        1 VMP     -0.035000
      6 C25         2.5910   -1.3670   -1.5280 ca        1 VMP     -0.134000
      7 C12         1.2320   -0.9850   -1.5330 ca        1 VMP      0.026000
      8 C13         0.1800   -1.9440   -1.6510 ca        1 VMP     -0.069000
      9 C14        -1.1320   -1.5630   -1.6430 ca        1 VMP     -0.138000
     10 C9         -1.4780   -0.1820   -1.5140 ca        1 VMP     -0.239600
     11 C8         -2.8220    0.3100   -1.4750 c         1 VMP      0.620700
     12 O8         -3.2840    1.4450   -1.5480 o         1 VMP     -0.513100
     13 N2         -3.9370   -0.7680   -1.2850 n4        1 VMP     -0.575600
     14 C7         -5.1420   -0.2450   -0.5990 c         1 VMP      0.524100
     15 O7         -5.4450   -0.6230    0.5230 o         1 VMP     -0.325100
     16 N1         -5.9950    0.7670   -1.2910 n4        1 VMP     -0.650800
     17 C1         -6.8460    0.1340   -2.3820 c3        1 VMP      0.340300
     18 O5         -5.9140   -0.5430   -3.1990 os        1 VMP     -0.483600
     19 C5         -6.5230   -1.3070   -4.2660 c3        1 VMP      0.124100
     20 C6         -5.3080   -1.9280   -4.9650 c3        1 VMP      0.134400
     21 O6         -4.4510   -2.4070   -3.9350 oh        1 VMP     -0.663800
     22 C4         -7.3560   -0.3860   -5.1730 c3        1 VMP      0.083100
     23 O4         -8.1620   -1.1920   -6.0070 oh        1 VMP     -0.573800
     24 C3         -8.3440    0.4510   -4.3270 c3        1 VMP      0.111100
     25 O3         -8.9380    1.4620   -5.1120 oh        1 VMP     -0.583800
     26 C2         -7.5900    1.2080   -3.2160 c3        1 VMP      0.121100
     27 O2         -8.4420    1.8670   -2.3100 oh        1 VMP     -0.619800
     28 H10        -0.7180    1.8540   -1.3400 ha        1 VMP      0.171000
     29 H24         1.6730    2.4290   -1.2390 ha        1 VMP      0.160000
     30 H26         4.0640    1.7040   -1.2360 ha        1 VMP      0.176000
     31 H27         4.6460   -0.7100   -1.4170 ha        1 VMP      0.176000
     32 H25         2.8510   -2.4360   -1.6090 ha        1 VMP      0.168000
     33 H13         0.4540   -3.0090   -1.7540 ha        1 VMP      0.173000
     34 H14        -1.9070   -2.3330   -1.7740 ha        1 VMP      0.123000
     35 H2         -4.1820   -1.1570   -2.2270 hn        1 VMP      0.517300
     36 H1         -5.4030    1.5180   -1.6990 hn        1 VMP      0.517800
     37 HA         -7.5700   -0.5790   -1.8810 hx        1 VMP      0.134700
     38 HB         -6.8720    1.9430   -3.6780 h1        1 VMP      0.096700
     39 H5         -7.1750   -2.1040   -3.8120 h1        1 VMP      0.097700
     40 H61C       -4.7460   -1.1550   -5.5540 h1        1 VMP      0.082200
     41 H62C       -5.6620   -2.7520   -5.6380 h1        1 VMP      0.082200
     42 H4         -6.6890    0.3000   -5.7620 h1        1 VMP      0.087700
     43 H6         -4.0510   -3.2280   -4.2500 ho        1 VMP      0.450000
     44 HC         -7.7560   -1.2200   -6.8850 ho        1 VMP      0.441000
     45 H3         -9.1340   -0.2210   -3.8860 h1        1 VMP      0.088700
     46 HD         -9.5140    1.0230   -5.7580 ho        1 VMP      0.459000
     47 H2A        -9.1380    2.3150   -2.8240 ho        1 VMP      0.487000
     48 H22        -3.5600   -1.5360   -0.7040 hn        1 VMP      0.517300
     49 H12        -6.6470    1.1920   -0.6010 hn        1 VMP      0.517800
@<TRIPOS>BOND
     1    1    2 ar  
     2    1   10 ar  
     3    1   28 1   
     4    2    3 ar  
     5    2    7 ar  
     6    3    4 ar  
     7    3   29 1   
     8    4    5 ar  
     9    4   30 1   
    10    5    6 ar  
    11    5   31 1   
    12    6    7 ar  
    13    6   32 1   
    14    7    8 ar  
    15    8    9 ar  
    16    8   33 1   
    17    9   10 ar  
    18    9   34 1   
    19   10   11 1   
    20   11   12 2   
    21   11   13 1   
    22   13   14 1   
    23   13   35 1   
    24   13   48 1   
    25   14   15 2   
    26   14   16 1   
    27   16   17 1   
    28   16   36 1   
    29   16   49 1   
    30   17   18 1   
    31   17   26 1   
    32   17   37 1   
    33   18   19 1   
    34   19   20 1   
    35   19   22 1   
    36   19   39 1   
    37   20   21 1   
    38   20   40 1   
    39   20   41 1   
    40   21   43 1   
    41   22   23 1   
    42   22   24 1   
    43   22   42 1   
    44   23   44 1   
    45   24   25 1   
    46   24   26 1   
    47   24   45 1   
    48   25   46 1   
    49   26   27 1   
    50   26   38 1   
    51   27   47 1   
@<TRIPOS>SUBSTRUCTURE
     1 VMP         1 TEMP              0 ****  ****    0 ROOT
