@<TRIPOS>MOLECULE
VMP
   49    51     1     0     0
SMALL
bcc


@<TRIPOS>ATOM
      1 C10        -0.4540    0.7570   -1.4220 ca        1 VMP      0.066000
      2 C11         0.9030    0.3800   -1.4480 ca        1 VMP     -0.088000
      3 C24         1.9410    1.3460   -1.3230 ca        1 VMP     -0.078000
      4 C26         3.2590    0.9500   -1.3450 ca        1 VMP     -0.105000
      5 C27         3.5950   -0.4150   -1.4910 ca        1 VMP     -0.034000
      6 C25         2.6070   -1.3730   -1.6160 ca        1 VMP     -0.134000
      7 C12         1.2460   -0.9970   -1.5990 ca        1 VMP      0.026000
      8 C13         0.1970   -1.9580   -1.7350 ca        1 VMP     -0.069000
      9 C14        -1.1170   -1.5830   -1.7050 ca        1 VMP     -0.138000
     10 C9         -1.4670   -0.2080   -1.5320 ca        1 VMP     -0.239600
     11 C8         -2.8130    0.2760   -1.4680 c         1 VMP      0.620700
     12 O8         -3.2810    1.4110   -1.5020 o         1 VMP     -0.513100
     13 N2         -3.9220   -0.8120   -1.3010 n4        1 VMP     -0.575600
     14 C7         -5.1220   -0.3170   -0.5880 c         1 VMP      0.524100
     15 O7         -5.4130   -0.7300    0.5250 o         1 VMP     -0.325100
     16 N1         -5.9860    0.7130   -1.2400 n4        1 VMP     -0.650800
     17 C1         -6.8450    0.1100   -2.3420 c3        1 VMP      0.340300
     18 O5         -5.9180   -0.5360   -3.1890 os        1 VMP     -0.483600
     19 C5         -6.5340   -1.2700   -4.2730 c3        1 VMP      0.124100
     20 C6         -5.3220   -1.8630   -5.0020 c3        1 VMP      0.134400
     21 O6         -4.4540   -2.3700   -3.9960 oh        1 VMP     -0.663800
     22 C4         -7.3800   -0.3240   -5.1430 c3        1 VMP      0.083100
     23 O4         -8.1900   -1.1080   -5.9940 oh        1 VMP     -0.573800
     24 C3         -8.3630    0.4810   -4.2610 c3        1 VMP      0.111100
     25 O3         -8.9680    1.5130   -5.0090 oh        1 VMP     -0.583800
     26 C2         -7.6020    1.2060   -3.1350 c3        1 VMP      0.121100
     27 O2         -8.4480    1.8330   -2.2000 oh        1 VMP     -0.619800
     28 H10        -0.7150    1.8260   -1.3050 ha        1 VMP      0.171000
     29 H24         1.6740    2.4090   -1.2090 ha        1 VMP      0.160000
     30 H26         4.0680    1.6950   -1.2480 ha        1 VMP      0.176000
     31 H27         4.6600   -0.7100   -1.5040 ha        1 VMP      0.176000
     32 H25         2.8710   -2.4380   -1.7300 ha        1 VMP      0.168000
     33 H13         0.4760   -3.0180   -1.8710 ha        1 VMP      0.173000
     34 H14        -1.8880   -2.3530   -1.8510 ha        1 VMP      0.123000
     35 H2         -4.1740   -1.1730   -2.2520 hn        1 VMP      0.517300
     36 H1         -6.6330    1.1140   -0.5310 hn        1 VMP      0.517800
     37 HA         -7.5610   -0.6220   -1.8560 hx        1 VMP      0.134700
     38 HB         -6.8910    1.9590   -3.5800 h1        1 VMP      0.096700
     39 H5         -7.1780   -2.0840   -3.8380 h1        1 VMP      0.097700
     40 H61C       -5.6800   -2.6670   -5.6980 h1        1 VMP      0.082200
     41 H62C       -4.7690   -1.0700   -5.5730 h1        1 VMP      0.082200
     42 H4         -6.7210    0.3830   -5.7160 h1        1 VMP      0.087700
     43 H6         -4.0530   -3.1790   -4.3410 ho        1 VMP      0.450000
     44 HC         -7.7920   -1.1070   -6.8760 ho        1 VMP      0.441000
     45 H3         -9.1450   -0.2080   -3.8350 h1        1 VMP      0.088700
     46 HD         -9.5490    1.0920   -5.6630 ho        1 VMP      0.459000
     47 H2A        -9.1500    2.2930   -2.6930 ho        1 VMP      0.487000
     48 H22        -3.5360   -1.5970   -0.7470 hn        1 VMP      0.517300
     49 H12        -5.4010    1.4780   -1.6300 hn        1 VMP      0.517800
@<TRIPOS>BOND
     1    1    2 ar  
     2    1   10 ar  
     3    1   28 1   
     4    2    3 ar  
     5    2    7 ar  
     6    3    4 ar  
     7    3   29 1   
     8    4    5 ar  
     9    4   30 1   
    10    5    6 ar  
    11    5   31 1   
    12    6    7 ar  
    13    6   32 1   
    14    7    8 ar  
    15    8    9 ar  
    16    8   33 1   
    17    9   10 ar  
    18    9   34 1   
    19   10   11 1   
    20   11   12 2   
    21   11   13 1   
    22   13   14 1   
    23   13   35 1   
    24   13   48 1   
    25   14   15 2   
    26   14   16 1   
    27   16   17 1   
    28   16   36 1   
    29   16   49 1   
    30   17   18 1   
    31   17   26 1   
    32   17   37 1   
    33   18   19 1   
    34   19   20 1   
    35   19   22 1   
    36   19   39 1   
    37   20   21 1   
    38   20   40 1   
    39   20   41 1   
    40   21   43 1   
    41   22   23 1   
    42   22   24 1   
    43   22   42 1   
    44   23   44 1   
    45   24   25 1   
    46   24   26 1   
    47   24   45 1   
    48   25   46 1   
    49   26   27 1   
    50   26   38 1   
    51   27   47 1   
@<TRIPOS>SUBSTRUCTURE
     1 VMP         1 TEMP              0 ****  ****    0 ROOT
