@<TRIPOS>MOLECULE
VMP
   49    51     1     0     0
SMALL
bcc


@<TRIPOS>ATOM
      1 C10        -0.4450    0.7570   -1.4410 ca        1 VMP      0.066000
      2 C11         0.9020    0.3470   -1.4260 ca        1 VMP     -0.088000
      3 C24         1.9620    1.2940   -1.3440 ca        1 VMP     -0.078000
      4 C26         3.2710    0.8670   -1.3250 ca        1 VMP     -0.105000
      5 C27         3.5750   -0.5120   -1.3860 ca        1 VMP     -0.034000
      6 C25         2.5660   -1.4520   -1.4680 ca        1 VMP     -0.134000
      7 C12         1.2140   -1.0440   -1.4910 ca        1 VMP      0.026000
      8 C13         0.1440   -1.9860   -1.5850 ca        1 VMP     -0.069000
      9 C14        -1.1600   -1.5800   -1.5950 ca        1 VMP     -0.138000
     10 C9         -1.4800   -0.1890   -1.5080 ca        1 VMP     -0.239600
     11 C8         -2.8140    0.3290   -1.4900 c         1 VMP      0.620700
     12 O8         -3.2540    1.4710   -1.5970 o         1 VMP     -0.513100
     13 N2         -3.9510   -0.7210   -1.2750 ny        1 VMP     -0.575600
     14 C7         -5.1470   -0.1560   -0.6080 c         1 VMP      0.524100
     15 O7         -5.4610   -0.4980    0.5230 o         1 VMP     -0.325100
     16 N1         -5.9780    0.8540   -1.3300 ny        1 VMP     -0.650800
     17 C1         -6.8380    0.2080   -2.4060 c3        1 VMP      0.340300
     18 O5         -5.9180   -0.5080   -3.2020 os        1 VMP     -0.483600
     19 C5         -6.5380   -1.2890   -4.2500 c3        1 VMP      0.124100
     20 C6         -5.3340   -1.9520   -4.9280 c3        1 VMP      0.134400
     21 O6         -4.4890   -2.4190   -3.8820 oh        1 VMP     -0.663800
     22 C4         -7.3510   -0.3760   -5.1840 c3        1 VMP      0.083100
     23 O4         -8.1710   -1.1890   -5.9980 oh        1 VMP     -0.573800
     24 C3         -8.3250    0.5020   -4.3630 c3        1 VMP      0.111100
     25 O3         -8.8960    1.5030   -5.1770 oh        1 VMP     -0.583800
     26 C2         -7.5590    1.2740   -3.2710 c3        1 VMP      0.121100
     27 O2         -8.4000    1.9740   -2.3850 oh        1 VMP     -0.619800
     28 H10        -0.6820    1.8360   -1.3910 ha        1 VMP      0.171000
     29 H24         1.7200    2.3680   -1.2960 ha        1 VMP      0.160000
     30 H26         4.0960    1.5980   -1.2600 ha        1 VMP      0.176000
     31 H27         4.6320   -0.8310   -1.3670 ha        1 VMP      0.176000
     32 H25         2.8050   -2.5280   -1.5160 ha        1 VMP      0.168000
     33 H13         0.3990   -3.0580   -1.6550 ha        1 VMP      0.173000
     34 H14        -1.9480   -2.3380   -1.7070 ha        1 VMP      0.123000
     35 H2         -3.5910   -1.4810   -0.6720 hn        1 VMP      0.517300
     36 H1         -6.6240    1.3100   -0.6540 hn        1 VMP      0.517800
     37 HA         -7.5780   -0.4770   -1.8880 hx        1 VMP      0.134700
     38 HB         -6.8250    1.9820   -3.7500 h1        1 VMP      0.096700
     39 H5         -7.2070   -2.0610   -3.7770 h1        1 VMP      0.097700
     40 H61C       -4.7550   -1.2060   -5.5360 h1        1 VMP      0.082200
     41 H62C       -5.7020   -2.7860   -5.5800 h1        1 VMP      0.082200
     42 H4         -6.6690    0.2810   -5.7890 h1        1 VMP      0.087700
     43 H6         -4.1030   -3.2560   -4.1750 ho        1 VMP      0.450000
     44 HC         -7.7630   -1.2490   -6.8740 ho        1 VMP      0.441000
     45 H3         -9.1290   -0.1420   -3.9080 h1        1 VMP      0.088700
     46 HD         -9.4800    1.0590   -5.8130 ho        1 VMP      0.459000
     47 H2A        -9.0860    2.4210   -2.9130 ho        1 VMP      0.487000
     48 H22        -4.2010   -1.1300   -2.2070 hn        1 VMP      0.517300
     49 H12        -5.3700    1.5810   -1.7560 hn        1 VMP      0.517800
@<TRIPOS>BOND
     1    1    2 ar  
     2    1   10 ar  
     3    1   28 1   
     4    2    3 ar  
     5    2    7 ar  
     6    3    4 ar  
     7    3   29 1   
     8    4    5 ar  
     9    4   30 1   
    10    5    6 ar  
    11    5   31 1   
    12    6    7 ar  
    13    6   32 1   
    14    7    8 ar  
    15    8    9 ar  
    16    8   33 1   
    17    9   10 ar  
    18    9   34 1   
    19   10   11 1   
    20   11   12 2   
    21   11   13 1   
    22   13   14 1   
    23   13   35 1   
    24   13   48 1   
    25   14   15 2   
    26   14   16 1   
    27   16   17 1   
    28   16   36 1   
    29   16   49 1   
    30   17   18 1   
    31   17   26 1   
    32   17   37 1   
    33   18   19 1   
    34   19   20 1   
    35   19   22 1   
    36   19   39 1   
    37   20   21 1   
    38   20   40 1   
    39   20   41 1   
    40   21   43 1   
    41   22   23 1   
    42   22   24 1   
    43   22   42 1   
    44   23   44 1   
    45   24   25 1   
    46   24   26 1   
    47   24   45 1   
    48   25   46 1   
    49   26   27 1   
    50   26   38 1   
    51   27   47 1   
@<TRIPOS>SUBSTRUCTURE
     1 VMP         1 TEMP              0 ****  ****    0 ROOT
