@<TRIPOS>MOLECULE
VMS
   53    50     1     0     0
SMALL
bcc


@<TRIPOS>ATOM
      1 CG2        -7.6960   -0.2760   -2.2080 c3        1 VMS     -0.100600
      2 CB         -6.6060    0.2160   -1.2340 c3        1 VMS     -0.102700
      3 CG1        -7.2880    0.8070    0.0560 c3        1 VMS     -0.100600
      4 CA         -5.6860   -0.9770   -0.8530 c3        1 VMS      0.117500
      5 N          -6.0780   -1.5030    0.4190 n3        1 VMS     -0.896800
      6 C          -4.2890   -0.5180   -0.7910 c         1 VMS      0.700100
      7 O          -3.9930    0.4410   -0.1040 o         1 VMS     -0.573100
      8 NAS        -3.2640   -1.2470   -1.4920 n         1 VMS     -0.648800
      9 SBD        -1.8370   -0.4900   -1.9090 s4        1 VMS      1.650100
     10 OAZ        -1.8150   -0.1230   -3.3710 o         1 VMS     -0.537900
     11 OBC        -1.7290    0.8570   -1.2690 o         1 VMS     -0.537900
     12 O5'        -0.6390   -1.3830   -1.5420 o         1 VMS     -0.863500
     13 C5'         0.6800   -0.7670   -1.6520 c3        1 VMS      0.268100
     14 C4'         1.4830   -0.9930   -0.3120 c3        1 VMS      0.051100
     15 O4'         2.7570   -0.8740   -0.5220 os        1 VMS     -0.400600
     16 C3'         1.1420    0.1010    0.6920 c3        1 VMS      0.091100
     17 O3'         0.4130   -0.4070    1.7110 oh        1 VMS     -0.595800
     18 C2'         2.4980    0.6220    1.2120 c3        1 VMS      0.126100
     19 O2'         2.4950    0.6720    2.7130 oh        1 VMS     -0.568800
     20 C1'         3.3640   -0.2290    0.7960 c3        1 VMS      0.205800
     21 N9          4.6200    0.4400    0.4960 n3        1 VMS     -0.124400
     22 C8          5.0760    0.7420   -0.7400 c1        1 VMS      0.160400
     23 N7          6.4080    0.9520   -0.6520 ne        1 VMS     -0.383400
     24 C5          6.7810    0.7770    0.6570 cg        1 VMS     -0.197000
     25 C4          5.6840    0.4630    1.3600 c1        1 VMS      0.356500
     26 N3          5.7580    0.3290    2.7040 n1        1 VMS     -0.530800
     27 C2          6.9480    0.5130    3.3440 c1        1 VMS      0.410300
     28 N1          8.0610    0.8310    2.6320 n1        1 VMS     -0.596800
     29 C6          7.9900    0.9640    1.3080 c1        1 VMS      0.299800
     30 N6          9.3600    1.2810    0.9190 n3        1 VMS     -0.825400
     31 HG21       -8.4660    0.3360   -2.1760 hc        1 VMS      0.045200
     32 HG22       -7.3320   -0.3000   -3.1230 hc        1 VMS      0.045200
     33 HG23       -7.9810   -1.1690   -1.9500 hc        1 VMS      0.045200
     34 HB         -6.0750    0.9100   -1.6650 hc        1 VMS      0.056700
     35 HG11       -8.0590    1.3810   -0.2120 hc        1 VMS      0.045200
     36 HG12       -6.6350    1.3480    0.5560 hc        1 VMS      0.045200
     37 HG13       -7.6110    0.0710    0.6280 hc        1 VMS      0.045200
     38 HA         -5.7690   -1.6960   -1.5500 h1        1 VMS      0.074700
     39 H          -5.3440   -1.9160    0.8250 hn        1 VMS      0.369300
     40 H2         -6.7640   -2.1340    0.2990 hn        1 VMS      0.369300
     41 HAS        -3.3470   -2.1430   -1.6060 hn        1 VMS      0.350500
     42 H5'1        1.1790   -1.1800   -2.4160 h1        1 VMS      0.070200
     43 H5'2        0.5800    0.1800   -1.8090 h1        1 VMS      0.070200
     44 H4'         1.2850   -1.8550    0.0530 h1        1 VMS      0.108700
     45 H3'         0.6500    0.8220    0.2510 h1        1 VMS      0.073700
     46 HO3'       -0.3790    0.0440    1.7750 ho        1 VMS      0.443000
     47 H1          2.6840    1.5000    0.8450 h1        1 VMS      0.097700
     48 H2'         2.1600    1.4550    2.9820 ho        1 VMS      0.429000
     49 H1'         3.5080   -0.9280    1.4810 h2        1 VMS      0.135700
     50 H8          4.5270    0.8060   -1.5660 DU        1 VMS      0.196000
     51 H3          7.0010    0.4150    4.3210 ha        1 VMS      0.131500
     52 HN61       10.0510    0.7640    1.2230 hn        1 VMS      0.449300
     53 HN62        9.5390    2.0680    0.4670 hn        1 VMS      0.449300
@<TRIPOS>BOND
     1    1    2 1   
     2    1   31 1   
     3    1   32 1   
     4    1   33 1   
     5    2    3 1   
     6    2    4 1   
     7    2   34 1   
     8    3   35 1   
     9    3   36 1   
    10    3   37 1   
    11    4    5 1   
    12    4    6 1   
    13    4   38 1   
    14    5   39 1   
    15    5   40 1   
    16    6    7 2   
    17    6    8 1   
    18    8    9 1   
    19    8   41 1   
    20    9   10 1   
    21    9   11 1   
    22   12   13 1   
    23   13   14 1   
    24   13   42 1   
    25   13   43 1   
    26   14   15 1   
    27   14   16 1   
    28   14   44 1   
    29   15   20 1   
    30   16   17 1   
    31   16   18 1   
    32   16   45 1   
    33   17   46 1   
    34   18   19 1   
    35   18   20 1   
    36   18   47 1   
    37   19   48 1   
    38   20   21 1   
    39   20   49 1   
    40   21   22 2   
    41   21   25 1   
    42   22   23 2   
    43   23   24 1   
    44   24   29 3   
    45   25   26 3   
    46   27   28 3   
    47   27   51 1   
    48   29   30 1   
    49   30   52 1   
    50   30   53 1   
@<TRIPOS>SUBSTRUCTURE
     1 VMS         1 TEMP              0 ****  ****    0 ROOT
