@<TRIPOS>MOLECULE
VMS
   53    55     1     0     0
SMALL
bcc


@<TRIPOS>ATOM
      1 CG2         4.6310   -3.0410   -0.6930 c3        1 VMS     -0.096600
      2 CB          3.2690   -3.1870   -0.0470 c3        1 VMS     -0.098700
      3 CG1         3.0560   -4.6170    0.4010 c3        1 VMS     -0.096600
      4 CA          3.1430   -2.2120    1.1450 c3        1 VMS      0.107500
      5 N           2.0260   -2.4260    2.0420 n3        1 VMS     -0.915800
      6 C           3.0750   -0.7650    0.6070 c         1 VMS      0.695100
      7 O           2.8620   -0.4900   -0.5810 o         1 VMS     -0.555100
      8 NAS         3.2490    0.2670    1.5370 n         1 VMS     -0.702300
      9 SBD         3.4080    1.8680    1.2580 s6        1 VMS      1.702100
     10 OAZ         3.3050    2.5260    2.4810 o         1 VMS     -0.635300
     11 OBC         4.4170    2.1800    0.3720 o         1 VMS     -0.635300
     12 O5'         2.0160    2.3090    0.4420 os        1 VMS     -0.548500
     13 C5'         0.7700    2.4180    1.0860 c3        1 VMS      0.163400
     14 C4'        -0.1800    3.1400    0.1290 c3        1 VMS      0.093100
     15 O4'        -0.4910    2.3050   -0.9950 os        1 VMS     -0.385600
     16 C3'        -1.5040    3.5050    0.8340 c3        1 VMS      0.128100
     17 O3'        -1.8280    4.8610    0.6590 oh        1 VMS     -0.570800
     18 C2'        -2.5520    2.5310    0.2460 c3        1 VMS      0.081100
     19 O2'        -3.5720    3.2880   -0.3660 oh        1 VMS     -0.589800
     20 C1'        -1.7880    1.7240   -0.8560 c3        1 VMS      0.217800
     21 N9         -1.6790    0.3090   -0.5740 na        1 VMS     -0.292000
     22 C8         -0.5250   -0.5100   -0.6280 cc        1 VMS      0.430700
     23 N7         -0.7840   -1.8080   -0.4050 nd        1 VMS     -0.571100
     24 C5         -2.1720   -1.8810   -0.2110 ca        1 VMS     -0.221200
     25 C4         -2.7590   -0.5500   -0.3210 ca        1 VMS      0.446800
     26 N3         -4.0960   -0.2940   -0.1930 nb        1 VMS     -0.753000
     27 C2         -4.8180   -1.4140    0.0430 ca        1 VMS      0.686900
     28 N1         -4.4140   -2.7070    0.1630 nb        1 VMS     -0.787000
     29 C6         -3.0700   -2.9700    0.0480 ca        1 VMS      0.748200
     30 N6         -2.5800   -4.2430    0.2260 nh        1 VMS     -0.944500
     31 HG21        4.7900   -1.9880   -1.0300 hc        1 VMS      0.040533
     32 HG22        5.4420   -3.3180    0.0230 hc        1 VMS      0.040533
     33 HG23        4.7040   -3.7100   -1.5840 hc        1 VMS      0.040533
     34 HB          2.4800   -2.9200   -0.8070 hc        1 VMS      0.083700
     35 HG11        3.6930   -4.8560    1.2870 hc        1 VMS      0.040533
     36 HG12        1.9880   -4.8030    0.6660 hc        1 VMS      0.040533
     37 HG13        3.3310   -5.3170   -0.4260 hc        1 VMS      0.040533
     38 HA          4.0910   -2.3030    1.7580 h1        1 VMS      0.076700
     39 H           1.1590   -2.4320    1.5380 hn        1 VMS      0.369300
     40 H2          2.1340   -3.3010    2.5170 hn        1 VMS      0.369300
     41 HAS         3.2300   -0.0530    2.4860 hn        1 VMS      0.355500
     42 H5'1        0.3850    1.3860    1.3120 h1        1 VMS      0.050700
     43 H5'2        0.8840    3.0140    2.0330 h1        1 VMS      0.050700
     44 H4'         0.3280    4.0410   -0.3150 h1        1 VMS      0.115700
     45 H3'        -1.4260    3.3760    1.9490 h1        1 VMS      0.093700
     46 HO3'       -2.1470    4.9820   -0.2460 ho        1 VMS      0.426000
     47 H1         -2.9700    1.8730    1.0520 h1        1 VMS      0.083700
     48 H2'        -4.3250    2.6940   -0.4900 ho        1 VMS      0.434000
     49 H1'        -2.2880    1.8530   -1.8650 h2        1 VMS      0.105700
     50 H8          0.4660   -0.0740   -0.8460 h5        1 VMS      0.108800
     51 H3         -5.9140   -1.2610    0.1500 h5        1 VMS      0.053100
     52 HN61       -1.6540   -4.4200   -0.0810 hn        1 VMS      0.438800
     53 HN62       -3.2140   -5.0050    0.2580 hn        1 VMS      0.438800
@<TRIPOS>BOND
     1    1    2 1   
     2    1   31 1   
     3    1   32 1   
     4    1   33 1   
     5    2    3 1   
     6    2    4 1   
     7    2   34 1   
     8    3   35 1   
     9    3   36 1   
    10    3   37 1   
    11    4    5 1   
    12    4    6 1   
    13    4   38 1   
    14    5   39 1   
    15    5   40 1   
    16    6    7 2   
    17    6    8 1   
    18    8    9 1   
    19    8   41 1   
    20    9   10 2   
    21    9   11 2   
    22    9   12 1   
    23   12   13 1   
    24   13   14 1   
    25   13   42 1   
    26   13   43 1   
    27   14   15 1   
    28   14   16 1   
    29   14   44 1   
    30   15   20 1   
    31   16   17 1   
    32   16   18 1   
    33   16   45 1   
    34   17   46 1   
    35   18   19 1   
    36   18   20 1   
    37   18   47 1   
    38   19   48 1   
    39   20   21 1   
    40   20   49 1   
    41   21   22 1   
    42   21   25 1   
    43   22   23 2   
    44   22   50 1   
    45   23   24 1   
    46   24   25 ar  
    47   24   29 ar  
    48   25   26 ar  
    49   26   27 ar  
    50   27   28 ar  
    51   27   51 1   
    52   28   29 ar  
    53   29   30 1   
    54   30   52 1   
    55   30   53 1   
@<TRIPOS>SUBSTRUCTURE
     1 VMS         1 TEMP              0 ****  ****    0 ROOT
