@<TRIPOS>MOLECULE
VMX
   47    40     1     0     0
SMALL
bcc


@<TRIPOS>ATOM
      1 S           1.6230   -1.1720    3.3680 ss        1 VMX      2.812000
      2 N1         -1.6180    2.8910   -5.5910 n1        1 VMX     -0.268000
      3 C2         -0.4250    2.2660   -5.7080 c1        1 VMX      0.030000
      4 N3         -0.0440    1.3190   -4.7750 n1        1 VMX     -0.233000
      5 C4         -0.8530    1.0210   -3.7580 c1        1 VMX     -0.088500
      6 C5         -2.0460    1.6450   -3.6400 c1        1 VMX     -0.088500
      7 C6         -2.4270    2.5950   -4.5780 c1        1 VMX      0.246000
      8 N6         -3.5750    3.4090   -4.8390 n3        1 VMX     -0.354000
      9 N7         -2.6720    1.1560   -2.5180 n1        1 VMX     -0.164500
     10 C8         -1.8550    0.2290   -1.9510 c1        1 VMX     -0.037000
     11 N9         -0.7300    0.1390   -2.7090 n1        1 VMX     -0.164500
     12 C1'        -0.1890   -0.9850   -2.3730 c2        1 VMX      0.136000
     13 C10         0.2740   -0.1350    5.5890 c3        1 VMX     -0.141000
     14 C11        -1.0530    0.4390    6.1420 c3        1 VMX     -0.067000
     15 N12        -0.8070    1.1060    7.3750 n3        1 VMX     -0.349000
     16 C1S         0.0200   -0.7710    4.1530 c2        1 VMX     -0.856000
     17 C2'         1.2630   -1.0700   -2.9190 c3        1 VMX     -0.029000
     18 O2'         1.5010   -2.3970   -3.5620 oh        1 VMX     -0.320000
     19 O2S         2.5190   -0.0490    3.3990 o         1 VMX     -0.927000
     20 C3'         2.0440   -0.9270   -1.8490 c3        1 VMX      0.021000
     21 O3'         3.2380   -1.7200   -2.0000 oh        1 VMX     -0.297000
     22 O3S         2.3550   -2.1320    4.1470 o         1 VMX     -0.927000
     23 C4'         1.1800   -1.4590   -0.5860 c3        1 VMX     -0.033000
     24 O4'        -0.0630   -1.0840   -0.8020 os        1 VMX     -0.270000
     25 C5'         1.6900   -0.8470    0.6740 c3        1 VMX     -0.029000
     26 N5'         1.3810   -1.7160    1.7970 n2        1 VMX     -0.898000
     27 H2          0.1690    2.4850   -6.4530 ha        1 VMX      0.190000
     28 HN6        -4.2590    3.4660   -4.2090 hn        1 VMX      0.246500
     29 HN6A       -3.6070    3.8860   -5.5480 hn        1 VMX      0.246500
     30 H8         -2.0380   -0.2700   -1.1580 DU        1 VMX      0.209000
     31 H1'        -0.7350   -1.7470   -2.7230 h4        1 VMX      0.147000
     32 H10         0.9210    0.5680    5.5180 hc        1 VMX      0.108500
     33 H10A        0.5980   -0.8070    6.1800 hc        1 VMX      0.108500
     34 H11        -1.4160    1.0560    5.5160 h1        1 VMX      0.064000
     35 H11A       -1.6600   -0.2570    6.2810 h1        1 VMX      0.064000
     36 HN12       -1.1630    0.6060    8.0720 hn        1 VMX      0.148000
     37 HN1A       -1.2020    1.9320    7.3590 hn        1 VMX      0.148000
     38 H1S        -0.4520   -0.1480    3.6090 ha        1 VMX      0.147000
     39 H1SA       -0.5090   -1.5880    4.2470 ha        1 VMX      0.147000
     40 H2'         1.4280   -0.3440   -3.5620 h1        1 VMX      0.127000
     41 HO2'        1.6180   -2.2900   -4.3860 ho        1 VMX      0.234000
     42 H3'         2.2800    0.0310   -1.7230 h1        1 VMX      0.136000
     43 HO3'        3.0210   -2.5790   -2.0420 ho        1 VMX      0.226000
     44 H4'         1.2340   -2.4460   -0.5300 h1        1 VMX      0.140000
     45 H5'         2.6310   -0.7330    0.6110 h1        1 VMX      0.103000
     46 H5'A        1.2720    0.0090    0.8060 h1        1 VMX      0.103000
     47 HN5'        1.1380   -2.5790    1.6490 hn        1 VMX      0.253000
@<TRIPOS>BOND
     1    1   19 1   
     2    1   22 1   
     3    2    7 1   
     4    3    4 1   
     5    3   27 1   
     6    5    6 1   
     7    7    8 1   
     8    8   28 1   
     9    8   29 1   
    10    9   10 1   
    11   10   11 1   
    12   12   17 1   
    13   12   24 1   
    14   12   31 1   
    15   13   14 1   
    16   13   16 1   
    17   13   32 1   
    18   13   33 1   
    19   14   15 1   
    20   14   34 1   
    21   14   35 1   
    22   15   36 1   
    23   15   37 1   
    24   16   38 1   
    25   16   39 1   
    26   17   18 1   
    27   17   20 1   
    28   17   40 1   
    29   18   41 1   
    30   20   21 1   
    31   20   23 1   
    32   20   42 1   
    33   21   43 1   
    34   23   24 1   
    35   23   25 1   
    36   23   44 1   
    37   25   26 1   
    38   25   45 1   
    39   25   46 1   
    40   26   47 1   
@<TRIPOS>SUBSTRUCTURE
     1 VMX         1 TEMP              0 ****  ****    0 ROOT
