@<TRIPOS>MOLECULE
VMX
   49    51     1     0     0
SMALL
bcc


@<TRIPOS>ATOM
      1 S           1.0970   -1.7800    1.2080 s6        1 VMX      1.379900
      2 N1          3.4980   -3.7730   -2.4530 nb        1 VMX     -0.907000
      3 C2          2.6360   -3.8720   -1.4040 ca        1 VMX      0.656900
      4 N3          1.3310   -4.2000   -1.3730 nb        1 VMX     -0.795000
      5 C4          0.8450   -4.5710   -2.6040 ca        1 VMX      0.448800
      6 C5          1.6650   -4.5840   -3.8060 ca        1 VMX     -0.205200
      7 C6          3.0400   -4.1710   -3.6980 ca        1 VMX      0.793200
      8 N6          3.8370   -4.1280   -4.8010 nh        1 VMX     -0.918500
      9 N7          0.9010   -5.0110   -4.9010 nc        1 VMX     -0.505100
     10 C8         -0.3230   -5.2420   -4.4100 cd        1 VMX      0.456700
     11 N9         -0.4240   -4.9990   -3.0080 na        1 VMX     -0.275000
     12 C1'        -1.6330   -5.1260   -2.2330 c3        1 VMX      0.257800
     13 C10         3.3120   -0.7880    0.1220 c3        1 VMX     -0.081400
     14 C11         4.0650   -0.3780   -1.1430 c3        1 VMX      0.110800
     15 N12         5.0010   -1.4100   -1.6660 n4        1 VMX     -0.870600
     16 C1S         1.8240   -0.9980   -0.1180 c3        1 VMX     -0.371600
     17 C2'        -1.7230   -6.4140   -1.3540 c3        1 VMX      0.082100
     18 O2'        -2.8770   -7.0870   -1.8080 oh        1 VMX     -0.585800
     19 O2S         1.8270   -2.8980    1.5560 o         1 VMX     -0.539300
     20 C3'        -1.9250   -5.9220    0.0980 c3        1 VMX      0.106100
     21 O3'        -3.1020   -6.4120    0.6780 oh        1 VMX     -0.558800
     22 O3S         0.6240   -0.8670    2.1240 o         1 VMX     -0.539300
     23 C4'        -1.9460   -4.3800    0.0050 c3        1 VMX      0.086100
     24 O4'        -1.7830   -3.9900   -1.3610 os        1 VMX     -0.442600
     25 C5'        -0.8350   -3.7600    0.8700 c3        1 VMX      0.090800
     26 N5'        -0.4540   -2.3860    0.4340 n4        1 VMX     -0.717900
     27 HN6         3.4780   -4.4970   -5.6570 hn        1 VMX      0.467800
     28 HN6A        4.8210   -4.0250   -4.7170 hn        1 VMX      0.467800
     29 H1'        -2.5110   -5.0810   -2.9530 h2        1 VMX      0.140700
     30 H10         3.4450    0.0430    0.8740 hc        1 VMX      0.102700
     31 H10A        3.7570   -1.7170    0.5780 hc        1 VMX      0.102700
     32 H11         4.6760    0.5490   -0.9200 hx        1 VMX      0.121200
     33 H11A        3.3420   -0.1220   -1.9720 hx        1 VMX      0.121200
     34 HN12        5.6580   -1.7000   -0.9350 hn        1 VMX      0.476800
     35 HN1A        5.5370   -1.0150   -2.4460 hn        1 VMX      0.476800
     36 H1S         1.3630    0.0170   -0.3050 h1        1 VMX      0.152700
     37 H1SA        1.7030   -1.5480   -1.0930 h1        1 VMX      0.152700
     38 H2'        -0.8130   -7.0630   -1.4350 h1        1 VMX      0.095700
     39 HO2'       -2.8610   -7.9820   -1.4360 ho        1 VMX      0.452000
     40 H3'        -1.1020   -6.2900    0.7720 h1        1 VMX      0.111700
     41 HO3'       -3.8280   -6.3300    0.0380 ho        1 VMX      0.437000
     42 H4'        -2.9500   -3.9740    0.3210 h1        1 VMX      0.112700
     43 H5'        -1.2070   -3.7120    1.9350 hx        1 VMX      0.130700
     44 H5'A        0.0920   -4.4070    0.8370 hx        1 VMX      0.130700
     45 HN5'       -0.4110   -2.4130   -0.5940 hn        1 VMX      0.475800
     46 H2          3.0880   -3.6680   -0.4050 h5        1 VMX      0.047100
     47 H123        4.4910   -2.2640   -2.0100 hn        1 VMX      0.476800
     48 H5'2       -1.2350   -1.7610    0.6680 hn        1 VMX      0.475800
     49 H8         -1.1890   -5.5980   -4.9920 h5        1 VMX      0.113800
@<TRIPOS>BOND
     1    1   16 1   
     2    1   19 2   
     3    1   22 2   
     4    1   26 1   
     5    2    3 ar  
     6    2    7 ar  
     7    3    4 ar  
     8    3   46 1   
     9    4    5 ar  
    10    5    6 ar  
    11    5   11 1   
    12    6    7 ar  
    13    6    9 1   
    14    7    8 1   
    15    8   27 1   
    16    8   28 1   
    17    9   10 2   
    18   10   11 1   
    19   10   49 1   
    20   11   12 1   
    21   12   17 1   
    22   12   24 1   
    23   12   29 1   
    24   13   14 1   
    25   13   16 1   
    26   13   30 1   
    27   13   31 1   
    28   14   15 1   
    29   14   32 1   
    30   14   33 1   
    31   15   34 1   
    32   15   35 1   
    33   15   47 1   
    34   16   36 1   
    35   16   37 1   
    36   17   18 1   
    37   17   20 1   
    38   17   38 1   
    39   18   39 1   
    40   20   21 1   
    41   20   23 1   
    42   20   40 1   
    43   21   41 1   
    44   23   24 1   
    45   23   25 1   
    46   23   42 1   
    47   25   26 1   
    48   25   43 1   
    49   25   44 1   
    50   26   45 1   
    51   26   48 1   
@<TRIPOS>SUBSTRUCTURE
     1 VMX         1 TEMP              0 ****  ****    0 ROOT
