@<TRIPOS>MOLECULE
VMX
   50    52     1     0     0
SMALL
bcc


@<TRIPOS>ATOM
      1 S           1.3750   -0.8820    0.5710 s6        1 VMX      1.376900
      2 N1         -0.4270   -8.3700   -6.4330 nb        1 VMX     -0.659000
      3 C2         -1.2000   -7.3680   -5.9190 ca        1 VMX      0.695900
      4 N3         -1.0740   -6.7340   -4.7240 nb        1 VMX     -0.628000
      5 C4         -0.0350   -7.1730   -3.9730 ca        1 VMX      0.467800
      6 C5          0.8870   -8.2400   -4.4130 ca        1 VMX     -0.144200
      7 C6          0.6080   -8.8040   -5.6750 ca        1 VMX      0.549200
      8 N6          1.4530   -9.9050   -6.1740 n4        1 VMX     -0.820300
      9 N7          1.8580   -8.4700   -3.4290 nc        1 VMX     -0.545100
     10 C8          1.5590   -7.6180   -2.4370 cd        1 VMX      0.486700
     11 N9          0.4200   -6.8090   -2.6890 na        1 VMX     -0.281000
     12 C1'        -0.2170   -5.8460   -1.8300 c3        1 VMX      0.235800
     13 C10         1.6870    1.7230    0.9180 c3        1 VMX     -0.086400
     14 C11         2.2980    3.0240    0.4000 c3        1 VMX      0.109800
     15 N12         2.0160    4.1970    1.2760 n4        1 VMX     -0.838600
     16 C1S         2.0230    0.5730   -0.0210 c3        1 VMX     -0.366600
     17 C2'        -0.4190   -6.3310   -0.3490 c3        1 VMX      0.084100
     18 O2'        -1.7820   -6.1410   -0.0490 oh        1 VMX     -0.584800
     19 O2S         2.0040   -1.2560    1.7340 o         1 VMX     -0.524800
     20 C3'         0.4090   -5.3460    0.5080 c3        1 VMX      0.123100
     21 O3'        -0.2010   -4.9340    1.6960 oh        1 VMX     -0.566800
     22 O3S         0.0190   -0.9460    0.3530 o         1 VMX     -0.524800
     23 C4'         0.6250   -4.1400   -0.4390 c3        1 VMX      0.066100
     24 O4'         0.5690   -4.6230   -1.7820 os        1 VMX     -0.436600
     25 C5'         1.9910   -3.4830   -0.2150 c3        1 VMX      0.091800
     26 N5'         2.0450   -2.0710   -0.7030 n4        1 VMX     -0.720900
     27 HN6         2.4400   -9.6820   -5.9870 hn        1 VMX      0.487800
     28 HN6A        1.2010  -10.7690   -5.6730 hn        1 VMX      0.487800
     29 H1'        -1.2160   -5.5560   -2.2850 h2        1 VMX      0.152700
     30 H10         2.0900    1.4930    1.9460 hc        1 VMX      0.099700
     31 H10A        0.5680    1.8300    0.9920 hc        1 VMX      0.099700
     32 H11         1.8900    3.2590   -0.6270 hx        1 VMX      0.125200
     33 H11A        3.4220    2.9190    0.3240 hx        1 VMX      0.125200
     34 HN12        1.0040    4.3600    1.3530 hn        1 VMX      0.479467
     35 HN1A        2.4540    5.0390    0.8740 hn        1 VMX      0.479467
     36 H1S         3.1440    0.5420   -0.1360 h1        1 VMX      0.154700
     37 H1SA        1.6310    0.8390   -1.0450 h1        1 VMX      0.154700
     38 H2'        -0.0870   -7.3870   -0.1850 h1        1 VMX      0.097700
     39 HO2'       -2.1570   -6.9860    0.2390 ho        1 VMX      0.457000
     40 H3'         1.3890   -5.8060    0.8140 h1        1 VMX      0.100700
     41 HO3'       -1.1670   -4.9260    1.5770 ho        1 VMX      0.451000
     42 H4'        -0.2220   -3.4060   -0.3000 h1        1 VMX      0.096700
     43 H5'         2.2300   -3.4880    0.8920 hx        1 VMX      0.134200
     44 H5'A        2.7800   -4.0850   -0.7550 hx        1 VMX      0.134200
     45 HN5'        3.0140   -1.8690   -0.9510 hn        1 VMX      0.468300
     46 H2         -2.0460   -7.0360   -6.5710 h5        1 VMX      0.117100
     47 H63         1.3150  -10.0500   -7.1860 hn        1 VMX      0.487800
     48 H123        2.3960    4.0490    2.2190 hn        1 VMX      0.479467
     49 H5'2        1.4970   -2.0310   -1.5690 hn        1 VMX      0.468300
     50 H8          2.1230   -7.5400   -1.4950 h5        1 VMX      0.097800
@<TRIPOS>BOND
     1    1   16 1   
     2    1   19 2   
     3    1   22 2   
     4    1   26 1   
     5    2    3 ar  
     6    2    7 ar  
     7    3    4 ar  
     8    3   46 1   
     9    4    5 ar  
    10    5    6 ar  
    11    5   11 1   
    12    6    7 ar  
    13    6    9 1   
    14    7    8 1   
    15    8   27 1   
    16    8   28 1   
    17    8   47 1   
    18    9   10 2   
    19   10   11 1   
    20   10   50 1   
    21   11   12 1   
    22   12   17 1   
    23   12   24 1   
    24   12   29 1   
    25   13   14 1   
    26   13   16 1   
    27   13   30 1   
    28   13   31 1   
    29   14   15 1   
    30   14   32 1   
    31   14   33 1   
    32   15   34 1   
    33   15   35 1   
    34   15   48 1   
    35   16   36 1   
    36   16   37 1   
    37   17   18 1   
    38   17   20 1   
    39   17   38 1   
    40   18   39 1   
    41   20   21 1   
    42   20   23 1   
    43   20   40 1   
    44   21   41 1   
    45   23   24 1   
    46   23   25 1   
    47   23   42 1   
    48   25   26 1   
    49   25   43 1   
    50   25   44 1   
    51   26   45 1   
    52   26   49 1   
@<TRIPOS>SUBSTRUCTURE
     1 VMX         1 TEMP              0 ****  ****    0 ROOT
