@<TRIPOS>MOLECULE
VMX
   47    49     1     0     0
SMALL
bcc


@<TRIPOS>ATOM
      1 S          -3.8650    0.4180    0.2390 s6        1 VMX      1.456900
      2 N1          5.5080   -1.7580   -0.7290 nb        1 VMX     -0.794000
      3 C2          5.4610   -0.4010   -0.6940 ca        1 VMX      0.692900
      4 N3          4.4470    0.4300   -0.3530 nb        1 VMX     -0.759000
      5 C4          3.3160   -0.2480    0.0080 ca        1 VMX      0.453800
      6 C5          3.2070   -1.7020    0.0210 ca        1 VMX     -0.230200
      7 C6          4.3700   -2.4470   -0.3730 ca        1 VMX      0.767200
      8 N6          4.3340   -3.8140   -0.4070 nh        1 VMX     -0.956500
      9 N7          1.9240   -2.0830    0.4440 nc        1 VMX     -0.545100
     10 C8          1.2760   -0.9330    0.6790 cd        1 VMX      0.418700
     11 N9          2.0600    0.2190    0.4250 na        1 VMX     -0.294000
     12 C1'         1.7270    1.6070    0.6530 c3        1 VMX      0.227800
     13 C10        -5.3140   -1.6730   -0.5460 c3        1 VMX     -0.062400
     14 C11        -5.3410   -3.1520   -0.9310 c3        1 VMX      0.169800
     15 N12        -6.6620   -3.6240   -1.2720 n3        1 VMX     -0.916800
     16 C1S        -3.8950   -1.2260   -0.2770 c3        1 VMX     -0.316600
     17 C2'         1.8870    2.5050   -0.6180 c3        1 VMX      0.082100
     18 O2'         2.5980    3.6710   -0.2620 oh        1 VMX     -0.592800
     19 O2S        -4.3390    1.2230   -0.8160 o         1 VMX     -0.647800
     20 C3'         0.4490    2.9120   -1.0110 c3        1 VMX      0.132100
     21 O3'         0.2660    4.2980   -1.1410 oh        1 VMX     -0.569800
     22 O3S        -4.5370    0.4980    1.4750 o         1 VMX     -0.647800
     23 C4'        -0.4580    2.3160    0.0880 c3        1 VMX      0.078100
     24 O4'         0.3740    1.7300    1.1010 os        1 VMX     -0.413600
     25 C5'        -1.3990    1.2450   -0.4890 c3        1 VMX      0.207800
     26 N5'        -2.2880    0.6780    0.4800 n3        1 VMX     -0.925100
     27 HN6         5.1440   -4.3360   -0.6350 hn        1 VMX      0.451300
     28 HN6A        3.5210   -4.2800   -0.0910 hn        1 VMX      0.451300
     29 H8          0.2440   -0.8340    1.0360 h5        1 VMX      0.079800
     30 H1'         2.3650    1.9980    1.5030 h2        1 VMX      0.107700
     31 H10        -5.7520   -1.0550   -1.3760 hc        1 VMX      0.069200
     32 H10A       -5.9380   -1.5070    0.3730 hc        1 VMX      0.069200
     33 H11        -4.6870   -3.3030   -1.8380 h1        1 VMX      0.024700
     34 H11A       -4.8740   -3.7400   -0.0850 h1        1 VMX      0.024700
     35 HN12       -6.6520   -4.6140   -1.4110 hn        1 VMX      0.352800
     36 HN1A       -7.3250   -3.3950   -0.5600 hn        1 VMX      0.352800
     37 H1S        -3.2920   -1.3830   -1.2090 h1        1 VMX      0.107700
     38 H1SA       -3.4460   -1.9090    0.4920 h1        1 VMX      0.107700
     39 H2'         2.3930    1.9700   -1.4630 h1        1 VMX      0.087700
     40 HO2'        3.5380    3.4520   -0.3090 ho        1 VMX      0.435000
     41 H3'         0.1860    2.4970   -2.0240 h1        1 VMX      0.096700
     42 HO3'        0.6920    4.7350   -0.3890 ho        1 VMX      0.427000
     43 H4'        -1.0360    3.1250    0.6140 h1        1 VMX      0.100700
     44 H5'        -2.0040    1.7260   -1.3140 h1        1 VMX      0.063700
     45 H5'A       -0.7620    0.4270   -0.9380 h1        1 VMX      0.063700
     46 HN5'       -1.8610    0.5290    1.3650 hn        1 VMX      0.457800
     47 H2          6.4070    0.1010   -0.9920 h5        1 VMX      0.053100
@<TRIPOS>BOND
     1    1   16 1   
     2    1   19 2   
     3    1   22 2   
     4    1   26 1   
     5    2    3 ar  
     6    2    7 ar  
     7    3    4 ar  
     8    3   47 1   
     9    4    5 ar  
    10    5    6 ar  
    11    5   11 1   
    12    6    7 ar  
    13    6    9 1   
    14    7    8 1   
    15    8   27 1   
    16    8   28 1   
    17    9   10 2   
    18   10   11 1   
    19   10   29 1   
    20   11   12 1   
    21   12   17 1   
    22   12   24 1   
    23   12   30 1   
    24   13   14 1   
    25   13   16 1   
    26   13   31 1   
    27   13   32 1   
    28   14   15 1   
    29   14   33 1   
    30   14   34 1   
    31   15   35 1   
    32   15   36 1   
    33   16   37 1   
    34   16   38 1   
    35   17   18 1   
    36   17   20 1   
    37   17   39 1   
    38   18   40 1   
    39   20   21 1   
    40   20   23 1   
    41   20   41 1   
    42   21   42 1   
    43   23   24 1   
    44   23   25 1   
    45   23   43 1   
    46   25   26 1   
    47   25   44 1   
    48   25   45 1   
    49   26   46 1   
@<TRIPOS>SUBSTRUCTURE
     1 VMX         1 TEMP              0 ****  ****    0 ROOT
