@<TRIPOS>MOLECULE
VMX
   49    51     1     0     0
SMALL
bcc


@<TRIPOS>ATOM
      1 S           1.1350   -1.9050    1.2920 s6        1 VMX      1.379900
      2 N1          3.4710   -3.6780   -2.5210 nb        1 VMX     -0.907000
      3 C2          2.6350   -3.8410   -1.4590 ca        1 VMX      0.656900
      4 N3          1.3340   -4.1840   -1.4160 nb        1 VMX     -0.795000
      5 C4          0.8230   -4.4960   -2.6530 ca        1 VMX      0.448800
      6 C5          1.6150   -4.4360   -3.8730 ca        1 VMX     -0.205200
      7 C6          2.9880   -4.0140   -3.7750 ca        1 VMX      0.793200
      8 N6          3.7590   -3.9040   -4.8920 nv        1 VMX     -0.918500
      9 N7          0.8310   -4.8130   -4.9710 nc        1 VMX     -0.505100
     10 C8         -0.3800   -5.0830   -4.4660 cd        1 VMX      0.456700
     11 N9         -0.4500   -4.9150   -3.0510 na        1 VMX     -0.275000
     12 C1'        -1.6400   -5.0970   -2.2570 c3        1 VMX      0.257800
     13 C10         3.3150   -0.8330    0.2110 c3        1 VMX     -0.081400
     14 C11         4.0350   -0.3490   -1.0470 c3        1 VMX      0.110800
     15 N12         4.9690   -1.3430   -1.6440 nz        1 VMX     -0.870600
     16 C1S         1.8240   -1.0470   -0.0070 c3        1 VMX     -0.371600
     17 C2'        -1.6970   -6.4290   -1.4440 c3        1 VMX      0.082100
     18 O2'        -2.8540   -7.0910   -1.9070 oh        1 VMX     -0.585800
     19 O2S         1.8840   -3.0310    1.5650 o         1 VMX     -0.539300
     20 C3'        -1.8710   -6.0160    0.0350 c3        1 VMX      0.106100
     21 O3'        -3.0300   -6.5480    0.6150 oh        1 VMX     -0.558800
     22 O3S         0.6740   -1.0460    2.2660 o         1 VMX     -0.539300
     23 C4'        -1.9090   -4.4720    0.0230 c3        1 VMX      0.086100
     24 O4'        -1.7820   -4.0090   -1.3230 os        1 VMX     -0.442600
     25 C5'        -0.7840   -3.8850    0.8950 c3        1 VMX      0.090800
     26 N5'        -0.4270   -2.4860    0.5220 ny        1 VMX     -0.717900
     27 HN6         4.7430   -3.7950   -4.8240 hn        1 VMX      0.467800
     28 HN6A        3.3840   -4.2320   -5.7570 hn        1 VMX      0.467800
     29 H1'        -2.5350   -5.0240   -2.9530 h2        1 VMX      0.140700
     30 H10         3.7790   -1.7800    0.6070 hc        1 VMX      0.102700
     31 H10A        3.4570   -0.0420    1.0030 hc        1 VMX      0.102700
     32 H11         4.6430    0.5710   -0.7890 hx        1 VMX      0.121200
     33 H11A        3.2910   -0.0580   -1.8450 hx        1 VMX      0.121200
     34 HN12        5.4830   -0.9010   -2.4140 hn        1 VMX      0.476800
     35 HN1A        5.6450   -1.6640   -0.9440 hn        1 VMX      0.476800
     36 H1S         1.6860   -1.5470   -1.0050 h1        1 VMX      0.152700
     37 H1SA        1.3490   -0.0290   -0.1300 h1        1 VMX      0.152700
     38 H2'        -0.7820   -7.0630   -1.5800 h1        1 VMX      0.095700
     39 HO2'       -2.8200   -8.0040   -1.5820 ho        1 VMX      0.452000
     40 H3'        -1.0290   -6.4100    0.6710 h1        1 VMX      0.111700
     41 HO3'       -3.7710   -6.4410   -0.0040 ho        1 VMX      0.437000
     42 H4'        -2.9090   -4.0940    0.3830 h1        1 VMX      0.112700
     43 H5'        -1.1330   -3.8970    1.9690 hx        1 VMX      0.130700
     44 H5'A        0.1480   -4.5200    0.8070 hx        1 VMX      0.130700
     45 HN5'       -0.4080   -2.4600   -0.5060 hn        1 VMX      0.475800
     46 H2          3.1070   -3.6840   -0.4610 h5        1 VMX      0.047100
     47 H123        4.4590   -2.1830   -2.0210 hn        1 VMX      0.476800
     48 H5'2       -1.2090   -1.8830    0.8070 hn        1 VMX      0.475800
     49 H8         -1.2550   -5.4180   -5.0470 h5        1 VMX      0.113800
@<TRIPOS>BOND
     1    1   16 1   
     2    1   19 2   
     3    1   22 2   
     4    1   26 1   
     5    2    3 ar  
     6    2    7 ar  
     7    3    4 ar  
     8    3   46 1   
     9    4    5 ar  
    10    5    6 ar  
    11    5   11 1   
    12    6    7 ar  
    13    6    9 1   
    14    7    8 1   
    15    8   27 1   
    16    8   28 1   
    17    9   10 2   
    18   10   11 1   
    19   10   49 1   
    20   11   12 1   
    21   12   17 1   
    22   12   24 1   
    23   12   29 1   
    24   13   14 1   
    25   13   16 1   
    26   13   30 1   
    27   13   31 1   
    28   14   15 1   
    29   14   32 1   
    30   14   33 1   
    31   15   34 1   
    32   15   35 1   
    33   15   47 1   
    34   16   36 1   
    35   16   37 1   
    36   17   18 1   
    37   17   20 1   
    38   17   38 1   
    39   18   39 1   
    40   20   21 1   
    41   20   23 1   
    42   20   40 1   
    43   21   41 1   
    44   23   24 1   
    45   23   25 1   
    46   23   42 1   
    47   25   26 1   
    48   25   43 1   
    49   25   44 1   
    50   26   45 1   
    51   26   48 1   
@<TRIPOS>SUBSTRUCTURE
     1 VMX         1 TEMP              0 ****  ****    0 ROOT
