@<TRIPOS>MOLECULE
VMY
   46    49     1     0     0
SMALL
bcc


@<TRIPOS>ATOM
      1 F1          0.4690    3.6050   -0.4040 f         1 VMY     -0.130900
      2 C13         1.7680    3.2340   -0.4670 ca        1 VMY      0.175900
      3 C14         2.7330    3.9590    0.2550 ca        1 VMY     -0.171500
      4 C15         4.0700    3.5790    0.1900 ca        1 VMY     -0.050000
      5 C16         4.4690    2.4930   -0.5850 ca        1 VMY     -0.171500
      6 C17         3.5060    1.7680   -1.3060 ca        1 VMY      0.175900
      7 F           3.8890    0.7130   -2.0650 f         1 VMY     -0.130900
      8 C12         2.1400    2.1200   -1.2500 ca        1 VMY     -0.227300
      9 C11         1.1120    1.3010   -1.9570 c3        1 VMY      0.099600
     10 N4          0.9220    1.6910   -3.3620 na        1 VMY      0.150400
     11 C10         1.7590    1.2680   -4.4090 cc        1 VMY     -0.104300
     12 C9          1.2750    1.8510   -5.5890 cd        1 VMY     -0.239300
     13 N5         -0.0390    2.5010   -3.7760 nc        1 VMY     -0.462800
     14 C8          0.1310    2.6190   -5.1470 cd        1 VMY      0.294200
     15 N3         -0.7490    3.3820   -6.0100 n4        1 VMY     -0.623400
     16 C7         -0.8030    4.7940   -5.6810 cc        1 VMY      0.206300
     17 N2         -1.1250    5.7270   -6.6670 nd        1 VMY     -0.261000
     18 N1         -1.1510    6.9180   -6.2180 nd        1 VMY     -0.278000
     19 S1         -0.5240    5.5110   -4.1670 ss        1 VMY      0.273200
     20 C6         -0.8490    6.9940   -4.8690 cc        1 VMY      0.321700
     21 C4         -0.7880    8.3130   -4.1360 c3        1 VMY      0.122200
     22 C5         -1.9660    9.2130   -4.4970 c3        1 VMY     -0.123100
     23 O          -0.8690    7.9620   -2.7520 oh        1 VMY     -0.606800
     24 C3          0.5240    8.9760   -4.4630 cc        1 VMY      0.267700
     25 S           0.6320   10.4740   -5.2700 ss        1 VMY      0.050700
     26 C2          2.2850   10.4230   -5.2090 cc        1 VMY     -0.264400
     27 N           1.7070    8.4210   -4.1520 nd        1 VMY     -0.630000
     28 C1          2.7300    9.2560   -4.5770 cd        1 VMY      0.349600
     29 C           4.1570    8.9210   -4.3650 c3        1 VMY     -0.127400
     30 H14         2.4180    4.8180    0.8680 ha        1 VMY      0.171000
     31 H15         4.8250    4.1460    0.7600 ha        1 VMY      0.164000
     32 H16         5.5270    2.1920   -0.6360 ha        1 VMY      0.171000
     33 H111        0.1200    1.3850   -1.4210 h1        1 VMY      0.108200
     34 H112        1.4310    0.2180   -1.9770 h1        1 VMY      0.108200
     35 H10         2.6130    0.6060   -4.2330 h4        1 VMY      0.221000
     36 H9          1.6660    1.7510   -6.5970 ha        1 VMY      0.196000
     37 H3         -1.7080    2.9980   -5.9470 hn        1 VMY      0.476800
     38 H51C       -2.9240    8.6700   -4.3150 hc        1 VMY      0.070367
     39 H52C       -1.9490   10.1250   -3.8520 hc        1 VMY      0.070367
     40 H53C       -1.9170    9.5170   -5.5710 hc        1 VMY      0.070367
     41 H          -0.5170    8.7010   -2.2410 ho        1 VMY      0.442000
     42 H2          2.9430   11.1960   -5.6070 h4        1 VMY      0.197000
     43 HC1         4.8040    9.7310   -4.7850 hc        1 VMY      0.057700
     44 HC2         4.4140    7.9580   -4.8720 hc        1 VMY      0.057700
     45 HC3         4.3770    8.8150   -3.2730 hc        1 VMY      0.057700
     46 H32        -0.4080    3.2660   -6.9790 hn        1 VMY      0.476800
@<TRIPOS>BOND
     1    1    2 1   
     2    2    3 ar  
     3    2    8 ar  
     4    3    4 ar  
     5    3   30 1   
     6    4    5 ar  
     7    4   31 1   
     8    5    6 ar  
     9    5   32 1   
    10    6    7 1   
    11    6    8 ar  
    12    8    9 1   
    13    9   10 1   
    14    9   33 1   
    15    9   34 1   
    16   10   11 1   
    17   10   13 1   
    18   11   12 2   
    19   11   35 1   
    20   12   14 1   
    21   12   36 1   
    22   13   14 2   
    23   14   15 1   
    24   15   16 1   
    25   15   37 1   
    26   15   46 1   
    27   16   17 2   
    28   16   19 1   
    29   17   18 1   
    30   18   20 2   
    31   19   20 1   
    32   20   21 1   
    33   21   22 1   
    34   21   23 1   
    35   21   24 1   
    36   22   38 1   
    37   22   39 1   
    38   22   40 1   
    39   23   41 1   
    40   24   25 1   
    41   24   27 2   
    42   25   26 1   
    43   26   28 2   
    44   26   42 1   
    45   27   28 1   
    46   28   29 1   
    47   29   43 1   
    48   29   44 1   
    49   29   45 1   
@<TRIPOS>SUBSTRUCTURE
     1 VMY         1 TEMP              0 ****  ****    0 ROOT
