@<TRIPOS>MOLECULE
VMY
   45    48     1     0     0
SMALL
bcc


@<TRIPOS>ATOM
      1 F1         -0.1280    0.2570    0.2340 f         1 VMY     -0.129900
      2 C13         1.1540   -0.1570    0.1210 ca        1 VMY      0.174400
      3 C14         1.8540   -0.5500    1.2770 ca        1 VMY     -0.183500
      4 C15         3.1710   -0.9840    1.1700 ca        1 VMY     -0.069000
      5 C16         3.8070   -1.0370   -0.0670 ca        1 VMY     -0.183500
      6 C17         3.1080   -0.6430   -1.2220 ca        1 VMY      0.174400
      7 F           3.7310   -0.6960   -2.4240 f         1 VMY     -0.129900
      8 C12         1.7710   -0.2010   -1.1460 ca        1 VMY     -0.196300
      9 C11         1.0250    0.2000   -2.3830 c3        1 VMY      0.109600
     10 N4          1.2020    1.5930   -2.7540 na        1 VMY      0.091400
     11 C10         2.2820    2.0700   -3.5150 cc        1 VMY     -0.138300
     12 C9          2.1880    3.4620   -3.5370 cd        1 VMY     -0.252300
     13 N5          0.4490    2.5870   -2.2640 nc        1 VMY     -0.535800
     14 C8          1.0130    3.7600   -2.7270 cd        1 VMY      0.490200
     15 N3          0.5530    5.0500   -2.3870 nu        1 VMY     -0.745600
     16 C7          0.3290    5.9820   -3.3980 cc        1 VMY      0.560300
     17 N2          0.6740    5.8620   -4.7260 nd        1 VMY     -0.362000
     18 N1          0.4490    6.9390   -5.4080 nd        1 VMY     -0.299000
     19 S1         -0.3140    7.5600   -3.0360 ss        1 VMY     -0.095800
     20 C6         -0.0830    7.9570   -4.6860 cc        1 VMY      0.288700
     21 C4         -0.4600    9.2810   -5.2930 c3        1 VMY      0.130200
     22 C5         -1.4550    9.0840   -6.4380 c3        1 VMY     -0.111100
     23 O          -1.0770   10.0210   -4.2380 oh        1 VMY     -0.604800
     24 C3          0.7660   10.0020   -5.8030 cc        1 VMY      0.328700
     25 S           2.2880    9.2480   -6.0130 ss        1 VMY      0.026700
     26 C2          2.9480   10.6640   -6.5710 cc        1 VMY     -0.290400
     27 N           0.7390   11.2970   -6.1470 nd        1 VMY     -0.644000
     28 C1          1.9970   11.6870   -6.5900 cd        1 VMY      0.347600
     29 C           2.2720   13.0710   -7.0370 c3        1 VMY     -0.123400
     30 H14         1.3510   -0.5060    2.2540 ha        1 VMY      0.157500
     31 H15         3.7190   -1.2880    2.0760 ha        1 VMY      0.147000
     32 H16         4.8490   -1.3790   -0.1540 ha        1 VMY      0.157500
     33 H111       -0.0770    0.0020   -2.2300 h1        1 VMY      0.086700
     34 H112        1.3910   -0.4170   -3.2540 h1        1 VMY      0.086700
     35 H10         3.0040    1.3910   -3.9700 h4        1 VMY      0.183000
     36 H9          2.8180    4.1760   -4.0540 ha        1 VMY      0.183000
     37 H3         -0.1760    5.0480   -1.6950 hn        1 VMY      0.427800
     38 H51C       -0.9910    8.4880   -7.2580 hc        1 VMY      0.058700
     39 H52C       -1.7670   10.0780   -6.8410 hc        1 VMY      0.058700
     40 H53C       -2.3570    8.5480   -6.0590 hc        1 VMY      0.058700
     41 H          -1.3230   10.8830   -4.5970 ho        1 VMY      0.435000
     42 H2          3.9830   10.7790   -6.8840 h4        1 VMY      0.181000
     43 HC1         2.0750   13.7960   -6.2090 hc        1 VMY      0.050700
     44 HC2         3.3400   13.1640   -7.3510 hc        1 VMY      0.050700
     45 HC3         1.6170   13.3410   -7.9030 hc        1 VMY      0.050700
@<TRIPOS>BOND
     1    1    2 1   
     2    2    3 ar  
     3    2    8 ar  
     4    3    4 ar  
     5    3   30 1   
     6    4    5 ar  
     7    4   31 1   
     8    5    6 ar  
     9    5   32 1   
    10    6    7 1   
    11    6    8 ar  
    12    8    9 1   
    13    9   10 1   
    14    9   33 1   
    15    9   34 1   
    16   10   11 1   
    17   10   13 1   
    18   11   12 2   
    19   11   35 1   
    20   12   14 1   
    21   12   36 1   
    22   13   14 2   
    23   14   15 1   
    24   15   16 1   
    25   15   37 1   
    26   16   17 2   
    27   16   19 1   
    28   17   18 1   
    29   18   20 2   
    30   19   20 1   
    31   20   21 1   
    32   21   22 1   
    33   21   23 1   
    34   21   24 1   
    35   22   38 1   
    36   22   39 1   
    37   22   40 1   
    38   23   41 1   
    39   24   25 1   
    40   24   27 2   
    41   25   26 1   
    42   26   28 2   
    43   26   42 1   
    44   27   28 1   
    45   28   29 1   
    46   29   43 1   
    47   29   44 1   
    48   29   45 1   
@<TRIPOS>SUBSTRUCTURE
     1 VMY         1 TEMP              0 ****  ****    0 ROOT
