@<TRIPOS>MOLECULE
VMY
   45    48     1     0     0
SMALL
bcc


@<TRIPOS>ATOM
      1 F1         -0.1360    0.2520    0.2210 f         1 VMY     -0.129900
      2 C13         1.1490   -0.1580    0.1180 ca        1 VMY      0.174400
      3 C14         1.8410   -0.5470    1.2800 ca        1 VMY     -0.183500
      4 C15         3.1600   -0.9770    1.1830 ca        1 VMY     -0.069000
      5 C16         3.8060   -1.0310   -0.0490 ca        1 VMY     -0.183500
      6 C17         3.1150   -0.6410   -1.2090 ca        1 VMY      0.174400
      7 F           3.7470   -0.6940   -2.4070 f         1 VMY     -0.129900
      8 C12         1.7750   -0.2030   -1.1440 ca        1 VMY     -0.196300
      9 C11         1.0370    0.1940   -2.3870 c3        1 VMY      0.109600
     10 N4          1.2100    1.5870   -2.7580 na        1 VMY      0.091400
     11 C10         2.2940    2.0680   -3.5100 cc        1 VMY     -0.138300
     12 C9          2.1940    3.4610   -3.5330 cd        1 VMY     -0.252300
     13 N5          0.4490    2.5780   -2.2740 nc        1 VMY     -0.535800
     14 C8          1.0110    3.7530   -2.7320 cd        1 VMY      0.490200
     15 N3          0.5430    5.0410   -2.3960 nh        1 VMY     -0.745600
     16 C7          0.3240    5.9730   -3.4080 cc        1 VMY      0.560300
     17 N2          0.6830    5.8570   -4.7320 nd        1 VMY     -0.362000
     18 N1          0.4600    6.9340   -5.4150 nd        1 VMY     -0.299000
     19 S1         -0.3320    7.5460   -3.0510 ss        1 VMY     -0.095800
     20 C6         -0.0850    7.9470   -4.6970 cc        1 VMY      0.288700
     21 C4         -0.4640    9.2700   -5.3070 c3        1 VMY      0.130200
     22 C5         -1.4430    9.0700   -6.4640 c3        1 VMY     -0.111100
     23 O          -1.0990   10.0040   -4.2580 oh        1 VMY     -0.604800
     24 C3          0.7650   10.0000   -5.7990 cc        1 VMY      0.328700
     25 S           2.2930    9.2550   -5.9930 ss        1 VMY      0.026700
     26 C2          2.9510   10.6770   -6.5380 cc        1 VMY     -0.290400
     27 N           0.7340   11.2960   -6.1390 nd        1 VMY     -0.644000
     28 C1          1.9950   11.6940   -6.5660 cd        1 VMY      0.347600
     29 C           2.2670   13.0810   -7.0060 c3        1 VMY     -0.123400
     30 H14         1.3310   -0.5030    2.2530 ha        1 VMY      0.157500
     31 H15         3.7030   -1.2780    2.0940 ha        1 VMY      0.147000
     32 H16         4.8490   -1.3700   -0.1270 ha        1 VMY      0.157500
     33 H111       -0.0650   -0.0110   -2.2430 h1        1 VMY      0.086700
     34 H112        1.4120   -0.4220   -3.2560 h1        1 VMY      0.086700
     35 H10         3.0220    1.3930   -3.9600 h4        1 VMY      0.183000
     36 H9          2.8250    4.1770   -4.0460 ha        1 VMY      0.183000
     37 H3         -0.1920    5.0350   -1.7100 hn        1 VMY      0.428800
     38 H51C       -0.9640    8.4790   -7.2800 hc        1 VMY      0.058700
     39 H52C       -2.3460    8.5270   -6.0980 hc        1 VMY      0.058700
     40 H53C       -1.7550   10.0620   -6.8690 hc        1 VMY      0.058700
     41 H          -1.3460   10.8660   -4.6180 ho        1 VMY      0.435000
     42 H2          3.9900   10.7980   -6.8380 h4        1 VMY      0.181000
     43 HC1         2.0580   13.8030   -6.1770 hc        1 VMY      0.050700
     44 HC2         1.6200   13.3510   -7.8770 hc        1 VMY      0.050700
     45 HC3         3.3380   13.1810   -7.3080 hc        1 VMY      0.050700
@<TRIPOS>BOND
     1    1    2 1   
     2    2    3 ar  
     3    2    8 ar  
     4    3    4 ar  
     5    3   30 1   
     6    4    5 ar  
     7    4   31 1   
     8    5    6 ar  
     9    5   32 1   
    10    6    7 1   
    11    6    8 ar  
    12    8    9 1   
    13    9   10 1   
    14    9   33 1   
    15    9   34 1   
    16   10   11 1   
    17   10   13 1   
    18   11   12 2   
    19   11   35 1   
    20   12   14 1   
    21   12   36 1   
    22   13   14 2   
    23   14   15 1   
    24   15   16 1   
    25   15   37 1   
    26   16   17 2   
    27   16   19 1   
    28   17   18 1   
    29   18   20 2   
    30   19   20 1   
    31   20   21 1   
    32   21   22 1   
    33   21   23 1   
    34   21   24 1   
    35   22   38 1   
    36   22   39 1   
    37   22   40 1   
    38   23   41 1   
    39   24   25 1   
    40   24   27 2   
    41   25   26 1   
    42   26   28 2   
    43   26   42 1   
    44   27   28 1   
    45   28   29 1   
    46   29   43 1   
    47   29   44 1   
    48   29   45 1   
@<TRIPOS>SUBSTRUCTURE
     1 VMY         1 TEMP              0 ****  ****    0 ROOT
