@<TRIPOS>MOLECULE
VMY
   45    48     1     0     0
SMALL
bcc


@<TRIPOS>ATOM
      1 F1         -5.8510   -2.0680   -0.8090 f         1 VMY     -0.129900
      2 C13        -6.3080   -0.7970   -0.7260 ca        1 VMY      0.174400
      3 C14        -7.2360   -0.3370   -1.6800 ca        1 VMY     -0.183500
      4 C15        -7.7160    0.9660   -1.5990 ca        1 VMY     -0.069000
      5 C16        -7.2930    1.8220   -0.5860 ca        1 VMY     -0.183500
      6 C17        -6.3650    1.3620    0.3660 ca        1 VMY      0.174400
      7 F          -5.9560    2.1980    1.3500 f         1 VMY     -0.129900
      8 C12        -5.8620    0.0460    0.3120 ca        1 VMY     -0.196300
      9 C11        -4.8870   -0.4450    1.3400 c3        1 VMY      0.109600
     10 N4         -3.4980   -0.1680    1.0180 na        1 VMY      0.091400
     11 C10        -2.8550    1.0470    1.3040 cc        1 VMY     -0.138300
     12 C9         -1.5900    0.9930    0.7170 cd        1 VMY     -0.252300
     13 N5         -2.7430   -0.9760    0.2610 nc        1 VMY     -0.535800
     14 C8         -1.5520   -0.3060    0.0560 cd        1 VMY      0.490200
     15 N3         -0.4980   -0.7910   -0.7470 nh        1 VMY     -0.745600
     16 C7          0.7990   -0.7980   -0.2380 cc        1 VMY      0.560300
     17 N2          1.2320   -0.2110    0.9300 nd        1 VMY     -0.362000
     18 N1          2.5160   -0.2780    1.0850 nd        1 VMY     -0.299000
     19 S1          2.1200   -1.4600   -1.1590 ss        1 VMY     -0.095800
     20 C6          3.1680   -0.9120    0.0790 cc        1 VMY      0.288700
     21 C4          4.6570   -1.1360    0.0820 c3        1 VMY      0.130200
     22 C5          5.0830   -1.9010    1.3360 c3        1 VMY     -0.111100
     23 O           4.9240   -1.9240   -1.0800 oh        1 VMY     -0.604800
     24 C3          5.3930    0.1810    0.0140 cc        1 VMY      0.328700
     25 S           4.6500    1.6970    0.2940 ss        1 VMY      0.026700
     26 C2          6.0900    2.4840    0.0470 cc        1 VMY     -0.290400
     27 N           6.7040    0.2500   -0.2580 nd        1 VMY     -0.644000
     28 C1          7.1130    1.5790   -0.2420 cd        1 VMY      0.347600
     29 C           8.5160    1.9660   -0.5100 c3        1 VMY     -0.123400
     30 H14        -7.5670   -1.0130   -2.4810 ha        1 VMY      0.157500
     31 H15        -8.4390    1.3260   -2.3480 ha        1 VMY      0.147000
     32 H16        -7.6710    2.8520   -0.5210 ha        1 VMY      0.157500
     33 H111       -5.0990    0.0630    2.3260 h1        1 VMY      0.086700
     34 H112       -5.0160   -1.5600    1.4680 h1        1 VMY      0.086700
     35 H10        -3.3410    1.8250    1.8950 h4        1 VMY      0.183000
     36 H9         -0.7930    1.7260    0.7540 ha        1 VMY      0.183000
     37 H3         -0.7240   -1.6370   -1.2400 hn        1 VMY      0.427800
     38 H51C        4.5340   -2.8710    1.3850 hc        1 VMY      0.058700
     39 H52C        6.1800   -2.1070    1.2950 hc        1 VMY      0.058700
     40 H53C        4.8580   -1.3040    2.2500 hc        1 VMY      0.058700
     41 H           5.8780   -2.0770   -1.1110 ho        1 VMY      0.435000
     42 H2          6.2190    3.5620    0.1070 h4        1 VMY      0.181000
     43 HC1         9.2030    1.4930    0.2360 hc        1 VMY      0.050700
     44 HC2         8.8260    1.6330   -1.5330 hc        1 VMY      0.050700
     45 HC3         8.6240    3.0760   -0.4450 hc        1 VMY      0.050700
@<TRIPOS>BOND
     1    1    2 1   
     2    2    3 ar  
     3    2    8 ar  
     4    3    4 ar  
     5    3   30 1   
     6    4    5 ar  
     7    4   31 1   
     8    5    6 ar  
     9    5   32 1   
    10    6    7 1   
    11    6    8 ar  
    12    8    9 1   
    13    9   10 1   
    14    9   33 1   
    15    9   34 1   
    16   10   11 1   
    17   10   13 1   
    18   11   12 2   
    19   11   35 1   
    20   12   14 1   
    21   12   36 1   
    22   13   14 2   
    23   14   15 1   
    24   15   16 1   
    25   15   37 1   
    26   16   17 2   
    27   16   19 1   
    28   17   18 1   
    29   18   20 2   
    30   19   20 1   
    31   20   21 1   
    32   21   22 1   
    33   21   23 1   
    34   21   24 1   
    35   22   38 1   
    36   22   39 1   
    37   22   40 1   
    38   23   41 1   
    39   24   25 1   
    40   24   27 2   
    41   25   26 1   
    42   26   28 2   
    43   26   42 1   
    44   27   28 1   
    45   28   29 1   
    46   29   43 1   
    47   29   44 1   
    48   29   45 1   
@<TRIPOS>SUBSTRUCTURE
     1 VMY         1 TEMP              0 ****  ****    0 ROOT
