@<TRIPOS>MOLECULE
VNF
   49    52     1     0     0
SMALL
bcc


@<TRIPOS>ATOM
      1 OAA         1.9400   -0.0610   -2.2690 o         1 VNF     -0.591100
      2 CAC         5.4300   -3.9100    0.9490 ca        1 VNF     -0.120000
      3 CAD         5.6280   -3.3950   -0.3310 ca        1 VNF     -0.128000
      4 CAE         4.6860   -3.1880    1.8820 ca        1 VNF     -0.128000
      5 CAF         3.0170    4.3010    0.4620 cc        1 VNF      0.292200
      6 CAG         5.0850   -2.1590   -0.6810 ca        1 VNF     -0.116500
      7 CAH         4.1430   -1.9510    1.5360 ca        1 VNF     -0.116500
      8 CAI        -6.0720   -0.1830    1.3620 ca        1 VNF     -0.124500
      9 CAJ        -6.4520   -0.1880   -1.0360 ca        1 VNF     -0.124500
     10 CAK        -0.7950   -0.8650   -1.6320 ca        1 VNF     -0.090000
     11 CAL        -0.5380    0.7190    0.1810 ca        1 VNF     -0.090000
     12 CAM        -4.6970   -0.1530    1.1390 ca        1 VNF     -0.107500
     13 CAN        -5.0760   -0.1630   -1.2500 ca        1 VNF     -0.107500
     14 CAO        -2.1700   -0.8920   -1.4140 ca        1 VNF     -0.127500
     15 CAP        -1.9140    0.6920    0.3960 ca        1 VNF     -0.127500
     16 CAQ         3.0030    3.0100    1.0200 cd        1 VNF     -0.254600
     17 CAR         4.7300    3.2420   -0.4000 cd        1 VNF      0.392400
     18 CAS         4.4910    0.9890    0.7340 c3        1 VNF      0.031300
     19 NAT         4.0940    4.4310   -0.4160 nc        1 VNF     -0.664000
     20 CAV         1.4910   -0.0540   -1.1070 c         1 VNF      0.679700
     21 CAW        -6.9480   -0.2000    0.2720 ca        1 VNF      0.021400
     22 CAX         0.0260   -0.0660   -0.8290 ca        1 VNF     -0.139600
     23 CAY        -4.1860   -0.1440   -0.1670 cp        1 VNF     -0.045000
     24 CAZ        -2.7430   -0.1160   -0.3960 cp        1 VNF     -0.015000
     25 CBA         4.3440   -1.4290    0.2550 ca        1 VNF     -0.119300
     26 CBB         3.7680   -0.0880   -0.1380 c3        1 VNF      0.127000
     27 NBC         4.1050    2.3380    0.4770 na        1 VNF     -0.204900
     28 HAD         6.2100   -3.9650   -1.0710 ha        1 VNF      0.136000
     29 HAE         4.5250   -3.5950    2.8920 ha        1 VNF      0.136000
     30 HAF         2.3270    5.1230    0.6410 h4        1 VNF      0.041100
     31 HAG         5.2330   -1.7620   -1.6970 ha        1 VNF      0.134000
     32 HAH         3.5570   -1.3890    2.2780 ha        1 VNF      0.134000
     33 HAI        -6.4630   -0.1940    2.3900 ha        1 VNF      0.149500
     34 HAJ        -7.1420   -0.1980   -1.8930 ha        1 VNF      0.149500
     35 HAK        -0.3450   -1.4600   -2.4430 ha        1 VNF      0.147000
     36 HAL         0.0930    1.3780    0.7960 ha        1 VNF      0.147000
     37 HAM        -4.0080   -0.1450    1.9970 ha        1 VNF      0.141500
     38 HAN        -4.6850   -0.1470   -2.2790 ha        1 VNF      0.141500
     39 HAO        -2.8110   -1.5290   -2.0430 ha        1 VNF      0.142000
     40 HAP        -2.3570    1.3200    1.1850 ha        1 VNF      0.142000
     41 HAQ         2.3270    2.5390    1.7280 h4        1 VNF      0.168000
     42 HAR         5.6240    2.9830   -0.9750 h5        1 VNF      0.060100
     43 HAS         4.3050    0.7630    1.8230 h1        1 VNF      0.066700
     44 HASA        5.5940    0.8850    0.5290 h1        1 VNF      0.066700
     45 HBB         4.0160    0.1150   -1.2270 h1        1 VNF      0.106700
     46 CLAB       -8.6260   -0.2340    0.5380 cl        1 VNF     -0.090400
     47 NAU         2.3340   -0.0210   -0.0060 n         1 VNF     -0.562900
     48 HAC         5.8580   -4.8860    1.2230 ha        1 VNF      0.136000
     49 HNAU        1.9530   -0.1970    0.8920 hn        1 VNF      0.307500
@<TRIPOS>BOND
     1    1   20 2   
     2    2    3 ar  
     3    2    4 ar  
     4    2   48 1   
     5    3    6 ar  
     6    3   28 1   
     7    4    7 ar  
     8    4   29 1   
     9    5   16 2   
    10    5   19 1   
    11    5   30 1   
    12    6   25 ar  
    13    6   31 1   
    14    7   25 ar  
    15    7   32 1   
    16    8   12 ar  
    17    8   21 ar  
    18    8   33 1   
    19    9   13 ar  
    20    9   21 ar  
    21    9   34 1   
    22   10   14 ar  
    23   10   22 ar  
    24   10   35 1   
    25   11   15 ar  
    26   11   22 ar  
    27   11   36 1   
    28   12   23 ar  
    29   12   37 1   
    30   13   23 ar  
    31   13   38 1   
    32   14   24 ar  
    33   14   39 1   
    34   15   24 ar  
    35   15   40 1   
    36   16   27 1   
    37   16   41 1   
    38   17   19 2   
    39   17   27 1   
    40   17   42 1   
    41   18   26 1   
    42   18   27 1   
    43   18   43 1   
    44   18   44 1   
    45   20   22 1   
    46   20   47 1   
    47   21   46 1   
    48   23   24 1   
    49   25   26 1   
    50   26   45 1   
    51   26   47 1   
    52   47   49 1   
@<TRIPOS>SUBSTRUCTURE
     1 VNF         1 TEMP              0 ****  ****    0 ROOT
