@<TRIPOS>MOLECULE
VNI
   55    59     1     0     0
SMALL
bcc


@<TRIPOS>ATOM
      1 O1          0.5300   -1.8850    0.0870 o         1 VNI     -0.416100
      2 C1          1.5990   -1.2980   -0.0010 c         1 VNI      0.577700
      3 N1          2.2270   -0.8560    1.3150 n4        1 VNI     -0.679800
      4 C2          1.2310   -0.2600    2.2800 c3        1 VNI      0.152800
      5 C3          1.6820   -0.4230    3.7660 c3        1 VNI      0.031300
      6 N2          1.9760   -1.7590    4.1490 na        1 VNI     -0.257900
      7 C4          3.2300   -2.3920    4.0280 cc        1 VNI     -0.324600
      8 C5          3.0290   -3.7240    4.4190 cd        1 VNI      0.350200
      9 N3          1.6880   -3.9290    4.7580 nd        1 VNI     -0.635000
     10 C6          1.0710   -2.7480    4.5880 cc        1 VNI      0.425400
     11 C7          1.0110    1.1950    1.9940 ca        1 VNI     -0.175300
     12 C8          2.0780    2.0970    2.1180 ca        1 VNI     -0.110000
     13 C9          1.9010    3.4550    1.8830 ca        1 VNI     -0.114000
     14 C10         0.6330    3.9350    1.5210 ca        1 VNI      0.057400
     15 CL1         0.4060    5.5820    1.2380 cl        1 VNI     -0.017400
     16 C11        -0.4440    3.0520    1.3970 ca        1 VNI     -0.115000
     17 C12        -0.2540    1.6850    1.6300 ca        1 VNI      0.053400
     18 CL2        -1.5920    0.6570    1.4660 cl        1 VNI     -0.041400
     19 C13         2.3490   -0.9600   -1.2100 ca        1 VNI     -0.203600
     20 C14         3.7500   -0.8680   -1.2380 ca        1 VNI     -0.069500
     21 C15         4.4030   -0.5620   -2.4250 ca        1 VNI     -0.103500
     22 C16         3.6620   -0.3450   -3.6020 ca        1 VNI     -0.025500
     23 C17         2.2630   -0.4540   -3.5770 ca        1 VNI     -0.103500
     24 C18         1.6090   -0.7650   -2.3890 ca        1 VNI     -0.069500
     25 C19         4.3530   -0.0160   -4.8240 cc        1 VNI      0.429900
     26 N4          5.6640    0.1960   -5.0960 nd        1 VNI     -0.287000
     27 N5          5.8050    0.4690   -6.3710 nd        1 VNI     -0.348000
     28 C20         4.5840    0.4440   -6.9750 cc        1 VNI      0.580900
     29 O2          3.6100    0.1350   -6.0130 os        1 VNI     -0.379800
     30 C21         4.1730    0.6660   -8.3420 ca        1 VNI     -0.174500
     31 C22         5.1380    0.9870   -9.3100 ca        1 VNI     -0.074500
     32 C23         4.7420    1.2000  -10.6300 ca        1 VNI     -0.136500
     33 C24         3.3980    1.0950  -10.9880 ca        1 VNI     -0.083000
     34 C25         2.4390    0.7750  -10.0240 ca        1 VNI     -0.136500
     35 C26         2.8200    0.5600   -8.7040 ca        1 VNI     -0.074500
     36 HN1         2.6640   -1.6840    1.7430 hn        1 VNI      0.459800
     37 H2          0.2670   -0.8470    2.1390 hx        1 VNI      0.142700
     38 H3          2.5830    0.2270    3.9590 h1        1 VNI      0.101200
     39 H3A         0.8230   -0.0320    4.3880 h1        1 VNI      0.101200
     40 H4          4.1400   -1.8480    3.7890 h4        1 VNI      0.176000
     41 H5          3.7580   -4.5350    4.4820 h4        1 VNI      0.065100
     42 H6          0.0110   -2.5400    4.7800 h5        1 VNI      0.079100
     43 H8          3.0750    1.7400    2.4210 ha        1 VNI      0.134000
     44 H9          2.7490    4.1520    1.9880 ha        1 VNI      0.175000
     45 H11        -1.4430    3.4310    1.1190 ha        1 VNI      0.187000
     46 H14         4.3590   -1.0690   -0.3440 ha        1 VNI      0.150500
     47 H15         5.5050   -0.4970   -2.4470 ha        1 VNI      0.183000
     48 H17         1.6840   -0.2970   -4.5030 ha        1 VNI      0.183000
     49 H18         0.5100   -0.8640   -2.3710 ha        1 VNI      0.150500
     50 H22         6.2010    1.0700   -9.0320 ha        1 VNI      0.152500
     51 H23         5.4980    1.4520  -11.3900 ha        1 VNI      0.149500
     52 H24         3.0920    1.2640  -12.0330 ha        1 VNI      0.149000
     53 H25         1.3790    0.6920  -10.3090 ha        1 VNI      0.149500
     54 H26         2.0670    0.3070   -7.9420 ha        1 VNI      0.152500
     55 H12         2.9560   -0.1620    1.1170 hn        1 VNI      0.459800
@<TRIPOS>BOND
     1    1    2 2   
     2    2    3 1   
     3    2   19 1   
     4    3    4 1   
     5    3   36 1   
     6    3   55 1   
     7    4    5 1   
     8    4   11 1   
     9    4   37 1   
    10    5    6 1   
    11    5   38 1   
    12    5   39 1   
    13    6    7 1   
    14    6   10 1   
    15    7    8 2   
    16    7   40 1   
    17    8    9 1   
    18    8   41 1   
    19    9   10 2   
    20   10   42 1   
    21   11   12 ar  
    22   11   17 ar  
    23   12   13 ar  
    24   12   43 1   
    25   13   14 ar  
    26   13   44 1   
    27   14   15 1   
    28   14   16 ar  
    29   16   17 ar  
    30   16   45 1   
    31   17   18 1   
    32   19   20 ar  
    33   19   24 ar  
    34   20   21 ar  
    35   20   46 1   
    36   21   22 ar  
    37   21   47 1   
    38   22   23 ar  
    39   22   25 1   
    40   23   24 ar  
    41   23   48 1   
    42   24   49 1   
    43   25   26 2   
    44   25   29 1   
    45   26   27 1   
    46   27   28 2   
    47   28   29 1   
    48   28   30 1   
    49   30   31 ar  
    50   30   35 ar  
    51   31   32 ar  
    52   31   50 1   
    53   32   33 ar  
    54   32   51 1   
    55   33   34 ar  
    56   33   52 1   
    57   34   35 ar  
    58   34   53 1   
    59   35   54 1   
@<TRIPOS>SUBSTRUCTURE
     1 VNI         1 TEMP              0 ****  ****    0 ROOT
