@<TRIPOS>MOLECULE
VNI
   54    46     1     0     0
SMALL
bcc


@<TRIPOS>ATOM
      1 O1         -2.2820    0.0810    1.4000 o         1 VNI     -0.346000
      2 C1         -1.0700    0.0050    1.4260 c1        1 VNI      0.355000
      3 N1         -0.3850   -0.0720    2.6810 n3        1 VNI     -0.377000
      4 C2         -1.1140   -0.0240    3.8860 c3        1 VNI      0.043000
      5 C3         -0.3770   -0.8100    4.9510 c3        1 VNI     -0.031000
      6 N2         -1.0940   -2.0400    5.2270 n3        1 VNI     -0.164000
      7 C4         -2.3000   -2.1330    5.8000 c1        1 VNI     -0.153000
      8 C5         -2.5650   -3.4600    6.0120 c1        1 VNI     -0.177000
      9 N3         -1.5190   -4.1670    5.5680 n2        1 VNI     -0.139000
     10 C6         -0.6020   -3.2980    5.0790 c1        1 VNI     -0.105000
     11 C7         -1.2630    1.4350    4.3370 c2        1 VNI     -0.096000
     12 C8         -0.1310    2.1990    4.6100 c2        1 VNI     -0.112000
     13 C9         -0.2660    3.5370    4.9770 c1        1 VNI     -0.123000
     14 C10        -1.5300    4.1090    5.0700 c1        1 VNI     -0.048000
     15 CL1        -1.6920    5.8070    5.4040 cl        1 VNI      0.005000
     16 C11        -2.6590    3.3460    4.7970 c1        1 VNI     -0.121000
     17 C12        -2.5250    2.0060    4.4300 c1        1 VNI     -0.039000
     18 CL2        -3.9330    1.0270    4.2130 cl        1 VNI      0.012000
     19 C13        -0.2750   -0.0770    0.1100 c1        1 VNI     -0.100000
     20 C14         0.4450    1.0240   -0.3350 c2        1 VNI     -0.116000
     21 C15         1.1160    0.9710   -1.5530 c1        1 VNI     -0.093000
     22 C16         1.0660   -0.1840   -2.3230 c1        1 VNI     -0.005000
     23 C17         0.3440   -1.2870   -1.8780 c1        1 VNI     -0.101000
     24 C18        -0.3260   -1.2340   -0.6630 c1        1 VNI     -0.082000
     25 C19         1.7580   -0.2460   -3.5270 c1        1 VNI      0.004000
     26 N4          3.0860   -0.3240   -3.6670 n2        1 VNI     -0.074000
     27 N5          3.3650   -0.3600   -4.9880 n2        1 VNI     -0.084000
     28 C20         2.2020   -0.3030   -5.6600 c2        1 VNI      0.027000
     29 O2          1.2080   -0.2330   -4.7630 os        1 VNI     -0.128000
     30 C21         2.0580   -0.3180   -7.0190 c1        1 VNI     -0.036000
     31 C22         1.9460   -1.5240   -7.6890 c1        1 VNI     -0.117500
     32 C23         1.8400   -1.5420   -9.0690 c1        1 VNI     -0.117500
     33 C24         1.8470   -0.3530   -9.7800 c1        1 VNI     -0.117500
     34 C25         1.9590    0.8540   -9.1090 c1        1 VNI     -0.117500
     35 C26         2.0640    0.8720   -7.7300 c1        1 VNI     -0.080000
     36 HN1         0.5180   -0.2120    2.7000 hn        1 VNI      0.225000
     37 H2         -2.0050   -0.4170    3.7460 h1        1 VNI      0.158000
     38 H3         -0.3200   -0.2770    5.7660 h1        1 VNI      0.106500
     39 H3A         0.5320   -1.0230    4.6330 h1        1 VNI      0.106500
     40 H4         -2.8860   -1.3870    6.0260 DU        1 VNI      0.185000
     41 H5         -3.3810   -3.8280    6.4200 DU        1 VNI      0.185000
     42 H6          0.2600   -3.5340    4.6900 DU        1 VNI      0.185000
     43 H8          0.7450    1.8030    4.5460 ha        1 VNI      0.136000
     44 H9          0.5260    4.0710    5.1690 ha        1 VNI      0.155000
     45 H11        -3.5440    3.7470    4.8620 ha        1 VNI      0.167000
     46 H14         0.4820    1.8450    0.2140 ha        1 VNI      0.142000
     47 H15         1.6310    1.7560   -1.8700 ha        1 VNI      0.163000
     48 H17         0.3080   -2.1090   -2.4270 ha        1 VNI      0.155000
     49 H18        -0.8380   -2.0160   -0.3470 ha        1 VNI      0.163000
     50 H22         1.9410   -2.3690   -7.1840 ha        1 VNI      0.141500
     51 H23         1.7610   -2.3950   -9.5430 ha        1 VNI      0.141500
     52 H24         1.7720   -0.3650  -10.7540 ha        1 VNI      0.141500
     53 H25         1.9630    1.6990   -9.6140 ha        1 VNI      0.141500
     54 H26         2.1440    1.7250   -7.2570 ha        1 VNI      0.158000
@<TRIPOS>BOND
     1    1    2 1   
     2    2    3 1   
     3    3    4 1   
     4    3   36 1   
     5    4    5 1   
     6    4   11 1   
     7    4   37 1   
     8    5    6 1   
     9    5   38 1   
    10    5   39 1   
    11    6    7 1   
    12    6   10 1   
    13    7    8 1   
    14    8    9 1   
    15    9   10 1   
    16   11   12 1   
    17   11   17 1   
    18   12   13 1   
    19   12   43 1   
    20   13   44 1   
    21   14   15 1   
    22   14   16 1   
    23   16   45 1   
    24   17   18 1   
    25   19   20 1   
    26   19   24 1   
    27   20   21 1   
    28   20   46 1   
    29   21   47 1   
    30   22   23 1   
    31   23   48 1   
    32   24   49 1   
    33   25   26 1   
    34   25   29 1   
    35   26   27 1   
    36   27   28 1   
    37   28   29 1   
    38   28   30 1   
    39   30   35 1   
    40   31   32 1   
    41   31   50 1   
    42   32   51 1   
    43   33   34 1   
    44   33   52 1   
    45   34   53 1   
    46   35   54 1   
@<TRIPOS>SUBSTRUCTURE
     1 VNI         1 TEMP              0 ****  ****    0 ROOT
