@<TRIPOS>MOLECULE
VNI
   55    59     1     0     0
SMALL
bcc


@<TRIPOS>ATOM
      1 O1          0.5260   -1.8710    0.0900 o         1 VNI     -0.416100
      2 C1          1.5960   -1.2880    0.0010 c         1 VNI      0.577700
      3 N1          2.2280   -0.8460    1.3150 ny        1 VNI     -0.679800
      4 C2          1.2350   -0.2520    2.2830 c3        1 VNI      0.152800
      5 C3          1.6890   -0.4180    3.7680 c3        1 VNI      0.031300
      6 N2          1.9820   -1.7550    4.1470 na        1 VNI     -0.257900
      7 C4          3.2350   -2.3900    4.0230 cc        1 VNI     -0.324600
      8 C5          3.0330   -3.7220    4.4110 cd        1 VNI      0.350200
      9 N3          1.6920   -3.9270    4.7520 nd        1 VNI     -0.635000
     10 C6          1.0760   -2.7440    4.5860 cc        1 VNI      0.425400
     11 C7          1.0160    1.2040    2.0010 ca        1 VNI     -0.175300
     12 C8          2.0840    2.1050    2.1240 ca        1 VNI     -0.110000
     13 C9          1.9070    3.4640    1.8930 ca        1 VNI     -0.114000
     14 C10         0.6400    3.9460    1.5360 ca        1 VNI      0.057400
     15 Cl1         0.4130    5.5940    1.2560 cl        1 VNI     -0.017400
     16 C11        -0.4390    3.0640    1.4120 ca        1 VNI     -0.115000
     17 C12        -0.2490    1.6960    1.6410 ca        1 VNI      0.053400
     18 Cl2        -1.5890    0.6710    1.4780 cl        1 VNI     -0.041400
     19 C13         2.3460   -0.9540   -1.2100 ca        1 VNI     -0.203600
     20 C14         3.7480   -0.8650   -1.2400 ca        1 VNI     -0.069500
     21 C15         4.4000   -0.5630   -2.4280 ca        1 VNI     -0.103500
     22 C16         3.6580   -0.3470   -3.6040 ca        1 VNI     -0.025500
     23 C17         2.2600   -0.4530   -3.5780 ca        1 VNI     -0.103500
     24 C18         1.6060   -0.7600   -2.3880 ca        1 VNI     -0.069500
     25 C19         4.3490   -0.0220   -4.8280 cc        1 VNI      0.429900
     26 N4          5.6600    0.1860   -5.1020 nd        1 VNI     -0.287000
     27 N5          5.8000    0.4560   -6.3770 nd        1 VNI     -0.348000
     28 C20         4.5790    0.4320   -6.9810 cc        1 VNI      0.580900
     29 O2          3.6050    0.1270   -6.0170 os        1 VNI     -0.379800
     30 C21         4.1670    0.6510   -8.3470 ca        1 VNI     -0.174500
     31 C22         5.1320    0.9680   -9.3170 ca        1 VNI     -0.074500
     32 C23         4.7360    1.1790  -10.6370 ca        1 VNI     -0.136500
     33 C24         3.3910    1.0750  -10.9940 ca        1 VNI     -0.083000
     34 C25         2.4320    0.7600  -10.0290 ca        1 VNI     -0.136500
     35 C26         2.8140    0.5470   -8.7080 ca        1 VNI     -0.074500
     36 HN1         2.6670   -1.6750    1.7410 hn        1 VNI      0.459800
     37 H2          0.2700   -0.8370    2.1430 hx        1 VNI      0.142700
     38 H3          2.5920    0.2310    3.9610 h1        1 VNI      0.101200
     39 H3A         0.8320   -0.0270    4.3930 h1        1 VNI      0.101200
     40 H4          4.1460   -1.8460    3.7840 h4        1 VNI      0.176000
     41 H5          3.7620   -4.5340    4.4710 h4        1 VNI      0.065100
     42 H6          0.0170   -2.5350    4.7800 h5        1 VNI      0.079100
     43 H8          3.0820    1.7460    2.4250 ha        1 VNI      0.134000
     44 H9          2.7570    4.1590    1.9980 ha        1 VNI      0.175000
     45 H11        -1.4390    3.4450    1.1370 ha        1 VNI      0.187000
     46 H14         4.3570   -1.0650   -0.3450 ha        1 VNI      0.150500
     47 H15         5.5030   -0.5010   -2.4510 ha        1 VNI      0.183000
     48 H17         1.6800   -0.2970   -4.5040 ha        1 VNI      0.183000
     49 H18         0.5070   -0.8560   -2.3700 ha        1 VNI      0.150500
     50 H22         6.1950    1.0500   -9.0410 ha        1 VNI      0.152500
     51 H23         5.4910    1.4270  -11.3990 ha        1 VNI      0.149500
     52 H24         3.0840    1.2420  -12.0390 ha        1 VNI      0.149000
     53 H25         1.3720    0.6780  -10.3130 ha        1 VNI      0.149500
     54 H26         2.0610    0.2970   -7.9450 ha        1 VNI      0.152500
     55 H12         2.9560   -0.1520    1.1150 hn        1 VNI      0.459800
@<TRIPOS>BOND
     1    1    2 2   
     2    2    3 1   
     3    2   19 1   
     4    3    4 1   
     5    3   36 1   
     6    3   55 1   
     7    4    5 1   
     8    4   11 1   
     9    4   37 1   
    10    5    6 1   
    11    5   38 1   
    12    5   39 1   
    13    6    7 1   
    14    6   10 1   
    15    7    8 2   
    16    7   40 1   
    17    8    9 1   
    18    8   41 1   
    19    9   10 2   
    20   10   42 1   
    21   11   12 ar  
    22   11   17 ar  
    23   12   13 ar  
    24   12   43 1   
    25   13   14 ar  
    26   13   44 1   
    27   14   15 1   
    28   14   16 ar  
    29   16   17 ar  
    30   16   45 1   
    31   17   18 1   
    32   19   20 ar  
    33   19   24 ar  
    34   20   21 ar  
    35   20   46 1   
    36   21   22 ar  
    37   21   47 1   
    38   22   23 ar  
    39   22   25 1   
    40   23   24 ar  
    41   23   48 1   
    42   24   49 1   
    43   25   26 2   
    44   25   29 1   
    45   26   27 1   
    46   27   28 2   
    47   28   29 1   
    48   28   30 1   
    49   30   31 ar  
    50   30   35 ar  
    51   31   32 ar  
    52   31   50 1   
    53   32   33 ar  
    54   32   51 1   
    55   33   34 ar  
    56   33   52 1   
    57   34   35 ar  
    58   34   53 1   
    59   35   54 1   
@<TRIPOS>SUBSTRUCTURE
     1 VNI         1 TEMP              0 ****  ****    0 ROOT
