@<TRIPOS>MOLECULE
VNI
   54    58     1     0     0
SMALL
bcc


@<TRIPOS>ATOM
      1 O1          1.4150   -0.9560    2.0530 o         1 VNI     -0.586100
      2 C1          1.0990   -0.8050    0.8580 c         1 VNI      0.680700
      3 N1          2.0570   -0.6610   -0.1310 n         1 VNI     -0.566900
      4 C2          3.4670   -0.6500    0.1550 c3        1 VNI      0.129000
      5 C3          4.2790   -1.6440   -0.7360 c3        1 VNI      0.029300
      6 N2          3.7930   -2.9860   -0.7410 na        1 VNI     -0.209900
      7 C4          3.3070   -3.6860   -1.8530 cc        1 VNI     -0.267600
      8 C5          2.9500   -4.9630   -1.3840 cd        1 VNI      0.295200
      9 N3          3.1990   -5.0570   -0.0140 nd        1 VNI     -0.664000
     10 C6          3.7010   -3.8610    0.3550 cc        1 VNI      0.400400
     11 C7          4.1040    0.7110   -0.0360 ca        1 VNI     -0.105300
     12 C8          3.9170    1.4000   -1.2400 ca        1 VNI     -0.109000
     13 C9          4.4810    2.6550   -1.4510 ca        1 VNI     -0.123000
     14 C10         5.2540    3.2370   -0.4410 ca        1 VNI      0.030400
     15 CL1         5.9460    4.7680   -0.6830 cl        1 VNI     -0.074400
     16 C11         5.4610    2.5680    0.7670 ca        1 VNI     -0.121000
     17 C12         4.8870    1.3060    0.9650 ca        1 VNI      0.039400
     18 CL2         5.1820    0.5340    2.4500 cl        1 VNI     -0.067400
     19 C13        -0.3280   -0.7600    0.4220 ca        1 VNI     -0.121600
     20 C14        -0.7670   -1.4250   -0.7260 ca        1 VNI     -0.098500
     21 C15        -2.1100   -1.3720   -1.0930 ca        1 VNI     -0.098500
     22 C16        -3.0200   -0.6480   -0.3090 ca        1 VNI     -0.112500
     23 C17        -2.5800    0.0080    0.8510 ca        1 VNI     -0.098500
     24 C18        -1.2380   -0.0520    1.2160 ca        1 VNI     -0.098500
     25 C19        -4.4110   -0.5850   -0.7010 cc        1 VNI      0.503900
     26 N4         -5.0780   -1.0550   -1.7800 nd        1 VNI     -0.335000
     27 N5         -6.3530   -0.7350   -1.6790 nd        1 VNI     -0.346000
     28 C20        -6.5510   -0.0470   -0.5290 cc        1 VNI      0.526900
     29 O2         -5.3210    0.0790    0.1430 os        1 VNI     -0.387800
     30 C21        -7.7320    0.5330    0.0720 ca        1 VNI     -0.143500
     31 C22        -8.9670    0.4330   -0.5870 ca        1 VNI     -0.086000
     32 C23       -10.1050    0.9910   -0.0080 ca        1 VNI     -0.137500
     33 C24       -10.0200    1.6470    1.2210 ca        1 VNI     -0.103000
     34 C25        -8.7920    1.7460    1.8770 ca        1 VNI     -0.137500
     35 C26        -7.6480    1.1930    1.3080 ca        1 VNI     -0.086000
     36 HN1         1.7710   -0.4770   -1.0620 hn        1 VNI      0.311500
     37 H2          3.5870   -0.9740    1.2380 h1        1 VNI      0.116700
     38 H3          4.2920   -1.2630   -1.7970 h1        1 VNI      0.067700
     39 H3A         5.3360   -1.6370   -0.3410 h1        1 VNI      0.067700
     40 H4          3.2700   -3.2500   -2.8470 h4        1 VNI      0.172000
     41 H5          2.5400   -5.8000   -1.9470 h4        1 VNI      0.043100
     42 H6          4.0010   -3.5730    1.3680 h5        1 VNI      0.067100
     43 H8          3.3140    0.9470   -2.0430 ha        1 VNI      0.136000
     44 H9          4.3190    3.1820   -2.4030 ha        1 VNI      0.155000
     45 H11         6.0710    3.0280    1.5610 ha        1 VNI      0.167000
     46 H14        -0.0650   -2.0150   -1.3360 ha        1 VNI      0.154000
     47 H15        -2.4550   -1.9020   -1.9960 ha        1 VNI      0.158500
     48 H17        -3.2990    0.5650    1.4720 ha        1 VNI      0.158500
     49 H18        -0.8860    0.4430    2.1360 ha        1 VNI      0.154000
     50 H22        -9.0370   -0.0850   -1.5570 ha        1 VNI      0.152500
     51 H23       -11.0730    0.9120   -0.5240 ha        1 VNI      0.140500
     52 H24       -10.9220    2.0850    1.6740 ha        1 VNI      0.138000
     53 H25        -8.7250    2.2620    2.8460 ha        1 VNI      0.140500
     54 H26        -6.6780    1.2680    1.8230 ha        1 VNI      0.152500
@<TRIPOS>BOND
     1    1    2 2   
     2    2    3 1   
     3    2   19 1   
     4    3    4 1   
     5    3   36 1   
     6    4    5 1   
     7    4   11 1   
     8    4   37 1   
     9    5    6 1   
    10    5   38 1   
    11    5   39 1   
    12    6    7 1   
    13    6   10 1   
    14    7    8 2   
    15    7   40 1   
    16    8    9 1   
    17    8   41 1   
    18    9   10 2   
    19   10   42 1   
    20   11   12 ar  
    21   11   17 ar  
    22   12   13 ar  
    23   12   43 1   
    24   13   14 ar  
    25   13   44 1   
    26   14   15 1   
    27   14   16 ar  
    28   16   17 ar  
    29   16   45 1   
    30   17   18 1   
    31   19   20 ar  
    32   19   24 ar  
    33   20   21 ar  
    34   20   46 1   
    35   21   22 ar  
    36   21   47 1   
    37   22   23 ar  
    38   22   25 1   
    39   23   24 ar  
    40   23   48 1   
    41   24   49 1   
    42   25   26 2   
    43   25   29 1   
    44   26   27 1   
    45   27   28 2   
    46   28   29 1   
    47   28   30 1   
    48   30   31 ar  
    49   30   35 ar  
    50   31   32 ar  
    51   31   50 1   
    52   32   33 ar  
    53   32   51 1   
    54   33   34 ar  
    55   33   52 1   
    56   34   35 ar  
    57   34   53 1   
    58   35   54 1   
@<TRIPOS>SUBSTRUCTURE
     1 VNI         1 TEMP              0 ****  ****    0 ROOT
