@<TRIPOS>MOLECULE
VNJ
   19    19     1     0     0
SMALL
bcc


@<TRIPOS>ATOM
      1 CAH         0.0290    0.2750   -0.0450 c3        1 VNJ     -0.198100
      2 CAG         1.4740   -0.1170    0.0360 c         1 VNJ      0.595700
      3 OAI         1.9660   -0.4590    1.1230 o         1 VNJ     -0.570100
      4 CAA         2.2420   -0.0800   -1.2210 ca        1 VNJ     -0.256600
      5 CAB         1.5660   -0.2840   -2.4330 ca        1 VNJ     -0.051000
      6 CAC         2.2340   -0.2890   -3.6480 ca        1 VNJ     -0.199000
      7 CAD         3.6170   -0.0800   -3.6730 ca        1 VNJ     -0.058000
      8 CAE         4.3160    0.1310   -2.4990 ca        1 VNJ     -0.222000
      9 CAF         3.6480    0.1430   -1.2400 ca        1 VNJ      0.230600
     10 NAJ         4.3640    0.4490   -0.0990 nh        1 VNJ     -0.843200
     11 HAH1       -0.1030    1.1520   -0.7220 hc        1 VNJ      0.064367
     12 HAH2       -0.5690   -0.5840   -0.4400 hc        1 VNJ      0.064367
     13 HAH3       -0.3560    0.5340    0.9720 hc        1 VNJ      0.064367
     14 HAB         0.4780   -0.4570   -2.4200 ha        1 VNJ      0.130000
     15 HAC         1.6850   -0.4590   -4.5840 ha        1 VNJ      0.135000
     16 HAD         4.1520   -0.0850   -4.6350 ha        1 VNJ      0.132000
     17 HAE         5.4040    0.2960   -2.5380 ha        1 VNJ      0.134000
     18 HAJ1        3.9530    0.2180    0.7780 hn        1 VNJ      0.423300
     19 HAJ2        5.3490    0.3470   -0.1540 hn        1 VNJ      0.423300
@<TRIPOS>BOND
     1    1    2 1   
     2    1   11 1   
     3    1   12 1   
     4    1   13 1   
     5    2    3 2   
     6    2    4 1   
     7    4    5 ar  
     8    4    9 ar  
     9    5    6 ar  
    10    5   14 1   
    11    6    7 ar  
    12    6   15 1   
    13    7    8 ar  
    14    7   16 1   
    15    8    9 ar  
    16    8   17 1   
    17    9   10 1   
    18   10   18 1   
    19   10   19 1   
@<TRIPOS>SUBSTRUCTURE
     1 VNJ         1 TEMP              0 ****  ****    0 ROOT
