@<TRIPOS>MOLECULE
VNJ
   20    20     1     0     0
SMALL
bcc


@<TRIPOS>ATOM
      1 CAH         0.0070   -0.0490   -0.0130 c3        1 VNJ     -0.200100
      2 CAG         1.4920    0.0560    0.0340 c         1 VNJ      0.593700
      3 OAI         2.1020    0.1600    1.1110 o         1 VNJ     -0.577100
      4 CAA         2.2410    0.0330   -1.2520 ca        1 VNJ     -0.151600
      5 CAB         1.5520   -0.0850   -2.4630 ca        1 VNJ     -0.066000
      6 CAC         2.2290   -0.1100   -3.6840 ca        1 VNJ     -0.083000
      7 CAD         3.6180   -0.0160   -3.7170 ca        1 VNJ     -0.074000
      8 CAE         4.3400    0.1020   -2.5290 ca        1 VNJ     -0.112000
      9 CAF         3.6560    0.1270   -1.3050 ca        1 VNJ     -0.015400
     10 NAJ         4.4300    0.2520   -0.0690 n4        1 VNJ     -0.704000
     11 HAH1       -0.4230    0.8030   -0.5970 hc        1 VNJ      0.091700
     12 HAH2       -0.2980   -1.0130   -0.4920 hc        1 VNJ      0.091700
     13 HAH3       -0.4130   -0.0180    1.0250 hc        1 VNJ      0.091700
     14 HAB         0.4500   -0.1610   -2.4630 ha        1 VNJ      0.174000
     15 HAC         1.6580   -0.2030   -4.6250 ha        1 VNJ      0.179000
     16 HAD         4.1570   -0.0350   -4.6810 ha        1 VNJ      0.179000
     17 HAE         5.4400    0.1750   -2.5760 ha        1 VNJ      0.163000
     18 HAJ1        4.1170    1.0920    0.4420 hn        1 VNJ      0.472800
     19 HAJ2        4.2310   -0.5590    0.5380 hn        1 VNJ      0.472800
     20 HAJ3        5.4320    0.3090   -0.2680 hn        1 VNJ      0.472800
@<TRIPOS>BOND
     1    1    2 1   
     2    1   11 1   
     3    1   12 1   
     4    1   13 1   
     5    2    3 2   
     6    2    4 1   
     7    4    5 ar  
     8    4    9 ar  
     9    5    6 ar  
    10    5   14 1   
    11    6    7 ar  
    12    6   15 1   
    13    7    8 ar  
    14    7   16 1   
    15    8    9 ar  
    16    8   17 1   
    17    9   10 1   
    18   10   18 1   
    19   10   19 1   
    20   10   20 1   
@<TRIPOS>SUBSTRUCTURE
     1 VNJ         1 TEMP              0 ****  ****    0 ROOT
