@<TRIPOS>MOLECULE
VNJ
   19    19     1     0     0
SMALL
bcc


@<TRIPOS>ATOM
      1 CAH         0.0310    0.2540   -0.0420 c3        1 VNJ     -0.198100
      2 CAG         1.4780   -0.1290    0.0350 c         1 VNJ      0.595700
      3 OAI         1.9740   -0.4730    1.1200 o         1 VNJ     -0.570100
      4 CAA         2.2450   -0.0810   -1.2220 ca        1 VNJ     -0.256600
      5 CAB         1.5680   -0.2840   -2.4350 ca        1 VNJ     -0.051000
      6 CAC         2.2350   -0.2800   -3.6500 ca        1 VNJ     -0.199000
      7 CAD         3.6160   -0.0610   -3.6760 ca        1 VNJ     -0.058000
      8 CAE         4.3160    0.1490   -2.5020 ca        1 VNJ     -0.222000
      9 CAF         3.6500    0.1500   -1.2420 ca        1 VNJ      0.230600
     10 NAJ         4.3640    0.4560   -0.1000 nv        1 VNJ     -0.843200
     11 HAH1       -0.3540    0.5070    0.9760 hc        1 VNJ      0.064367
     12 HAH2       -0.5630   -0.6050   -0.4400 hc        1 VNJ      0.064367
     13 HAH3       -0.1070    1.1340   -0.7140 hc        1 VNJ      0.064367
     14 HAB         0.4810   -0.4640   -2.4210 ha        1 VNJ      0.130000
     15 HAC         1.6850   -0.4480   -4.5860 ha        1 VNJ      0.135000
     16 HAD         4.1510   -0.0590   -4.6380 ha        1 VNJ      0.132000
     17 HAE         5.4020    0.3210   -2.5420 ha        1 VNJ      0.134000
     18 HAJ1        5.3500    0.3600   -0.1570 hn        1 VNJ      0.423300
     19 HAJ2        3.9560    0.2180    0.7760 hn        1 VNJ      0.423300
@<TRIPOS>BOND
     1    1    2 1   
     2    1   11 1   
     3    1   12 1   
     4    1   13 1   
     5    2    3 2   
     6    2    4 1   
     7    4    5 ar  
     8    4    9 ar  
     9    5    6 ar  
    10    5   14 1   
    11    6    7 ar  
    12    6   15 1   
    13    7    8 ar  
    14    7   16 1   
    15    8    9 ar  
    16    8   17 1   
    17    9   10 1   
    18   10   18 1   
    19   10   19 1   
@<TRIPOS>SUBSTRUCTURE
     1 VNJ         1 TEMP              0 ****  ****    0 ROOT
