@<TRIPOS>MOLECULE
VNK
   92    83     1     0     0
SMALL
bcc


@<TRIPOS>ATOM
      1 C27      -282.8870 -133.7590  459.3670 c2        1 VNK      0.202000
      2 C1       -283.4010 -134.0560  460.7370 c2        1 VNK      0.167000
      3 O1       -283.3950 -133.2320  461.6390 o         1 VNK     -0.177000
      4 C28      -283.8100 -133.5080  458.2690 c3        1 VNK     -0.252000
      5 C29      -283.1550 -132.8790  457.0520 c3        1 VNK     -0.198000
      6 C30      -284.1440 -132.7490  455.9060 c3        1 VNK     -0.255000
      7 C31      -283.6800 -132.1320  454.6850 c1        1 VNK     -0.008000
      8 N1       -280.9810 -135.0060  461.4660 n3        1 VNK     -0.452000
      9 C2         23.2490  -30.1120  -20.7050 c2        1 VNK     -0.296000
     10 C5         23.7370  -31.4470  -21.0370 c2        1 VNK      0.214000
     11 O3         23.9020  -32.3640  -20.2240 o         1 VNK     -0.308000
     12 C3         22.9120  -29.6970  -19.4670 c2        1 VNK      0.005000
     13 C26        23.0020  -30.5710  -18.2750 c3        1 VNK     -0.204500
     14 C4         22.4250  -28.3170  -19.2270 c3        1 VNK     -0.204500
     15 C10       -96.2300 -647.6770 -642.0740 c2        1 VNK      0.317000
     16 C9       -244.8970  585.7730 -181.6490 c2        1 VNK      0.114000
     17 N2        -93.8650 -648.0310 -641.8220 n2        1 VNK     -0.164000
     18 O7       -244.1380  584.6620 -181.4940 os        1 VNK     -0.217000
     19 N5       -242.1680  583.6980 -182.1120 n3        1 VNK     -0.249000
     20 C24      -240.8940  583.5950 -182.7890 c3        1 VNK     -0.097000
     21 C25      -242.9160  584.7740 -182.2550 c1        1 VNK      0.077000
     22 C6        -94.9760 -647.8280 -641.2360 c2        1 VNK     -0.048000
     23 C7       -247.2980  586.1760 -180.4850 c3        1 VNK     -0.215000
     24 N3        -96.2690 -647.7390 -643.3980 n3        1 VNK     -0.262000
     25 C11       488.4720   83.3760   59.4200 c3        1 VNK     -0.117000
     26 C12       488.1630   84.5220   60.3950 c3        1 VNK     -0.168000
     27 C13       486.6450   84.7080   60.3970 c3        1 VNK     -0.265000
     28 C15       486.1010   83.7800   59.4220 c2        1 VNK      0.291000
     29 C14       -98.6120 -647.2950 -641.8650 c3        1 VNK     -0.105000
     30 C16       489.5010   83.7850   58.3560 c3        1 VNK      0.037000
     31 O6        490.5380   84.4500   59.0620 oh        1 VNK     -0.326000
     32 C17       490.0100   82.5650   57.5930 c3        1 VNK     -0.202000
     33 C23       487.1320   82.9780   58.7840 c3        1 VNK     -0.263000
     34 C18       490.7230   82.9550   56.3250 c3        1 VNK     -0.222000
     35 H22      -282.3000 -132.1810  459.5880 DU        1 VNK      0.075500
     36 H23      -283.7640 -135.1090  460.8340 h4        1 VNK      0.196000
     37 H24      -281.8490 -134.1000  459.1380 ha        1 VNK      0.207000
     38 H25      -282.3300 -131.8250  460.2000 DU        1 VNK      0.075500
     39 H26      -284.2290 -134.5270  457.9690 hc        1 VNK      0.185000
     40 H27      -284.7000 -132.8950  458.5950 hc        1 VNK      0.185000
     41 H28      -282.7670 -131.8620  457.3270 hc        1 VNK      0.105500
     42 H29      -282.2810 -133.5000  456.7230 hc        1 VNK      0.105500
     43 H30      -284.5400 -133.7670  455.6130 hc        1 VNK      0.159000
     44 H31      -285.0450 -132.1470  456.2330 hc        1 VNK      0.159000
     45 H32      -282.6430 -131.7690  454.6480 ha        1 VNK      0.057000
     46 H21      -281.1130 -134.5500  462.3490 hn        1 VNK      0.153667
     47 H13      -281.0360 -135.9940  461.6130 hn        1 VNK      0.153667
     48 H14        23.1650  -29.4210  -21.5610 ha        1 VNK      0.134000
     49 H15        24.0540  -30.9320  -18.1410 hc        1 VNK      0.095333
     50 H16        22.3630  -31.4810  -18.4170 hc        1 VNK      0.095333
     51 H17        22.6770  -30.0390  -17.3490 hc        1 VNK      0.095333
     52 H18        21.3980  -28.3490  -18.7820 hc        1 VNK      0.095333
     53 H19        23.1020  -27.7960  -18.5040 hc        1 VNK      0.095333
     54 H20        22.3850  -27.7190  -20.1710 hc        1 VNK      0.095333
     55 H7         22.9530  -27.2110  -22.4470 ha        1 VNK      0.002250
     56 H8         22.3170  -27.4180  -22.5510 ha        1 VNK      0.002250
     57 H12       -93.0410 -648.1300 -641.2630 hn        1 VNK      0.230000
     58 H4       -240.0800  583.4700 -182.0240 h1        1 VNK      0.118667
     59 H5       -240.9100  582.7010 -183.4680 h1        1 VNK      0.118667
     60 H6       -240.6960  584.5190 -183.3950 h1        1 VNK      0.118667
     61 H1       -242.4180  582.9080 -181.5480 hn        1 VNK      0.224000
     62 H2       -243.5530  588.1550 -183.6890 ha        1 VNK      0.002250
     63 H3       -244.1560  588.2560 -183.3960 ha        1 VNK      0.002250
     64 H11      -247.2940  587.0510 -179.7720 hc        1 VNK      0.204333
     65 H9       -247.5410  585.2490 -179.8520 hc        1 VNK      0.204333
     66 H10       -95.1970 -647.7380 -640.1490 h4        1 VNK      0.189000
     67 H33      -248.1350  586.2710 -181.2350 hc        1 VNK      0.204333
     68 H34       -97.1200 -647.6330 -643.9140 hn        1 VNK      0.293500
     69 H35       -98.6320 -646.3850 -642.5100 h1        1 VNK      0.135667
     70 H36       488.8940   82.5040   59.9910 hc        1 VNK      0.140000
     71 H37       488.6790   85.4660   60.0770 hc        1 VNK      0.145000
     72 H38       488.5360   84.2740   61.4200 hc        1 VNK      0.145000
     73 H39       486.3400   85.7740   60.1570 hc        1 VNK      0.212000
     74 H40       485.0240   83.6920   59.1890 ha        1 VNK      0.193000
     75 H41       -99.2470 -647.1490 -640.9480 h1        1 VNK      0.135667
     76 H42       486.1910   84.5210   61.4210 hc        1 VNK      0.212000
     77 H43       -98.9160 -648.2170 -642.4160 h1        1 VNK      0.135667
     78 H44       487.1220   83.1480   57.6610 hc        1 VNK      0.209500
     79 H45       491.3340   84.4190   58.5140 ho        1 VNK      0.231000
     80 H46       489.0350   84.5220   57.6400 h1        1 VNK      0.077000
     81 H47       489.1430   81.8990   57.3460 hc        1 VNK      0.096000
     82 H48       490.7040   81.9830   58.2570 hc        1 VNK      0.096000
     83 H49       486.9170   81.8720   58.8970 hc        1 VNK      0.209500
     84 H50       491.0870   82.0410   55.7950 hc        1 VNK      0.090000
     85 H51       490.0410   83.5120   55.6370 hc        1 VNK      0.090000
     86 H52       491.6070   83.6030   56.5440 hc        1 VNK      0.090000
     87 C8       -246.0620  585.9200 -181.0590 c1        1 VNK      0.116000
     88 H121     -280.0610 -134.7910  461.1350 hn        1 VNK      0.153667
     89 H221       23.9640  -31.6020  -22.1180 h4        1 VNK      0.085000
     90 H511     -244.4950  586.5920 -182.3160 h4        1 VNK      0.271000
     91 H321      -95.4270 -647.8970 -643.9250 hn        1 VNK      0.293500
     92 O2        -97.3000 -647.4700 -641.2910 os        1 VNK     -0.152000
@<TRIPOS>BOND
     1    1    2 1   
     2    1    4 1   
     3    1   37 1   
     4    2    3 1   
     5    2   36 1   
     6    4    5 1   
     7    4   39 1   
     8    4   40 1   
     9    5    6 1   
    10    5   41 1   
    11    5   42 1   
    12    6    7 1   
    13    6   43 1   
    14    6   44 1   
    15    7   45 1   
    16    8   46 1   
    17    8   47 1   
    18    8   88 1   
    19    9   10 1   
    20    9   12 1   
    21    9   48 1   
    22   10   11 1   
    23   10   89 1   
    24   12   13 1   
    25   12   14 1   
    26   13   49 1   
    27   13   50 1   
    28   13   51 1   
    29   14   52 1   
    30   14   53 1   
    31   14   54 1   
    32   15   22 1   
    33   15   24 1   
    34   15   92 1   
    35   16   18 1   
    36   16   87 1   
    37   16   90 1   
    38   17   22 1   
    39   17   57 1   
    40   18   21 1   
    41   19   20 1   
    42   19   21 1   
    43   19   61 1   
    44   20   58 1   
    45   20   59 1   
    46   20   60 1   
    47   22   66 1   
    48   23   64 1   
    49   23   65 1   
    50   23   67 1   
    51   23   87 1   
    52   24   68 1   
    53   24   91 1   
    54   25   26 1   
    55   25   30 1   
    56   25   33 1   
    57   25   70 1   
    58   26   27 1   
    59   26   71 1   
    60   26   72 1   
    61   27   28 1   
    62   27   73 1   
    63   27   76 1   
    64   28   33 1   
    65   28   74 1   
    66   29   69 1   
    67   29   75 1   
    68   29   77 1   
    69   29   92 1   
    70   30   31 1   
    71   30   32 1   
    72   30   80 1   
    73   31   79 1   
    74   32   34 1   
    75   32   81 1   
    76   32   82 1   
    77   33   78 1   
    78   33   83 1   
    79   34   84 1   
    80   34   85 1   
    81   34   86 1   
    82   55   56 1   
    83   62   63 1   
@<TRIPOS>SUBSTRUCTURE
     1 VNK         1 TEMP              0 ****  ****    0 ROOT
