@<TRIPOS>MOLECULE
VNL
   19    19     1     0     0
SMALL
bcc


@<TRIPOS>ATOM
      1 C1         -1.1570   -0.2510   -0.0180 ca        1 VNL     -0.128600
      2 CO1        -0.8350   -1.6100    0.0460 ca        1 VNL     -0.103000
      3 CO2        -0.1380    0.6970   -0.1360 ca        1 VNL     -0.131000
      4 CM1         0.4900   -2.0370   -0.0010 ca        1 VNL     -0.166000
      5 CM2         1.1940    0.2820   -0.1830 ca        1 VNL      0.003100
      6 OM          2.2840    1.1410   -0.3240 os        1 VNL     -0.368900
      7 CZ          1.5150   -1.0890   -0.1120 ca        1 VNL      0.075100
      8 CC         -2.6080    0.2060    0.0440 c         1 VNL      0.910200
      9 CV          2.0120    2.5020   -0.0220 c3        1 VNL      0.126700
     10 O1         -3.5040   -0.6790    0.1280 o         1 VNL     -0.831800
     11 O2         -2.8360    1.4490    0.0110 o         1 VNL     -0.831800
     12 O3          2.8150   -1.5560   -0.1610 oh        1 VNL     -0.521100
     13 HO1        -1.6600   -2.3350    0.1360 ha        1 VNL      0.155000
     14 HO2        -0.4210    1.7610   -0.1860 ha        1 VNL      0.160000
     15 HM1         0.7490   -3.1020    0.0490 ha        1 VNL      0.126000
     16 HV1         1.5170    2.6020    0.9750 h1        1 VNL      0.035700
     17 HV2         3.0230    2.9830   -0.0140 h1        1 VNL      0.035700
     18 HV3         1.3690    2.9530   -0.8170 h1        1 VNL      0.035700
     19 HO3         3.3970   -0.7830   -0.1770 ho        1 VNL      0.418000
@<TRIPOS>BOND
     1    1    2 ar  
     2    1    3 ar  
     3    1    8 1   
     4    2    4 ar  
     5    2   13 1   
     6    3    5 ar  
     7    3   14 1   
     8    4    7 ar  
     9    4   15 1   
    10    5    6 1   
    11    5    7 ar  
    12    6    9 1   
    13    7   12 1   
    14    8   10 1   
    15    8   11 1   
    16    9   16 1   
    17    9   17 1   
    18    9   18 1   
    19   12   19 1   
@<TRIPOS>SUBSTRUCTURE
     1 VNL         1 TEMP              0 ****  ****    0 ROOT
