@<TRIPOS>MOLECULE
VNL
   19    19     1     0     0
SMALL
bcc


@<TRIPOS>ATOM
      1 C1          0.0130   -0.0090   -0.0790 ca        1 VNL     -0.128600
      2 CO1         1.4090    0.0700   -0.0700 ca        1 VNL     -0.103000
      3 CO2        -0.6810   -0.1440    1.1260 ca        1 VNL     -0.131000
      4 CM1         2.1230    0.0210    1.1250 ca        1 VNL     -0.166000
      5 CM2         0.0230   -0.1940    2.3300 ca        1 VNL      0.003100
      6 OM         -0.5680   -0.3510    3.5840 os        1 VNL     -0.368900
      7 CZ          1.4300   -0.1070    2.3360 ca        1 VNL      0.075100
      8 CC         -0.7580    0.0560   -1.3900 c         1 VNL      0.910200
      9 CV         -1.9590   -0.0620    3.6270 c3        1 VNL      0.126700
     10 O1         -0.0970    0.1540   -2.4620 o         1 VNL     -0.831800
     11 O2         -2.0210    0.0090   -1.3340 o         1 VNL     -0.831800
     12 O3          2.1770   -0.1570    3.4980 oh        1 VNL     -0.521100
     13 HO1         1.9300    0.1720   -1.0360 ha        1 VNL      0.155000
     14 HO2        -1.7800   -0.2060    1.0880 ha        1 VNL      0.160000
     15 HM1         3.2180    0.0820    1.1400 ha        1 VNL      0.126000
     16 HV1        -2.1780    0.9350    3.1750 h1        1 VNL      0.035700
     17 HV2        -2.5340   -0.8590    3.0950 h1        1 VNL      0.035700
     18 HV3        -2.2010   -0.0660    4.7190 h1        1 VNL      0.035700
     19 HO3         1.5550   -0.1870    4.2380 ho        1 VNL      0.418000
@<TRIPOS>BOND
     1    1    2 ar  
     2    1    3 ar  
     3    1    8 1   
     4    2    4 ar  
     5    2   13 1   
     6    3    5 ar  
     7    3   14 1   
     8    4    7 ar  
     9    4   15 1   
    10    5    6 1   
    11    5    7 ar  
    12    6    9 1   
    13    7   12 1   
    14    8   10 1   
    15    8   11 1   
    16    9   16 1   
    17    9   17 1   
    18    9   18 1   
    19   12   19 1   
@<TRIPOS>SUBSTRUCTURE
     1 VNL         1 TEMP              0 ****  ****    0 ROOT
