@<TRIPOS>MOLECULE
VNL
   19    19     1     0     0
SMALL
bcc


@<TRIPOS>ATOM
      1 C1          0.0210   -0.0200   -0.0790 ca        1 VNL     -0.128600
      2 CO1         1.4160    0.0700   -0.0630 ca        1 VNL     -0.103000
      3 CO2        -0.6780   -0.1510    1.1230 ca        1 VNL     -0.131000
      4 CM1         2.1240    0.0350    1.1360 ca        1 VNL     -0.166000
      5 CM2         0.0200   -0.1860    2.3320 ca        1 VNL      0.003100
      6 OM         -0.5770   -0.3380    3.5830 os        1 VNL     -0.368900
      7 CZ          1.4260   -0.0890    2.3440 ca        1 VNL      0.075100
      8 CC         -0.7440    0.0280   -1.3940 c         1 VNL      0.910200
      9 CV         -1.9700   -0.0630    3.6160 c3        1 VNL      0.126700
     10 O1         -0.0780    0.1240   -2.4630 o         1 VNL     -0.831800
     11 O2         -2.0060   -0.0280   -1.3450 o         1 VNL     -0.831800
     12 O3          2.1670   -0.1240    3.5100 oh        1 VNL     -0.521100
     13 HO1         1.9420    0.1690   -1.0270 ha        1 VNL      0.155000
     14 HO2        -1.7770   -0.2220    1.0800 ha        1 VNL      0.160000
     15 HM1         3.2190    0.1050    1.1560 ha        1 VNL      0.126000
     16 HV1        -2.1960    0.9290    3.1550 h1        1 VNL      0.035700
     17 HV2        -2.5350   -0.8700    3.0870 h1        1 VNL      0.035700
     18 HV3        -2.2190   -0.0610    4.7070 h1        1 VNL      0.035700
     19 HO3         1.5420   -0.1530    4.2470 ho        1 VNL      0.418000
@<TRIPOS>BOND
     1    1    2 ar  
     2    1    3 ar  
     3    1    8 1   
     4    2    4 ar  
     5    2   13 1   
     6    3    5 ar  
     7    3   14 1   
     8    4    7 ar  
     9    4   15 1   
    10    5    6 1   
    11    5    7 ar  
    12    6    9 1   
    13    7   12 1   
    14    8   10 1   
    15    8   11 1   
    16    9   16 1   
    17    9   17 1   
    18    9   18 1   
    19   12   19 1   
@<TRIPOS>SUBSTRUCTURE
     1 VNL         1 TEMP              0 ****  ****    0 ROOT
