@<TRIPOS>MOLECULE
VNP
   44    45     1     0     0
SMALL
bcc


@<TRIPOS>ATOM
      1 O2G         0.0000    0.0000    0.0000 o         1 VNP     -0.511500
      2 PG          1.6100    0.0000    0.0000 p5        1 VNP      0.585800
      3 O3G         2.1460    0.0000    1.5180 o         1 VNP     -0.511500
      4 O1G         2.1040    1.2090   -0.6960 o         1 VNP     -0.511500
      5 N3B         2.1720   -1.3730   -0.7940 ny        1 VNP     -0.217200
      6 PB          1.6330   -1.4120   -2.3880 p5        1 VNP      0.688700
      7 O2B         0.0230   -1.4240   -2.4100 o         1 VNP     -0.535500
      8 O1B         2.1270   -0.2130   -3.1040 o         1 VNP     -0.535500
      9 O1          2.1910   -2.7360   -3.1110 os        1 VNP     -0.490200
     10 C7          3.5690   -2.9240   -3.4390 c3        1 VNP      0.287400
     11 C12         3.7530   -4.2850   -4.1140 c3        1 VNP      0.054900
     12 C11         5.2070   -4.4820   -4.4590 cc        1 VNP     -0.008400
     13 C10         6.1320   -5.0410   -3.6740 cd        1 VNP     -0.314600
     14 CM4         5.8240   -5.5630   -2.2950 c3        1 VNP      0.073200
     15 S1          5.9840   -4.0220   -5.9720 ss        1 VNP     -0.154800
     16 C9          7.4780   -4.6210   -5.3960 cc        1 VNP     -0.409400
     17 N5          7.3370   -5.0990   -4.2050 na        1 VNP      0.645900
     18 C7A         8.4660   -5.6810   -3.4770 c3        1 VNP     -0.021400
     19 C5A         8.4770   -7.1760   -3.6790 ca        1 VNP     -0.410900
     20 C6A         7.8820   -8.0180   -2.7610 ca        1 VNP      0.474200
     21 N1A         7.9100   -9.3270   -2.9710 nb        1 VNP     -0.633000
     22 C2A         8.4950   -9.8300   -4.0390 ca        1 VNP      0.628300
     23 CM2         8.5010  -11.3240   -4.2330 c3        1 VNP     -0.035400
     24 N3A         9.0740   -9.0630   -4.9400 nb        1 VNP     -0.647000
     25 C4A         9.0830   -7.7410   -4.8020 ca        1 VNP      0.560200
     26 N4A         9.6900   -6.9380   -5.7540 nv        1 VNP     -0.628500
     27 H3B         3.1730   -1.3720   -0.7850 hn        1 VNP      0.283300
     28 H71         4.1630   -2.8850   -2.5340 h1        1 VNP     -0.022300
     29 H72         3.8880   -2.1390   -4.1140 h1        1 VNP     -0.022300
     30 H121        3.1590   -4.3230   -5.0180 hc        1 VNP      0.031200
     31 H122        3.4330   -5.0690   -3.4380 hc        1 VNP      0.031200
     32 HM41        6.5550   -5.1810   -1.5930 hc        1 VNP      0.023700
     33 HM42        5.8610   -6.6460   -2.3020 hc        1 VNP      0.023700
     34 HM43        4.8340   -5.2380   -1.9990 hc        1 VNP      0.023700
     35 H9          8.4090   -4.6040   -5.9510 h5        1 VNP      0.189000
     36 H7A1        9.3920   -5.2600   -3.8500 h1        1 VNP      0.051700
     37 H7A2        8.3680   -5.4600   -2.4210 h1        1 VNP      0.051700
     38 H6A         7.5520   -7.6300   -1.8040 h4        1 VNP     -0.004900
     39 HM21        9.4820  -11.7150   -3.9940 hc        1 VNP      0.021033
     40 HM22        7.7630  -11.7760   -3.5820 hc        1 VNP      0.021033
     41 HM23        8.2610  -11.5550   -5.2640 hc        1 VNP      0.021033
     42 H4A1       10.5230   -6.4330   -5.5250 hn        1 VNP      0.284800
     43 H4A2        9.3380   -6.9220   -6.6910 hn        1 VNP      0.284800
     44 H3B2        1.8400   -2.1880   -0.3160 hn        1 VNP      0.283300
@<TRIPOS>BOND
     1    1    2 1   
     2    2    3 1   
     3    2    4 1   
     4    2    5 1   
     5    5    6 1   
     6    5   27 1   
     7    5   44 1   
     8    6    7 1   
     9    6    8 1   
    10    6    9 1   
    11    9   10 1   
    12   10   11 1   
    13   10   28 1   
    14   10   29 1   
    15   11   12 1   
    16   11   30 1   
    17   11   31 1   
    18   12   13 2   
    19   12   15 1   
    20   13   14 1   
    21   13   17 1   
    22   14   32 1   
    23   14   33 1   
    24   14   34 1   
    25   15   16 1   
    26   16   17 2   
    27   16   35 1   
    28   17   18 1   
    29   18   19 1   
    30   18   36 1   
    31   18   37 1   
    32   19   20 ar  
    33   19   25 ar  
    34   20   21 ar  
    35   20   38 1   
    36   21   22 ar  
    37   22   23 1   
    38   22   24 ar  
    39   23   39 1   
    40   23   40 1   
    41   23   41 1   
    42   24   25 ar  
    43   25   26 1   
    44   26   42 1   
    45   26   43 1   
@<TRIPOS>SUBSTRUCTURE
     1 VNP         1 TEMP              0 ****  ****    0 ROOT
