@<TRIPOS>MOLECULE
VNT
   53    57     1     0     0
SMALL
bcc


@<TRIPOS>ATOM
      1 CBA         4.7210    1.3190    1.0660 ca        1 VNT      0.042400
      2 CAQ         5.2360    2.6130    0.9170 ca        1 VNT     -0.122000
      3 CAZ         5.0670    3.2870   -0.2940 ca        1 VNT      0.030400
      4 CAI         4.3910    2.6780   -1.3560 ca        1 VNT     -0.124000
      5 CAN         3.8850    1.3920   -1.1950 ca        1 VNT     -0.114000
      6 CBE         4.0370    0.6960    0.0110 ca        1 VNT     -0.112300
      7 CBH         3.4640   -0.7000    0.1450 c3        1 VNT      0.121000
      8 CAR         4.3290   -1.6200   -0.7720 c3        1 VNT      0.051300
      9 NBI         3.9530   -3.0130   -0.7450 na        1 VNT     -0.054400
     10 NAT         4.1640   -3.8430    0.2940 nc        1 VNT     -0.508800
     11 CAO         3.5710   -5.0130   -0.0720 cd        1 VNT      0.504900
     12 NAS         2.9630   -4.9470   -1.3410 nd        1 VNT     -0.682000
     13 CAP         3.2050   -3.6830   -1.7400 cc        1 VNT      0.399400
     14 NAW         2.0600   -0.7710   -0.1750 n         1 VNT     -0.563900
     15 CAY         1.0890   -0.9230    0.8070 c         1 VNT      0.673700
     16 OAA         1.3890   -1.1370    1.9950 o         1 VNT     -0.573100
     17 CBB        -0.3330   -0.8330    0.3610 ca        1 VNT     -0.124600
     18 CAJ        -1.2400   -0.1620    1.1890 ca        1 VNT     -0.098500
     19 CAL        -2.5780   -0.0590    0.8170 ca        1 VNT     -0.098500
     20 CAK        -0.7710   -1.4200   -0.8290 ca        1 VNT     -0.098500
     21 CAM        -2.1100   -1.3240   -1.2040 ca        1 VNT     -0.098500
     22 CBD        -3.0160   -0.6360   -0.3840 ca        1 VNT     -0.112500
     23 CBG        -4.4030   -0.5270   -0.7840 cc        1 VNT      0.502900
     24 OAX        -5.3110    0.0970    0.0920 os        1 VNT     -0.387800
     25 NAV        -5.0670   -0.9200   -1.8960 nd        1 VNT     -0.335000
     26 NAU        -6.3370   -0.5880   -1.7850 nd        1 VNT     -0.346000
     27 CBF        -6.5360    0.0310   -0.5970 cc        1 VNT      0.526900
     28 CBC        -7.7140    0.5910    0.0290 ca        1 VNT     -0.144500
     29 CAG        -8.9440    0.5490   -0.6460 ca        1 VNT     -0.086000
     30 CAE       -10.0790    1.0880   -0.0420 ca        1 VNT     -0.137500
     31 CAD        -9.9960    1.6650    1.2250 ca        1 VNT     -0.103000
     32 CAF        -8.7730    1.7060    1.8960 ca        1 VNT     -0.137500
     33 CAH        -7.6320    1.1710    1.3040 ca        1 VNT     -0.086000
     34 CLC         4.9620    0.5450    2.5580 cl        1 VNT     -0.057400
     35 CLB         5.6870    4.8560   -0.4760 cl        1 VNT     -0.074400
     36 H1          5.7690    3.0940    1.7520 ha        1 VNT      0.167000
     37 H2          4.2600    3.2090   -2.3120 ha        1 VNT      0.154000
     38 H3          3.3610    0.9180   -2.0390 ha        1 VNT      0.134000
     39 H4          3.5830   -1.0620    1.2160 h1        1 VNT      0.133700
     40 H5          4.2580   -1.2730   -1.8400 h1        1 VNT      0.073200
     41 H6          5.3970   -1.5190   -0.4230 h1        1 VNT      0.073200
     42 H7          3.5620   -5.9170    0.5450 h5        1 VNT      0.074100
     43 H8          2.9090   -3.2220   -2.6860 h5        1 VNT      0.064100
     44 H9          1.7800   -0.4250   -1.0620 hn        1 VNT      0.303500
     45 H10        -0.8900    0.2700    2.1400 ha        1 VNT      0.153500
     46 H11        -3.2940    0.4700    1.4650 ha        1 VNT      0.159000
     47 H12        -0.0720   -1.9810   -1.4690 ha        1 VNT      0.153500
     48 H13        -2.4540   -1.7920   -2.1400 ha        1 VNT      0.159000
     49 H14        -9.0130    0.0930   -1.6460 ha        1 VNT      0.152500
     50 H15       -11.0430    1.0550   -0.5710 ha        1 VNT      0.140500
     51 H16       -10.8960    2.0890    1.6960 ha        1 VNT      0.138000
     52 H17        -8.7080    2.1610    2.8950 ha        1 VNT      0.140500
     53 H18        -6.6650    1.2010    1.8300 ha        1 VNT      0.152500
@<TRIPOS>BOND
     1    1    2 ar  
     2    1    6 ar  
     3    1   34 1   
     4    2    3 ar  
     5    2   36 1   
     6    3    4 ar  
     7    3   35 1   
     8    4    5 ar  
     9    4   37 1   
    10    5    6 ar  
    11    5   38 1   
    12    6    7 1   
    13    7    8 1   
    14    7   14 1   
    15    7   39 1   
    16    8    9 1   
    17    8   40 1   
    18    8   41 1   
    19    9   10 1   
    20    9   13 1   
    21   10   11 2   
    22   11   12 1   
    23   11   42 1   
    24   12   13 2   
    25   13   43 1   
    26   14   15 1   
    27   14   44 1   
    28   15   16 2   
    29   15   17 1   
    30   17   18 ar  
    31   17   20 ar  
    32   18   19 ar  
    33   18   45 1   
    34   19   22 ar  
    35   19   46 1   
    36   20   21 ar  
    37   20   47 1   
    38   21   22 ar  
    39   21   48 1   
    40   22   23 1   
    41   23   24 1   
    42   23   25 2   
    43   24   27 1   
    44   25   26 1   
    45   26   27 2   
    46   27   28 1   
    47   28   29 ar  
    48   28   33 ar  
    49   29   30 ar  
    50   29   49 1   
    51   30   31 ar  
    52   30   50 1   
    53   31   32 ar  
    54   31   51 1   
    55   32   33 ar  
    56   32   52 1   
    57   33   53 1   
@<TRIPOS>SUBSTRUCTURE
     1 VNT         1 TEMP              0 ****  ****    0 ROOT
