@<TRIPOS>MOLECULE
VNT
   54    58     1     0     0
SMALL
bcc


@<TRIPOS>ATOM
      1 CBA         0.3220   -0.5490    0.1640 ca        1 VNT      0.054400
      2 CAQ         1.6940   -0.3030    0.0460 ca        1 VNT     -0.116000
      3 CAZ         2.3290    0.5510    0.9530 ca        1 VNT      0.058400
      4 CAI         1.5930    1.1610    1.9800 ca        1 VNT     -0.115000
      5 CAN         0.2310    0.9140    2.0870 ca        1 VNT     -0.108000
      6 CBE        -0.4240    0.0630    1.1850 ca        1 VNT     -0.187300
      7 CBH        -1.9020   -0.1630    1.3130 c3        1 VNT      0.164800
      8 CAR        -2.6380    1.1940    1.1490 c3        1 VNT      0.051300
      9 NBI        -4.0710    1.1060    1.2550 na        1 VNT     -0.104400
     10 NAT        -4.7210    0.6770    2.3640 nc        1 VNT     -0.616800
     11 CAO        -6.0360    0.8940    2.0980 cd        1 VNT      0.569900
     12 NAS        -6.2500    1.4700    0.8290 nd        1 VNT     -0.653000
     13 CAP        -5.0130    1.6000    0.3190 cc        1 VNT      0.457400
     14 NAW        -2.2110   -0.8330    2.6280 ny        1 VNT     -0.670800
     15 CAY        -3.3480   -1.8500    2.5890 c         1 VNT      0.596700
     16 OAA        -3.7640   -2.1780    1.4900 o         1 VNT     -0.414100
     17 CBB        -3.7420   -2.3560    3.9080 ca        1 VNT     -0.202600
     18 CAJ        -3.9800   -3.7350    4.0270 ca        1 VNT     -0.072500
     19 CAL        -4.3730   -4.2650    5.2520 ca        1 VNT     -0.104000
     20 CAK        -3.9330   -1.5080    5.0080 ca        1 VNT     -0.072500
     21 CAM        -4.3310   -2.0380    6.2300 ca        1 VNT     -0.104000
     22 CBD        -4.5450   -3.4220    6.3610 ca        1 VNT     -0.033500
     23 CBG        -4.9460   -3.9610    7.6380 cc        1 VNT      0.434900
     24 OAX        -5.2160   -5.3410    7.7450 os        1 VNT     -0.381800
     25 NAV        -5.1310   -3.3830    8.8490 nd        1 VNT     -0.290000
     26 NAU        -5.5000   -4.2960    9.7160 nd        1 VNT     -0.348000
     27 CBF        -5.5690   -5.5050    9.0940 cc        1 VNT      0.575900
     28 CBC        -5.9200   -6.8230    9.5700 ca        1 VNT     -0.171500
     29 CAG        -6.2620   -7.0030   10.9190 ca        1 VNT     -0.075500
     30 CAE        -6.6020   -8.2740   11.3790 ca        1 VNT     -0.136500
     31 CAD        -6.6040   -9.3620   10.5060 ca        1 VNT     -0.085000
     32 CAF        -6.2640   -9.1830    9.1630 ca        1 VNT     -0.136500
     33 CAH        -5.9220   -7.9190    8.6910 ca        1 VNT     -0.075500
     34 ClC        -0.4000   -1.5970   -0.9570 cl        1 VNT     -0.041400
     35 ClB         3.9830    0.8470    0.8110 cl        1 VNT     -0.016400
     36 H1          2.2730   -0.7820   -0.7640 ha        1 VNT      0.187000
     37 H2          2.0930    1.8360    2.6950 ha        1 VNT      0.175000
     38 H3         -0.3380    1.4100    2.8910 ha        1 VNT      0.138000
     39 H4         -2.2620   -0.8680    0.4950 hx        1 VNT      0.148700
     40 H5         -2.3840    1.5750    0.1170 h1        1 VNT      0.096700
     41 H6         -2.2440    1.9300    1.9090 h1        1 VNT      0.096700
     42 H7         -6.8590    0.6520    2.7830 h5        1 VNT      0.091100
     43 H8         -4.7390    2.0090   -0.6620 h5        1 VNT      0.090100
     44 H9         -1.3710   -1.3320    2.9460 hn        1 VNT      0.460800
     45 H10        -3.8630   -4.3950    3.1520 ha        1 VNT      0.156000
     46 H11        -4.5580   -5.3480    5.3530 ha        1 VNT      0.181500
     47 H12        -3.8200   -0.4160    4.9170 ha        1 VNT      0.156000
     48 H13        -4.4870   -1.3700    7.0950 ha        1 VNT      0.181500
     49 H14        -6.2630   -6.1460   11.6130 ha        1 VNT      0.152000
     50 H15        -6.8710   -8.4160   12.4380 ha        1 VNT      0.149000
     51 H16        -6.8750  -10.3640   10.8750 ha        1 VNT      0.148000
     52 H17        -6.2670  -10.0420    8.4750 ha        1 VNT      0.149000
     53 H18        -5.6550   -7.7740    7.6330 ha        1 VNT      0.152000
     54 HAW2       -2.4410   -0.1210    3.3310 hn        1 VNT      0.460800
@<TRIPOS>BOND
     1    1    2 ar  
     2    1    6 ar  
     3    1   34 1   
     4    2    3 ar  
     5    2   36 1   
     6    3    4 ar  
     7    3   35 1   
     8    4    5 ar  
     9    4   37 1   
    10    5    6 ar  
    11    5   38 1   
    12    6    7 1   
    13    7    8 1   
    14    7   14 1   
    15    7   39 1   
    16    8    9 1   
    17    8   40 1   
    18    8   41 1   
    19    9   10 1   
    20    9   13 1   
    21   10   11 2   
    22   11   12 1   
    23   11   42 1   
    24   12   13 2   
    25   13   43 1   
    26   14   15 1   
    27   14   44 1   
    28   14   54 1   
    29   15   16 2   
    30   15   17 1   
    31   17   18 ar  
    32   17   20 ar  
    33   18   19 ar  
    34   18   45 1   
    35   19   22 ar  
    36   19   46 1   
    37   20   21 ar  
    38   20   47 1   
    39   21   22 ar  
    40   21   48 1   
    41   22   23 1   
    42   23   24 1   
    43   23   25 2   
    44   24   27 1   
    45   25   26 1   
    46   26   27 2   
    47   27   28 1   
    48   28   29 ar  
    49   28   33 ar  
    50   29   30 ar  
    51   29   49 1   
    52   30   31 ar  
    53   30   50 1   
    54   31   32 ar  
    55   31   51 1   
    56   32   33 ar  
    57   32   52 1   
    58   33   53 1   
@<TRIPOS>SUBSTRUCTURE
     1 VNT         1 TEMP              0 ****  ****    0 ROOT
