@<TRIPOS>MOLECULE
VNT
   54    58     1     0     0
SMALL
bcc


@<TRIPOS>ATOM
      1 CBA         0.3170   -0.5250    0.1700 ca        1 VNT      0.054400
      2 CAQ         1.6880   -0.2690    0.0530 ca        1 VNT     -0.116000
      3 CAZ         2.3140    0.5900    0.9620 ca        1 VNT      0.058400
      4 CAI         1.5730    1.1960    1.9870 ca        1 VNT     -0.115000
      5 CAN         0.2110    0.9390    2.0920 ca        1 VNT     -0.108000
      6 CBE        -0.4350    0.0820    1.1890 ca        1 VNT     -0.187300
      7 CBH        -1.9120   -0.1550    1.3150 c3        1 VNT      0.164800
      8 CAR        -2.6580    1.1960    1.1480 c3        1 VNT      0.051300
      9 NBI        -4.0900    1.0980    1.2520 na        1 VNT     -0.104400
     10 NAT        -4.7380    0.6660    2.3600 nc        1 VNT     -0.616800
     11 CAO        -6.0540    0.8730    2.0920 cd        1 VNT      0.569900
     12 NAS        -6.2710    1.4460    0.8220 nd        1 VNT     -0.653000
     13 CAP        -5.0340    1.5850    0.3130 cc        1 VNT      0.457400
     14 NAW        -2.2190   -0.8260    2.6290 n4        1 VNT     -0.670800
     15 CAY        -3.3480   -1.8500    2.5890 c         1 VNT      0.596700
     16 OAA        -3.7600   -2.1830    1.4900 o         1 VNT     -0.414100
     17 CBB        -3.7410   -2.3590    3.9070 ca        1 VNT     -0.202600
     18 CAJ        -3.9700   -3.7390    4.0280 ca        1 VNT     -0.072500
     19 CAL        -4.3620   -4.2710    5.2510 ca        1 VNT     -0.104000
     20 CAK        -3.9390   -1.5120    5.0070 ca        1 VNT     -0.072500
     21 CAM        -4.3360   -2.0440    6.2290 ca        1 VNT     -0.104000
     22 CBD        -4.5400   -3.4290    6.3600 ca        1 VNT     -0.033500
     23 CBG        -4.9400   -3.9700    7.6370 cc        1 VNT      0.434900
     24 OAX        -5.2020   -5.3510    7.7440 os        1 VNT     -0.381800
     25 NAV        -5.1300   -3.3920    8.8470 nd        1 VNT     -0.290000
     26 NAU        -5.4950   -4.3070    9.7140 nd        1 VNT     -0.348000
     27 CBF        -5.5550   -5.5170    9.0930 cc        1 VNT      0.575900
     28 CBC        -5.8990   -6.8370    9.5680 ca        1 VNT     -0.171500
     29 CAG        -6.2420   -7.0180   10.9180 ca        1 VNT     -0.075500
     30 CAE        -6.5760   -8.2910   11.3770 ca        1 VNT     -0.136500
     31 CAD        -6.5700   -9.3790   10.5040 ca        1 VNT     -0.085000
     32 CAF        -6.2290   -9.1980    9.1620 ca        1 VNT     -0.136500
     33 CAH        -5.8940   -7.9330    8.6900 ca        1 VNT     -0.075500
     34 CLC        -0.3950   -1.5790   -0.9520 cl        1 VNT     -0.041400
     35 CLB         3.9660    0.8990    0.8230 cl        1 VNT     -0.016400
     36 H1          2.2710   -0.7440   -0.7550 ha        1 VNT      0.187000
     37 H2          2.0660    1.8750    2.7020 ha        1 VNT      0.175000
     38 H3         -0.3620    1.4310    2.8940 ha        1 VNT      0.138000
     39 H4         -2.2650   -0.8630    0.4960 hx        1 VNT      0.148700
     40 H5         -2.2710    1.9370    1.9080 h1        1 VNT      0.096700
     41 H6         -2.4050    1.5790    0.1160 h1        1 VNT      0.096700
     42 H7         -6.8780    0.6260    2.7750 h5        1 VNT      0.091100
     43 H8         -4.7610    1.9950   -0.6670 h5        1 VNT      0.090100
     44 H9         -1.3750   -1.3180    2.9490 hn        1 VNT      0.460800
     45 H10        -3.8470   -4.3990    3.1520 ha        1 VNT      0.156000
     46 H11        -4.5390   -5.3560    5.3530 ha        1 VNT      0.181500
     47 H12        -3.8330   -0.4190    4.9150 ha        1 VNT      0.156000
     48 H13        -4.4980   -1.3760    7.0930 ha        1 VNT      0.181500
     49 H14        -6.2490   -6.1610   11.6110 ha        1 VNT      0.152000
     50 H15        -6.8450   -8.4340   12.4350 ha        1 VNT      0.149000
     51 H16        -6.8350  -10.3820   10.8740 ha        1 VNT      0.148000
     52 H17        -6.2260  -10.0580    8.4750 ha        1 VNT      0.149000
     53 H18        -5.6260   -7.7870    7.6330 ha        1 VNT      0.152000
     54 HAW2       -2.4550   -0.1150    3.3310 hn        1 VNT      0.460800
@<TRIPOS>BOND
     1    1    2 ar  
     2    1    6 ar  
     3    1   34 1   
     4    2    3 ar  
     5    2   36 1   
     6    3    4 ar  
     7    3   35 1   
     8    4    5 ar  
     9    4   37 1   
    10    5    6 ar  
    11    5   38 1   
    12    6    7 1   
    13    7    8 1   
    14    7   14 1   
    15    7   39 1   
    16    8    9 1   
    17    8   40 1   
    18    8   41 1   
    19    9   10 1   
    20    9   13 1   
    21   10   11 2   
    22   11   12 1   
    23   11   42 1   
    24   12   13 2   
    25   13   43 1   
    26   14   15 1   
    27   14   44 1   
    28   14   54 1   
    29   15   16 2   
    30   15   17 1   
    31   17   18 ar  
    32   17   20 ar  
    33   18   19 ar  
    34   18   45 1   
    35   19   22 ar  
    36   19   46 1   
    37   20   21 ar  
    38   20   47 1   
    39   21   22 ar  
    40   21   48 1   
    41   22   23 1   
    42   23   24 1   
    43   23   25 2   
    44   24   27 1   
    45   25   26 1   
    46   26   27 2   
    47   27   28 1   
    48   28   29 ar  
    49   28   33 ar  
    50   29   30 ar  
    51   29   49 1   
    52   30   31 ar  
    53   30   50 1   
    54   31   32 ar  
    55   31   51 1   
    56   32   33 ar  
    57   32   52 1   
    58   33   53 1   
@<TRIPOS>SUBSTRUCTURE
     1 VNT         1 TEMP              0 ****  ****    0 ROOT
