@<TRIPOS>MOLECULE
VO1
   37    39     1     0     0
SMALL
bcc


@<TRIPOS>ATOM
      1 C1         -0.1630    0.6350   -0.1060 cc        1 VO1      0.315300
      2 N2          1.0210    0.1100   -0.5360 nd        1 VO1     -0.597000
      3 C3          1.7360   -0.3200    0.5550 cd        1 VO1      0.382600
      4 C4          1.0740   -0.1140    1.7840 cc        1 VO1     -0.290400
      5 S5         -0.3940    0.5800    1.5820 ss        1 VO1      0.230700
      6 C6          3.0770   -0.9370    0.4310 c3        1 VO1     -0.137400
      7 N7         -1.1030    1.1940   -1.0660 n4        1 VO1     -0.666400
      8 C8         -2.4850    0.6880   -0.9120 ca        1 VO1      0.388200
      9 N9         -3.0330    0.7140    0.3390 nb        1 VO1     -0.639000
     10 C10        -4.2830    0.2730    0.4750 ca        1 VO1      0.397200
     11 C11        -5.0600   -0.2240   -0.6040 ca        1 VO1     -0.147300
     12 C12        -4.5080   -0.2530   -1.8730 ca        1 VO1     -0.153000
     13 C13        -3.1860    0.2120   -2.0570 ca        1 VO1      0.094800
     14 O14        -2.5210    0.2680   -3.2450 os        1 VO1     -0.348900
     15 C15        -3.2000   -0.2810   -4.4090 c3        1 VO1      0.194700
     16 C16        -2.2450   -0.1320   -5.5410 ca        1 VO1     -0.138300
     17 C17        -2.3130    0.9940   -6.3700 ca        1 VO1     -0.098500
     18 C18        -1.4460    1.1110   -7.4550 ca        1 VO1     -0.128000
     19 C19        -0.5070    0.1110   -7.7120 ca        1 VO1     -0.094000
     20 C20        -0.4350   -1.0090   -6.8830 ca        1 VO1     -0.128000
     21 C21        -1.3010   -1.1320   -5.7980 ca        1 VO1     -0.098500
     22 H1          1.5050   -0.3960    2.7480 h4        1 VO1      0.214000
     23 H2          3.0270   -1.8620   -0.1970 hc        1 VO1      0.071700
     24 H3          3.7940   -0.2240   -0.0500 hc        1 VO1      0.071700
     25 H4          3.4630   -1.2090    1.4440 hc        1 VO1      0.071700
     26 H5         -0.7920    0.9710   -2.0310 hn        1 VO1      0.481300
     27 H6         -4.6970    0.3140    1.5020 h4        1 VO1      0.062100
     28 H7         -6.0870   -0.5780   -0.4210 ha        1 VO1      0.183000
     29 H8         -5.0840   -0.6340   -2.7320 ha        1 VO1      0.179000
     30 H9         -3.4380   -1.3580   -4.2030 h1        1 VO1      0.064200
     31 H10        -4.1400    0.3080   -4.5750 h1        1 VO1      0.064200
     32 H11        -3.0560    1.7810   -6.1730 ha        1 VO1      0.136000
     33 H12        -1.5060    1.9930   -8.1120 ha        1 VO1      0.149000
     34 H13         0.1750    0.2040   -8.5720 ha        1 VO1      0.150000
     35 H14         0.3030   -1.8000   -7.0880 ha        1 VO1      0.149000
     36 H15        -1.2460   -2.0180   -5.1470 ha        1 VO1      0.136000
     37 H72        -1.1110    2.2180   -0.9490 hn        1 VO1      0.481300
@<TRIPOS>BOND
     1    1    2 2   
     2    1    5 1   
     3    1    7 1   
     4    2    3 1   
     5    3    4 2   
     6    3    6 1   
     7    4    5 1   
     8    4   22 1   
     9    6   23 1   
    10    6   24 1   
    11    6   25 1   
    12    7    8 1   
    13    7   26 1   
    14    7   37 1   
    15    8    9 ar  
    16    8   13 ar  
    17    9   10 ar  
    18   10   11 ar  
    19   10   27 1   
    20   11   12 ar  
    21   11   28 1   
    22   12   13 ar  
    23   12   29 1   
    24   13   14 1   
    25   14   15 1   
    26   15   16 1   
    27   15   30 1   
    28   15   31 1   
    29   16   17 ar  
    30   16   21 ar  
    31   17   18 ar  
    32   17   32 1   
    33   18   19 ar  
    34   18   33 1   
    35   19   20 ar  
    36   19   34 1   
    37   20   21 ar  
    38   20   35 1   
    39   21   36 1   
@<TRIPOS>SUBSTRUCTURE
     1 VO1         1 TEMP              0 ****  ****    0 ROOT
