@<TRIPOS>MOLECULE
VO1
   36    38     1     0     0
SMALL
bcc


@<TRIPOS>ATOM
      1 C1          2.2440   -0.5970    0.2290 cc        1 VO1      0.593300
      2 N2          2.4560   -1.9100   -0.0370 nd        1 VO1     -0.686000
      3 C3          3.8010   -2.2000    0.1380 cd        1 VO1      0.369600
      4 C4          4.5860   -1.1140    0.5180 cc        1 VO1     -0.321400
      5 S5          3.6820    0.2700    0.6660 ss        1 VO1      0.014700
      6 C6          4.3270   -3.5680   -0.0780 c3        1 VO1     -0.123400
      7 N7          0.9640   -0.0300    0.2510 nh        1 VO1     -0.789600
      8 C8          0.7450    1.3150   -0.0960 ca        1 VO1      0.629200
      9 N9          1.7720    2.2200   -0.0540 nb        1 VO1     -0.716000
     10 C10         1.4880    3.5070   -0.3070 ca        1 VO1      0.434200
     11 C11         0.2080    3.9950   -0.6170 ca        1 VO1     -0.275300
     12 C12        -0.8490    3.0870   -0.6690 ca        1 VO1     -0.073000
     13 C13        -0.5920    1.7380   -0.4150 ca        1 VO1     -0.070200
     14 O14        -1.5900    0.7910   -0.5810 os        1 VO1     -0.338900
     15 C15        -2.4260    0.6590    0.5880 c3        1 VO1      0.171700
     16 C16        -3.5020   -0.3270    0.2810 ca        1 VO1     -0.097300
     17 C17        -3.9340   -0.5560   -1.0290 ca        1 VO1     -0.113000
     18 C18        -4.9630   -1.4640   -1.2760 ca        1 VO1     -0.130500
     19 C19        -5.5670   -2.1430   -0.2190 ca        1 VO1     -0.124000
     20 C20        -5.1380   -1.9170    1.0890 ca        1 VO1     -0.130500
     21 C21        -4.1060   -1.0150    1.3410 ca        1 VO1     -0.113000
     22 H1          5.6600   -1.1590    0.6870 h4        1 VO1      0.178000
     23 H2          4.1330   -3.9020   -1.1280 hc        1 VO1      0.050033
     24 H3          5.4290   -3.5850    0.1070 hc        1 VO1      0.050033
     25 H4          3.8330   -4.2920    0.6170 hc        1 VO1      0.050033
     26 H5          0.2140   -0.6400   -0.0250 hn        1 VO1      0.457800
     27 H6          2.3570    4.1900   -0.2570 h4        1 VO1      0.027100
     28 H7          0.0490    5.0620   -0.8140 ha        1 VO1      0.150000
     29 H8         -1.8710    3.4100   -0.9140 ha        1 VO1      0.152000
     30 H9         -1.7920    0.3130    1.4480 h1        1 VO1      0.049200
     31 H10        -2.8720    1.6610    0.8300 h1        1 VO1      0.049200
     32 H11        -3.4490   -0.0230   -1.8620 ha        1 VO1      0.140000
     33 H12        -5.2960   -1.6440   -2.3090 ha        1 VO1      0.133500
     34 H13        -6.3790   -2.8580   -0.4150 ha        1 VO1      0.132000
     35 H14        -5.6110   -2.4540    1.9240 ha        1 VO1      0.133500
     36 H15        -3.7640   -0.8440    2.3720 ha        1 VO1      0.140000
@<TRIPOS>BOND
     1    1    2 2   
     2    1    5 1   
     3    1    7 1   
     4    2    3 1   
     5    3    4 2   
     6    3    6 1   
     7    4    5 1   
     8    4   22 1   
     9    6   23 1   
    10    6   24 1   
    11    6   25 1   
    12    7    8 1   
    13    7   26 1   
    14    8    9 ar  
    15    8   13 ar  
    16    9   10 ar  
    17   10   11 ar  
    18   10   27 1   
    19   11   12 ar  
    20   11   28 1   
    21   12   13 ar  
    22   12   29 1   
    23   13   14 1   
    24   14   15 1   
    25   15   16 1   
    26   15   30 1   
    27   15   31 1   
    28   16   17 ar  
    29   16   21 ar  
    30   17   18 ar  
    31   17   32 1   
    32   18   19 ar  
    33   18   33 1   
    34   19   20 ar  
    35   19   34 1   
    36   20   21 ar  
    37   20   35 1   
    38   21   36 1   
@<TRIPOS>SUBSTRUCTURE
     1 VO1         1 TEMP              0 ****  ****    0 ROOT
