@<TRIPOS>MOLECULE
VO1
   36    29     1     0     0
SMALL
bcc


@<TRIPOS>ATOM
      1 C1         -0.3140    0.4670    2.8220 c1        1 VO1     -0.176000
      2 N2         -1.1280   -0.2320    3.7690 n2        1 VO1     -0.163000
      3 C3         -0.7640    0.2790    5.2110 c1        1 VO1     -0.053000
      4 C4          0.2670    1.2780    5.0900 c1        1 VO1     -0.527000
      5 S5          0.5920    1.4400    3.6020 ss        1 VO1      0.598000
      6 C6         -1.4140   -0.1770    6.5100 c2        1 VO1     -0.146000
      7 N7         -0.3550    0.3090    1.3870 n2        1 VO1     -0.193000
      8 C8         -0.4910    1.4610    0.5420 c2        1 VO1      0.102000
      9 N9         -1.0550    2.6010    1.0310 n2        1 VO1     -0.180000
     10 C10        -1.1760    3.7020    0.2310 c1        1 VO1     -0.051000
     11 C11        -0.7230    3.6600   -1.0820 c1        1 VO1     -0.132500
     12 C12        -0.1560    2.5160   -1.5740 c1        1 VO1     -0.132500
     13 C13        -0.0360    1.4170   -0.7760 c1        1 VO1     -0.016000
     14 O14         0.4820    0.1870   -1.3190 o         1 VO1     -0.216000
     15 C15        -0.0080   -0.1210   -2.6460 c3        1 VO1      0.020000
     16 C16         0.6100   -1.4560   -3.1280 c1        1 VO1     -0.095000
     17 C17         1.9460   -1.5040   -3.5150 c1        1 VO1     -0.132500
     18 C18         2.4850   -2.6890   -4.0000 c1        1 VO1     -0.132500
     19 C19         1.6900   -3.8270   -4.0980 c1        1 VO1     -0.132500
     20 C20         0.3560   -3.7780   -3.7120 c1        1 VO1     -0.132500
     21 C21        -0.1840   -2.5940   -3.2270 c1        1 VO1     -0.121000
     22 H1          0.6810    1.7630    5.8220 DU        1 VO1      0.177000
     23 H2         -2.0980   -0.8480    6.3130 ha        1 VO1      0.088667
     24 H3         -1.8280    0.5900    6.9560 ha        1 VO1      0.088667
     25 H4         -0.7310   -0.5690    7.1000 ha        1 VO1      0.088667
     26 H5         -0.3550   -0.5250    1.0220 hn        1 VO1      0.253000
     27 H6         -1.5830    4.5250    0.5850 ha        1 VO1      0.164000
     28 H7         -0.8080    4.4460   -1.6530 ha        1 VO1      0.140500
     29 H8          0.1570    2.4860   -2.4830 ha        1 VO1      0.140500
     30 H9          0.2460    0.6020   -3.2650 h1        1 VO1      0.089500
     31 H10        -0.9850   -0.2030   -2.6220 h1        1 VO1      0.089500
     32 H11         2.5100   -0.6980   -3.4460 ha        1 VO1      0.140500
     33 H12         3.4290   -2.7230   -4.2730 ha        1 VO1      0.140500
     34 H13         2.0630   -4.6460   -4.4330 ha        1 VO1      0.140500
     35 H14        -0.2070   -4.5830   -3.7810 ha        1 VO1      0.140500
     36 H15        -1.1140   -2.5610   -2.9580 ha        1 VO1      0.130000
@<TRIPOS>BOND
     1    1    2 1   
     2    1    5 1   
     3    2    3 1   
     4    3    4 1   
     5    4    5 1   
     6    6   23 1   
     7    6   24 1   
     8    6   25 1   
     9    7    8 1   
    10    7   26 1   
    11    8    9 1   
    12    8   13 1   
    13    9   10 1   
    14   10   27 1   
    15   11   12 1   
    16   11   28 1   
    17   12   29 1   
    18   14   15 1   
    19   15   16 1   
    20   15   30 1   
    21   15   31 1   
    22   16   21 1   
    23   17   18 1   
    24   17   32 1   
    25   18   33 1   
    26   19   20 1   
    27   19   34 1   
    28   20   35 1   
    29   21   36 1   
@<TRIPOS>SUBSTRUCTURE
     1 VO1         1 TEMP              0 ****  ****    0 ROOT
