@<TRIPOS>MOLECULE
VO1
   36    38     1     0     0
SMALL
bcc


@<TRIPOS>ATOM
      1 C1         -0.1650    0.2360   -0.1390 cc        1 VO1      0.593300
      2 N2          1.1540   -0.0160   -0.3290 nd        1 VO1     -0.686000
      3 C3          1.8300    0.1610    0.8690 cd        1 VO1      0.369600
      4 C4          1.0240    0.5280    1.9440 cc        1 VO1     -0.321400
      5 S5         -0.5690    0.6610    1.4940 ss        1 VO1      0.014700
      6 C6          3.2950   -0.0400    0.9630 c3        1 VO1     -0.123400
      7 N7         -1.0880    0.2530   -1.1920 nh        1 VO1     -0.789600
      8 C8         -2.4330   -0.1100   -1.0020 ca        1 VO1      0.629200
      9 N9         -2.9920   -0.0800    0.2480 nb        1 VO1     -0.716000
     10 C10        -4.3020   -0.3480    0.3590 ca        1 VO1      0.434200
     11 C11        -5.1450   -0.6630   -0.7180 ca        1 VO1     -0.275300
     12 C12        -4.5920   -0.7050   -1.9980 ca        1 VO1     -0.073000
     13 C13        -3.2320   -0.4350   -2.1540 ca        1 VO1     -0.070200
     14 O14        -2.6230   -0.5880   -3.3890 os        1 VO1     -0.338900
     15 C15        -2.7630    0.5810   -4.2240 c3        1 VO1      0.171700
     16 C16        -2.1420    0.2850   -5.5460 ca        1 VO1     -0.097300
     17 C17        -1.6900    1.3550   -6.3300 ca        1 VO1     -0.113500
     18 C18        -1.1360    1.1140   -7.5850 ca        1 VO1     -0.130500
     19 C19        -1.0220   -0.1920   -8.0620 ca        1 VO1     -0.124000
     20 C20        -1.4640   -1.2590   -7.2810 ca        1 VO1     -0.130500
     21 C21        -2.0250   -1.0230   -6.0260 ca        1 VO1     -0.113500
     22 H1          1.3840    0.6960    2.9560 h4        1 VO1      0.178000
     23 H2          3.6380    0.1440    2.0100 hc        1 VO1      0.050033
     24 H3          3.5670   -1.0860    0.6730 hc        1 VO1      0.050033
     25 H4          3.8320    0.6630    0.2780 hc        1 VO1      0.050033
     26 H5         -0.7260   -0.0140   -2.0910 hn        1 VO1      0.457800
     27 H6         -4.6950   -0.3060    1.3930 h4        1 VO1      0.027100
     28 H7         -6.2090   -0.8740   -0.5530 ha        1 VO1      0.150000
     29 H8         -5.2030   -0.9530   -2.8790 ha        1 VO1      0.152000
     30 H9         -3.8560    0.8090   -4.3480 h1        1 VO1      0.049200
     31 H10        -2.2540    1.4460   -3.7210 h1        1 VO1      0.049200
     32 H11        -1.7730    2.3850   -5.9540 ha        1 VO1      0.140000
     33 H12        -0.7840    1.9560   -8.1990 ha        1 VO1      0.133500
     34 H13        -0.5810   -0.3800   -9.0520 ha        1 VO1      0.132000
     35 H14        -1.3710   -2.2900   -7.6520 ha        1 VO1      0.133500
     36 H15        -2.3700   -1.8630   -5.4030 ha        1 VO1      0.140000
@<TRIPOS>BOND
     1    1    2 2   
     2    1    5 1   
     3    1    7 1   
     4    2    3 1   
     5    3    4 2   
     6    3    6 1   
     7    4    5 1   
     8    4   22 1   
     9    6   23 1   
    10    6   24 1   
    11    6   25 1   
    12    7    8 1   
    13    7   26 1   
    14    8    9 ar  
    15    8   13 ar  
    16    9   10 ar  
    17   10   11 ar  
    18   10   27 1   
    19   11   12 ar  
    20   11   28 1   
    21   12   13 ar  
    22   12   29 1   
    23   13   14 1   
    24   14   15 1   
    25   15   16 1   
    26   15   30 1   
    27   15   31 1   
    28   16   17 ar  
    29   16   21 ar  
    30   17   18 ar  
    31   17   32 1   
    32   18   19 ar  
    33   18   33 1   
    34   19   20 ar  
    35   19   34 1   
    36   20   21 ar  
    37   20   35 1   
    38   21   36 1   
@<TRIPOS>SUBSTRUCTURE
     1 VO1         1 TEMP              0 ****  ****    0 ROOT
