@<TRIPOS>MOLECULE
VO1
   36    38     1     0     0
SMALL
bcc


@<TRIPOS>ATOM
      1 C1         -0.1610   -0.2280   -0.1420 cc        1 VO1      0.593300
      2 N2          1.1580    0.0230   -0.3350 nd        1 VO1     -0.686000
      3 C3          1.8370   -0.1520    0.8620 cd        1 VO1      0.369600
      4 C4          1.0320   -0.5180    1.9380 cc        1 VO1     -0.321400
      5 S5         -0.5610   -0.6520    1.4920 ss        1 VO1      0.014700
      6 C6          3.3020    0.0500    0.9520 c3        1 VO1     -0.123400
      7 N7         -1.0860   -0.2470   -1.1930 nu        1 VO1     -0.789600
      8 C8         -2.4310    0.1160   -1.0000 ca        1 VO1      0.629200
      9 N9         -2.9870    0.0870    0.2510 nb        1 VO1     -0.716000
     10 C10        -4.2970    0.3540    0.3650 ca        1 VO1      0.434200
     11 C11        -5.1430    0.6670   -0.7120 ca        1 VO1     -0.275300
     12 C12        -4.5930    0.7070   -1.9920 ca        1 VO1     -0.073000
     13 C13        -3.2320    0.4380   -2.1510 ca        1 VO1     -0.070200
     14 O14        -2.6260    0.5900   -3.3870 os        1 VO1     -0.338900
     15 C15        -2.7650   -0.5810   -4.2190 c3        1 VO1      0.171700
     16 C16        -2.1460   -0.2870   -5.5440 ca        1 VO1     -0.097300
     17 C17        -2.0390    1.0190   -6.0290 ca        1 VO1     -0.113500
     18 C18        -1.4800    1.2540   -7.2850 ca        1 VO1     -0.130500
     19 C19        -1.0310    0.1870   -8.0620 ca        1 VO1     -0.124000
     20 C20        -1.1360   -1.1180   -7.5800 ca        1 VO1     -0.130500
     21 C21        -1.6890   -1.3570   -6.3240 ca        1 VO1     -0.113500
     22 H1          1.3950   -0.6850    2.9500 h4        1 VO1      0.178000
     23 H2          3.6460   -0.1330    1.9990 hc        1 VO1      0.050033
     24 H3          3.8370   -0.6550    0.2680 hc        1 VO1      0.050033
     25 H4          3.5720    1.0950    0.6610 hc        1 VO1      0.050033
     26 H5         -0.7260    0.0200   -2.0930 hn        1 VO1      0.457800
     27 H6         -4.6880    0.3140    1.3990 h4        1 VO1      0.027100
     28 H7         -6.2070    0.8770   -0.5440 ha        1 VO1      0.150000
     29 H8         -5.2050    0.9540   -2.8720 ha        1 VO1      0.152000
     30 H9         -3.8580   -0.8120   -4.3410 h1        1 VO1      0.049200
     31 H10        -2.2540   -1.4450   -3.7150 h1        1 VO1      0.049200
     32 H11        -2.3880    1.8600   -5.4090 ha        1 VO1      0.140000
     33 H12        -1.3940    2.2840   -7.6600 ha        1 VO1      0.133500
     34 H13        -0.5920    0.3740   -9.0530 ha        1 VO1      0.132000
     35 H14        -0.7800   -1.9600   -8.1910 ha        1 VO1      0.133500
     36 H15        -1.7640   -2.3860   -5.9420 ha        1 VO1      0.140000
@<TRIPOS>BOND
     1    1    2 2   
     2    1    5 1   
     3    1    7 1   
     4    2    3 1   
     5    3    4 2   
     6    3    6 1   
     7    4    5 1   
     8    4   22 1   
     9    6   23 1   
    10    6   24 1   
    11    6   25 1   
    12    7    8 1   
    13    7   26 1   
    14    8    9 ar  
    15    8   13 ar  
    16    9   10 ar  
    17   10   11 ar  
    18   10   27 1   
    19   11   12 ar  
    20   11   28 1   
    21   12   13 ar  
    22   12   29 1   
    23   13   14 1   
    24   14   15 1   
    25   15   16 1   
    26   15   30 1   
    27   15   31 1   
    28   16   17 ar  
    29   16   21 ar  
    30   17   18 ar  
    31   17   32 1   
    32   18   19 ar  
    33   18   33 1   
    34   19   20 ar  
    35   19   34 1   
    36   20   21 ar  
    37   20   35 1   
    38   21   36 1   
@<TRIPOS>SUBSTRUCTURE
     1 VO1         1 TEMP              0 ****  ****    0 ROOT
