@<TRIPOS>MOLECULE
VO2
   39    32     1     0     0
SMALL
bcc


@<TRIPOS>ATOM
      1 C1          1.5510   -0.1120    2.4680 c1        1 VO2     -0.179000
      2 N2          0.8460   -0.6390    3.5930 n2        1 VO2     -0.161000
      3 C3          1.8430   -0.7400    4.8010 c1        1 VO2     -0.053000
      4 C4          3.1340   -0.2660    4.3640 c1        1 VO2     -0.525000
      5 S5          3.0110    0.1440    2.9010 ss        1 VO2      0.600000
      6 C6          1.5080   -1.2490    6.1870 c2        1 VO2     -0.147000
      7 N7          0.9870    0.2120    1.2080 n2        1 VO2     -0.196000
      8 C8          1.2940   -0.5770    0.0700 c2        1 VO2      0.098000
      9 N9          2.4460   -1.3030    0.0350 n2        1 VO2     -0.184000
     10 C10         2.7420   -2.0600   -1.0570 c1        1 VO2     -0.033000
     11 C11         1.8720   -2.0930   -2.1350 c1        1 VO2     -0.145000
     12 C12         0.7180   -1.3670   -2.1020 c1        1 VO2     -0.076000
     13 C13         0.4220   -0.6080   -1.0070 c1        1 VO2     -0.043000
     14 O14        -0.7960    0.0870   -0.9440 o         1 VO2     -0.223000
     15 C15        -0.8730    1.1830   -1.8250 c3        1 VO2      0.014000
     16 C16        -2.2810    1.7360   -1.8190 c1        1 VO2     -0.089000
     17 C17        -3.0350    1.6980   -0.6560 c1        1 VO2     -0.122000
     18 C18        -4.3000    2.2640   -0.6320 c1        1 VO2     -0.122000
     19 C19        -4.8110    2.8670   -1.7700 c1        1 VO2     -0.122000
     20 C20        -4.0580    2.9040   -2.9330 c1        1 VO2     -0.122000
     21 C21        -2.7930    2.3380   -2.9570 c1        1 VO2     -0.127000
     22 C28         2.1950   -2.9440   -3.3410 c3        1 VO2     -0.171000
     23 H1          3.9420   -0.2160    4.9090 DU        1 VO2      0.178000
     24 H2          1.5210   -0.5020    6.8220 ha        1 VO2      0.089333
     25 H3          0.6170   -1.6560    6.1790 ha        1 VO2      0.089333
     26 H4          2.1710   -1.9190    6.4580 ha        1 VO2      0.089333
     27 H5          0.4350    0.9330    1.1270 hn        1 VO2      0.248000
     28 H6          3.5680   -2.5800   -1.0800 ha        1 VO2      0.164000
     29 H7          0.1050   -1.3890   -2.8600 ha        1 VO2      0.153000
     30 H8         -0.2480    1.8800   -1.5350 h1        1 VO2      0.089000
     31 H9         -0.6410    0.8910   -2.7310 h1        1 VO2      0.089000
     32 H10        -2.6740    1.2740    0.1450 ha        1 VO2      0.136750
     33 H11        -4.8300    2.2380    0.1860 ha        1 VO2      0.136750
     34 H12        -5.7020    3.2650   -1.7530 ha        1 VO2      0.136750
     35 H13        -4.4180    3.3280   -3.7350 ha        1 VO2      0.136750
     36 H14        -2.2620    2.3650   -3.7760 ha        1 VO2      0.130000
     37 H15         2.3120   -2.3690   -4.1250 hc        1 VO2      0.086667
     38 H16         3.0220   -3.4440   -3.1760 hc        1 VO2      0.086667
     39 H17         1.4600   -3.5720   -3.5030 hc        1 VO2      0.086667
@<TRIPOS>BOND
     1    1    2 1   
     2    1    5 1   
     3    2    3 1   
     4    3    4 1   
     5    4    5 1   
     6    6   24 1   
     7    6   25 1   
     8    6   26 1   
     9    7    8 1   
    10    7   27 1   
    11    8    9 1   
    12    8   13 1   
    13    9   10 1   
    14   10   28 1   
    15   11   12 1   
    16   11   22 1   
    17   12   29 1   
    18   14   15 1   
    19   15   16 1   
    20   15   30 1   
    21   15   31 1   
    22   16   21 1   
    23   17   18 1   
    24   17   32 1   
    25   18   33 1   
    26   19   20 1   
    27   19   34 1   
    28   20   35 1   
    29   21   36 1   
    30   22   37 1   
    31   22   38 1   
    32   22   39 1   
@<TRIPOS>SUBSTRUCTURE
     1 VO2         1 TEMP              0 ****  ****    0 ROOT
