@<TRIPOS>MOLECULE
VO2
   39    41     1     0     0
SMALL
bcc


@<TRIPOS>ATOM
      1 C1         -0.1200    0.5260   -0.1660 cc        1 VO2      0.594300
      2 N2          1.1680    0.2250   -0.4660 nd        1 VO2     -0.690000
      3 C3          1.8970    0.1160    0.7100 cd        1 VO2      0.369600
      4 C4          1.1590    0.3200    1.8730 cc        1 VO2     -0.322400
      5 S5         -0.4320    0.6510    1.5370 ss        1 VO2      0.011700
      6 C6          3.3450   -0.2000    0.6900 c3        1 VO2     -0.122400
      7 N7         -1.0770    0.8200   -1.1440 nh        1 VO2     -0.781600
      8 C8         -2.4290    0.4580   -0.9760 ca        1 VO2      0.616200
      9 N9         -2.9420    0.2810    0.2770 nb        1 VO2     -0.701000
     10 C10        -4.2550    0.0370    0.4020 ca        1 VO2      0.413200
     11 C11        -5.1580   -0.0480   -0.6740 ca        1 VO2     -0.198600
     12 C12        -4.6460    0.1250   -1.9660 ca        1 VO2     -0.127000
     13 C13        -3.2850    0.3710   -2.1340 ca        1 VO2     -0.030200
     14 O14        -2.6960    0.6000   -3.3630 os        1 VO2     -0.332900
     15 C15        -3.3050   -0.1040   -4.4620 c3        1 VO2      0.177700
     16 C16        -2.3200   -0.1420   -5.5810 ca        1 VO2     -0.102300
     17 C17        -1.4500    0.9280   -5.8110 ca        1 VO2     -0.111000
     18 C18        -0.5590    0.8850   -6.8830 ca        1 VO2     -0.130000
     19 C19        -0.5380   -0.2210   -7.7310 ca        1 VO2     -0.122000
     20 C20        -1.4050   -1.2900   -7.5040 ca        1 VO2     -0.130000
     21 C21        -2.2920   -1.2550   -6.4290 ca        1 VO2     -0.111000
     22 C28        -6.5960   -0.2970   -0.4480 c3        1 VO2     -0.045800
     23 H1          1.5670    0.2590    2.8800 h4        1 VO2      0.177000
     24 H2          3.7350   -0.2540    1.7360 hc        1 VO2      0.049367
     25 H3          3.5250   -1.1830    0.1870 hc        1 VO2      0.049367
     26 H4          3.9100    0.5890    0.1340 hc        1 VO2      0.049367
     27 H5         -0.7610    0.7460   -2.0960 hn        1 VO2      0.455800
     28 H6         -4.6030   -0.1020    1.4430 h4        1 VO2      0.027100
     29 H7         -5.3140    0.0620   -2.8370 ha        1 VO2      0.146000
     30 H8         -3.5990   -1.1380   -4.1400 h1        1 VO2      0.050200
     31 H9         -4.2220    0.4690   -4.7720 h1        1 VO2      0.050200
     32 H10        -1.4670    1.7960   -5.1340 ha        1 VO2      0.139000
     33 H11         0.1280    1.7260   -7.0570 ha        1 VO2      0.134500
     34 H12         0.1640   -0.2530   -8.5780 ha        1 VO2      0.133000
     35 H13        -1.3880   -2.1650   -8.1710 ha        1 VO2      0.134500
     36 H14        -2.9700   -2.1030   -6.2480 ha        1 VO2      0.139000
     37 H15        -7.0050   -0.9870   -1.2270 hc        1 VO2      0.047033
     38 H16        -6.7720   -0.7530    0.5570 hc        1 VO2      0.047033
     39 H17        -7.1650    0.6650   -0.5010 hc        1 VO2      0.047033
@<TRIPOS>BOND
     1    1    2 2   
     2    1    5 1   
     3    1    7 1   
     4    2    3 1   
     5    3    4 2   
     6    3    6 1   
     7    4    5 1   
     8    4   23 1   
     9    6   24 1   
    10    6   25 1   
    11    6   26 1   
    12    7    8 1   
    13    7   27 1   
    14    8    9 ar  
    15    8   13 ar  
    16    9   10 ar  
    17   10   11 ar  
    18   10   28 1   
    19   11   12 ar  
    20   11   22 1   
    21   12   13 ar  
    22   12   29 1   
    23   13   14 1   
    24   14   15 1   
    25   15   16 1   
    26   15   30 1   
    27   15   31 1   
    28   16   17 ar  
    29   16   21 ar  
    30   17   18 ar  
    31   17   32 1   
    32   18   19 ar  
    33   18   33 1   
    34   19   20 ar  
    35   19   34 1   
    36   20   21 ar  
    37   20   35 1   
    38   21   36 1   
    39   22   37 1   
    40   22   38 1   
    41   22   39 1   
@<TRIPOS>SUBSTRUCTURE
     1 VO2         1 TEMP              0 ****  ****    0 ROOT
