@<TRIPOS>MOLECULE
VO2
   39    41     1     0     0
SMALL
bcc


@<TRIPOS>ATOM
      1 C1         -0.1250    0.5230   -0.1620 cc        1 VO2      0.594300
      2 N2          1.1650    0.2330   -0.4640 nd        1 VO2     -0.690000
      3 C3          1.8950    0.1210    0.7110 cd        1 VO2      0.369600
      4 C4          1.1560    0.3120    1.8760 cc        1 VO2     -0.322400
      5 S5         -0.4380    0.6340    1.5410 ss        1 VO2      0.011700
      6 C6          3.3450   -0.1850    0.6900 c3        1 VO2     -0.122400
      7 N7         -1.0830    0.8170   -1.1390 nu        1 VO2     -0.781600
      8 C8         -2.4320    0.4440   -0.9730 ca        1 VO2      0.617200
      9 N9         -2.9450    0.2560    0.2780 nb        1 VO2     -0.701000
     10 C10        -4.2560    0.0010    0.4010 ca        1 VO2      0.413200
     11 C11        -5.1580   -0.0830   -0.6750 ca        1 VO2     -0.198600
     12 C12        -4.6470    0.1020   -1.9660 ca        1 VO2     -0.127000
     13 C13        -3.2880    0.3590   -2.1320 ca        1 VO2     -0.030200
     14 O14        -2.7000    0.6000   -3.3600 os        1 VO2     -0.332900
     15 C15        -3.3040   -0.1020   -4.4630 c3        1 VO2      0.177700
     16 C16        -2.3180   -0.1270   -5.5820 ca        1 VO2     -0.102300
     17 C17        -1.4530    0.9500   -5.8030 ca        1 VO2     -0.111000
     18 C18        -0.5610    0.9190   -6.8750 ca        1 VO2     -0.130000
     19 C19        -0.5340   -0.1810   -7.7320 ca        1 VO2     -0.122000
     20 C20        -1.3960   -1.2560   -7.5120 ca        1 VO2     -0.130000
     21 C21        -2.2840   -1.2330   -6.4380 ca        1 VO2     -0.111000
     22 C28        -6.5940   -0.3430   -0.4520 c3        1 VO2     -0.045800
     23 H1          1.5630    0.2470    2.8820 h4        1 VO2      0.177000
     24 H2          3.9040    0.6120    0.1400 hc        1 VO2      0.049367
     25 H3          3.7350   -0.2440    1.7350 hc        1 VO2      0.049367
     26 H4          3.5320   -1.1620    0.1790 hc        1 VO2      0.049367
     27 H5         -0.7670    0.7510   -2.0910 hn        1 VO2      0.455800
     28 H6         -4.6030   -0.1470    1.4410 h4        1 VO2      0.027100
     29 H7         -5.3150    0.0400   -2.8380 ha        1 VO2      0.146000
     30 H8         -4.2240    0.4670   -4.7710 h1        1 VO2      0.050200
     31 H9         -3.5910   -1.1400   -4.1480 h1        1 VO2      0.050200
     32 H10        -1.4760    1.8130   -5.1210 ha        1 VO2      0.139000
     33 H11         0.1210    1.7650   -7.0430 ha        1 VO2      0.134500
     34 H12         0.1690   -0.2030   -8.5780 ha        1 VO2      0.133000
     35 H13        -1.3730   -2.1260   -8.1850 ha        1 VO2      0.134500
     36 H14        -2.9560   -2.0860   -6.2640 ha        1 VO2      0.139000
     37 H15        -6.7660   -0.8200    0.5450 hc        1 VO2      0.047033
     38 H16        -7.1690    0.6170   -0.4850 hc        1 VO2      0.047033
     39 H17        -7.0030   -1.0210   -1.2430 hc        1 VO2      0.047033
@<TRIPOS>BOND
     1    1    2 2   
     2    1    5 1   
     3    1    7 1   
     4    2    3 1   
     5    3    4 2   
     6    3    6 1   
     7    4    5 1   
     8    4   23 1   
     9    6   24 1   
    10    6   25 1   
    11    6   26 1   
    12    7    8 1   
    13    7   27 1   
    14    8    9 ar  
    15    8   13 ar  
    16    9   10 ar  
    17   10   11 ar  
    18   10   28 1   
    19   11   12 ar  
    20   11   22 1   
    21   12   13 ar  
    22   12   29 1   
    23   13   14 1   
    24   14   15 1   
    25   15   16 1   
    26   15   30 1   
    27   15   31 1   
    28   16   17 ar  
    29   16   21 ar  
    30   17   18 ar  
    31   17   32 1   
    32   18   19 ar  
    33   18   33 1   
    34   19   20 ar  
    35   19   34 1   
    36   20   21 ar  
    37   20   35 1   
    38   21   36 1   
    39   22   37 1   
    40   22   38 1   
    41   22   39 1   
@<TRIPOS>SUBSTRUCTURE
     1 VO2         1 TEMP              0 ****  ****    0 ROOT
