@<TRIPOS>MOLECULE
VO2
   39    41     1     0     0
SMALL
bcc


@<TRIPOS>ATOM
      1 C1          2.2450   -0.8780   -0.4840 cc        1 VO2      0.594300
      2 N2          2.3370   -2.2010   -0.2020 nd        1 VO2     -0.690000
      3 C3          3.6740   -2.5480   -0.0710 cd        1 VO2      0.369600
      4 C4          4.5690   -1.4940   -0.2390 cc        1 VO2     -0.322400
      5 S5          3.7790   -0.0700   -0.5640 ss        1 VO2      0.011700
      6 C6          4.0810   -3.9400    0.2310 c3        1 VO2     -0.122400
      7 N7          1.0320   -0.2510   -0.7940 nh        1 VO2     -0.781600
      8 C8          0.7820    1.0830   -0.4140 ca        1 VO2      0.617200
      9 N9          1.8200    1.9430   -0.2020 nb        1 VO2     -0.701000
     10 C10         1.5420    3.2300    0.0590 ca        1 VO2      0.413200
     11 C11         0.2440    3.7690    0.1250 ca        1 VO2     -0.198600
     12 C12        -0.8330    2.8980   -0.0840 ca        1 VO2     -0.127000
     13 C13        -0.5810    1.5530   -0.3480 ca        1 VO2     -0.030200
     14 O14        -1.5740    0.6280   -0.6120 os        1 VO2     -0.332900
     15 C15        -2.8170    0.8690    0.0720 c3        1 VO2      0.177700
     16 C16        -3.5910   -0.4060    0.0730 ca        1 VO2     -0.102300
     17 C17        -3.5280   -1.2880   -1.0100 ca        1 VO2     -0.111000
     18 C18        -4.2850   -2.4590   -1.0020 ca        1 VO2     -0.130000
     19 C19        -5.1110   -2.7510    0.0840 ca        1 VO2     -0.122000
     20 C20        -5.1750   -1.8730    1.1660 ca        1 VO2     -0.130000
     21 C21        -4.4140   -0.7050    1.1650 ca        1 VO2     -0.111000
     22 C28         0.0250    5.2040    0.3940 c3        1 VO2     -0.045800
     23 H1          5.6490   -1.5830   -0.1570 h4        1 VO2      0.177000
     24 H2          3.7360   -4.6330   -0.5760 hc        1 VO2      0.049367
     25 H3          5.1940   -4.0020    0.3080 hc        1 VO2      0.049367
     26 H4          3.6340   -4.2790    1.1990 hc        1 VO2      0.049367
     27 H5          0.2170   -0.8380   -0.7460 hn        1 VO2      0.455800
     28 H6          2.4280    3.8700    0.2270 h4        1 VO2      0.027100
     29 H7         -1.8650    3.2740   -0.0360 ha        1 VO2      0.146000
     30 H8         -2.6190    1.2280    1.1160 h1        1 VO2      0.050200
     31 H9         -3.3770    1.6600   -0.4990 h1        1 VO2      0.050200
     32 H10        -2.8710   -1.0550   -1.8620 ha        1 VO2      0.139000
     33 H11        -4.2290   -3.1520   -1.8540 ha        1 VO2      0.134500
     34 H12        -5.7090   -3.6740    0.0890 ha        1 VO2      0.133000
     35 H13        -5.8220   -2.1030    2.0240 ha        1 VO2      0.134500
     36 H14        -4.4610   -0.0190    2.0240 ha        1 VO2      0.139000
     37 H15        -0.1610    5.7510   -0.5660 hc        1 VO2      0.047033
     38 H16        -0.8640    5.3530    1.0570 hc        1 VO2      0.047033
     39 H17         0.9170    5.6610    0.8900 hc        1 VO2      0.047033
@<TRIPOS>BOND
     1    1    2 2   
     2    1    5 1   
     3    1    7 1   
     4    2    3 1   
     5    3    4 2   
     6    3    6 1   
     7    4    5 1   
     8    4   23 1   
     9    6   24 1   
    10    6   25 1   
    11    6   26 1   
    12    7    8 1   
    13    7   27 1   
    14    8    9 ar  
    15    8   13 ar  
    16    9   10 ar  
    17   10   11 ar  
    18   10   28 1   
    19   11   12 ar  
    20   11   22 1   
    21   12   13 ar  
    22   12   29 1   
    23   13   14 1   
    24   14   15 1   
    25   15   16 1   
    26   15   30 1   
    27   15   31 1   
    28   16   17 ar  
    29   16   21 ar  
    30   17   18 ar  
    31   17   32 1   
    32   18   19 ar  
    33   18   33 1   
    34   19   20 ar  
    35   19   34 1   
    36   20   21 ar  
    37   20   35 1   
    38   21   36 1   
    39   22   37 1   
    40   22   38 1   
    41   22   39 1   
@<TRIPOS>SUBSTRUCTURE
     1 VO2         1 TEMP              0 ****  ****    0 ROOT
