@<TRIPOS>MOLECULE
VO2
   40    42     1     0     0
SMALL
bcc


@<TRIPOS>ATOM
      1 C1         -0.1440    0.6300   -0.1180 cc        1 VO2      0.317300
      2 N2          1.0330    0.0830   -0.5390 nd        1 VO2     -0.598000
      3 C3          1.7210   -0.3810    0.5560 cd        1 VO2      0.382600
      4 C4          1.0460   -0.1770    1.7780 cc        1 VO2     -0.291400
      5 S5         -0.4010    0.5560    1.5660 ss        1 VO2      0.229700
      6 C6          3.0480   -1.0290    0.4410 c3        1 VO2     -0.137400
      7 N7         -1.0570    1.2270   -1.0830 n4        1 VO2     -0.663400
      8 C8         -2.4580    0.7800   -0.9350 ca        1 VO2      0.372200
      9 N9         -3.0140    0.8330    0.3130 nb        1 VO2     -0.634000
     10 C10        -4.2800    0.4490    0.4430 ca        1 VO2      0.389200
     11 C11        -5.0840   -0.0200   -0.6390 ca        1 VO2     -0.078600
     12 C12        -4.5150   -0.0750   -1.9050 ca        1 VO2     -0.169000
     13 C13        -3.1750    0.3310   -2.0800 ca        1 VO2      0.104800
     14 O14        -2.5020    0.3530   -3.2650 os        1 VO2     -0.349900
     15 C15        -3.1980   -0.1680   -4.4310 c3        1 VO2      0.194700
     16 C16        -2.2320   -0.0650   -5.5590 ca        1 VO2     -0.137300
     17 C17        -2.2460    1.0580   -6.3930 ca        1 VO2     -0.099000
     18 C18        -1.3690    1.1330   -7.4730 ca        1 VO2     -0.128000
     19 C19        -0.4730    0.0920   -7.7210 ca        1 VO2     -0.095000
     20 C20        -0.4550   -1.0270   -6.8880 ca        1 VO2     -0.128000
     21 C21        -1.3310   -1.1070   -5.8060 ca        1 VO2     -0.099000
     22 C28        -6.4800   -0.4280   -0.3870 c3        1 VO2     -0.078800
     23 H1          1.4560   -0.4840    2.7440 h4        1 VO2      0.213000
     24 H2          3.4130   -1.3260    1.4550 hc        1 VO2      0.071700
     25 H3          3.7890   -0.3270   -0.0180 hc        1 VO2      0.071700
     26 H4          2.9840   -1.9430   -0.2020 hc        1 VO2      0.071700
     27 H5         -0.7510    0.9890   -2.0460 hn        1 VO2      0.480300
     28 H6         -4.6990    0.5100    1.4670 h4        1 VO2      0.060100
     29 H7         -5.1010   -0.4320   -2.7670 ha        1 VO2      0.177000
     30 H8         -4.1100    0.4630   -4.6040 h1        1 VO2      0.063700
     31 H9         -3.4860   -1.2320   -4.2240 h1        1 VO2      0.063700
     32 H10        -2.9540    1.8790   -6.2020 ha        1 VO2      0.136000
     33 H11        -1.3860    2.0140   -8.1340 ha        1 VO2      0.148000
     34 H12         0.2170    0.1520   -8.5770 ha        1 VO2      0.150000
     35 H13         0.2490   -1.8500   -7.0850 ha        1 VO2      0.148000
     36 H14        -1.3190   -1.9920   -5.1520 ha        1 VO2      0.136000
     37 H15        -6.9770   -0.7920   -1.3200 hc        1 VO2      0.075700
     38 H16        -7.0680    0.4390    0.0120 hc        1 VO2      0.075700
     39 H17        -6.5110   -1.2480    0.3760 hc        1 VO2      0.075700
     40 H72        -1.0210    2.2500   -0.9670 hn        1 VO2      0.480300
@<TRIPOS>BOND
     1    1    2 2   
     2    1    5 1   
     3    1    7 1   
     4    2    3 1   
     5    3    4 2   
     6    3    6 1   
     7    4    5 1   
     8    4   23 1   
     9    6   24 1   
    10    6   25 1   
    11    6   26 1   
    12    7    8 1   
    13    7   27 1   
    14    7   40 1   
    15    8    9 ar  
    16    8   13 ar  
    17    9   10 ar  
    18   10   11 ar  
    19   10   28 1   
    20   11   12 ar  
    21   11   22 1   
    22   12   13 ar  
    23   12   29 1   
    24   13   14 1   
    25   14   15 1   
    26   15   16 1   
    27   15   30 1   
    28   15   31 1   
    29   16   17 ar  
    30   16   21 ar  
    31   17   18 ar  
    32   17   32 1   
    33   18   19 ar  
    34   18   33 1   
    35   19   20 ar  
    36   19   34 1   
    37   20   21 ar  
    38   20   35 1   
    39   21   36 1   
    40   22   37 1   
    41   22   38 1   
    42   22   39 1   
@<TRIPOS>SUBSTRUCTURE
     1 VO2         1 TEMP              0 ****  ****    0 ROOT
