@<TRIPOS>MOLECULE
VOD
   22    22     1     0     0
SMALL
bcc


@<TRIPOS>ATOM
      1 C2         -0.0680   -0.0680   -0.0670 c2        1 VOD     -0.255000
      2 C3          1.2630   -0.0430    0.0280 ce        1 VOD     -0.075200
      3 C4          2.0310    0.0220    1.2580 ca        1 VOD     -0.111800
      4 C5          3.4180   -0.1930    1.2130 ca        1 VOD     -0.114500
      5 C6          4.1830   -0.1500    2.3730 ca        1 VOD     -0.147500
      6 C7          3.5880    0.1160    3.6160 ca        1 VOD      0.033700
      7 C8          2.2040    0.3530    3.6580 ca        1 VOD     -0.147500
      8 C9          1.4400    0.3050    2.4980 ca        1 VOD     -0.114500
      9 C10         4.3840    0.1180    4.8500 c3        1 VOD     -0.247300
     10 S11         4.3570    1.6160    5.8680 s6        1 VOD      1.427800
     11 O12         4.9520    2.6250    5.0870 o         1 VOD     -0.744867
     12 O13         2.9920    1.8260    6.1680 o         1 VOD     -0.744867
     13 O11         5.1310    1.2270    6.9860 o         1 VOD     -0.744867
     14 H21C       -0.7340   -0.0420    0.8040 ha        1 VOD      0.103000
     15 H22C       -0.5780   -0.1160   -1.0370 ha        1 VOD      0.103000
     16 H3          1.8750   -0.0780   -0.8930 ha        1 VOD      0.105000
     17 H5          3.9040   -0.3990    0.2480 ha        1 VOD      0.112500
     18 H9          0.3600    0.5040    2.5560 ha        1 VOD      0.112500
     19 H6          5.2690   -0.3160    2.3180 ha        1 VOD      0.150000
     20 H8          1.7410    0.6150    4.6270 ha        1 VOD      0.150000
     21 H101        4.0200   -0.7060    5.5140 h1        1 VOD      0.075200
     22 H102        5.4580   -0.0930    4.6230 h1        1 VOD      0.075200
@<TRIPOS>BOND
     1    1    2 2   
     2    1   14 1   
     3    1   15 1   
     4    2    3 1   
     5    2   16 1   
     6    3    4 ar  
     7    3    8 ar  
     8    4    5 ar  
     9    4   17 1   
    10    5    6 ar  
    11    5   19 1   
    12    6    7 ar  
    13    6    9 1   
    14    7    8 ar  
    15    7   20 1   
    16    8   18 1   
    17    9   10 1   
    18    9   21 1   
    19    9   22 1   
    20   10   11 1   
    21   10   12 1   
    22   10   13 1   
@<TRIPOS>SUBSTRUCTURE
     1 VOD         1 TEMP              0 ****  ****    0 ROOT
