@<TRIPOS>MOLECULE
VOL
   20    19     1     0     0
SMALL
bcc


@<TRIPOS>ATOM
      1 N          -1.0520   -1.0090   -0.4280 n3        1 VOL     -0.907800
      2 CA         -0.2880    0.2120   -0.2630 c3        1 VOL      0.121500
      3 CB          0.3880    0.4020    1.1120 c3        1 VOL     -0.103700
      4 CG1        -0.6520    0.6110    2.1920 c3        1 VOL     -0.093600
      5 CG2         1.3000   -0.7490    1.4720 c3        1 VOL     -0.093600
      6 CH2         0.7720    0.3620   -1.3760 c3        1 VOL      0.140400
      7 OH          0.1820    0.6650   -2.6220 oh        1 VOL     -0.601800
      8 HN1        -0.4650   -1.8120   -0.3120 hn        1 VOL      0.349300
      9 HN2        -1.7890   -1.0480    0.2490 hn        1 VOL      0.349300
     10 HA         -1.0210    1.0660   -0.3970 h1        1 VOL      0.071700
     11 HB          1.0110    1.3400    1.0440 hc        1 VOL      0.056700
     12 HG1        -0.1530    0.8590    3.1610 hc        1 VOL      0.035533
     13 HG2        -1.3370    1.4500    1.9210 hc        1 VOL      0.035533
     14 HG3        -1.2640   -0.3110    2.3450 hc        1 VOL      0.035533
     15 H21         0.7170   -1.6810    1.6670 hc        1 VOL      0.035533
     16 H22         2.0250   -0.9490    0.6470 hc        1 VOL      0.035533
     17 H23         1.8760   -0.5040    2.3980 hc        1 VOL      0.035533
     18 HH1         1.4020   -0.5630   -1.4620 h1        1 VOL      0.043200
     19 HH2         1.4320    1.2430   -1.1550 h1        1 VOL      0.043200
     20 HH         -0.4660   -0.0240   -2.8140 ho        1 VOL      0.414000
@<TRIPOS>BOND
     1    1    2 1   
     2    1    8 1   
     3    1    9 1   
     4    2    3 1   
     5    2    6 1   
     6    2   10 1   
     7    3    4 1   
     8    3    5 1   
     9    3   11 1   
    10    4   12 1   
    11    4   13 1   
    12    4   14 1   
    13    5   15 1   
    14    5   16 1   
    15    5   17 1   
    16    6    7 1   
    17    6   18 1   
    18    6   19 1   
    19    7   20 1   
@<TRIPOS>SUBSTRUCTURE
     1 VOL         1 TEMP              0 ****  ****    0 ROOT
