@<TRIPOS>MOLECULE
VOR
   39    41     1     0     0
SMALL
bcc


@<TRIPOS>ATOM
      1 F1          0.1060   -0.1020   -0.1640 f         1 VOR     -0.142900
      2 F2         -2.3070   -0.2920    3.0840 f         1 VOR     -0.121900
      3 F3          4.3330   -0.1470   -2.3250 f         1 VOR     -0.128900
      4 O4          2.2070    0.0830    3.6060 oh        1 VOR     -0.566800
      5 N5          1.1360    2.5330    2.3660 na        1 VOR     -0.051400
      6 N6          0.3840   -1.8080    5.0280 nb        1 VOR     -0.673000
      7 N7          1.8910    3.1690    3.2810 nc        1 VOR     -0.493800
      8 N8          1.9200    4.3560    1.2980 nd        1 VOR     -0.682000
      9 N9         -1.5500   -1.4240    6.4530 nb        1 VOR     -0.666000
     10 C10         1.3260    0.0020    2.4970 c3        1 VOR      0.204100
     11 C11         0.3880   -1.2320    2.6120 c3        1 VOR     -0.152000
     12 C12         0.4450    1.2860    2.5820 c3        1 VOR      0.061300
     13 C13         2.0960   -0.0380    1.1980 ca        1 VOR     -0.163300
     14 C14         1.1180   -2.5260    2.3100 c3        1 VOR     -0.088100
     15 C15        -0.2780   -1.2900    3.9650 ca        1 VOR      0.420600
     16 C16         1.4590   -0.0950   -0.0620 ca        1 VOR      0.145900
     17 C17         3.4960    0.0120    1.2250 ca        1 VOR     -0.062000
     18 C18        -1.6160   -0.8160    4.1160 ca        1 VOR     -0.116700
     19 C19         2.2060   -0.1360   -1.2530 ca        1 VOR     -0.207000
     20 C20         4.2540   -0.0230    0.0610 ca        1 VOR     -0.175000
     21 C21         1.1590    3.2550    1.1480 cc        1 VOR      0.399400
     22 C22         3.6070   -0.1040   -1.1850 ca        1 VOR      0.161900
     23 C23        -2.2130   -0.9120    5.4040 ca        1 VOR      0.407200
     24 C24        -0.2790   -1.8470    6.2110 ca        1 VOR      0.629900
     25 C25         2.3600    4.2720    2.6330 cd        1 VOR      0.491900
     26 HO4         2.5620   -0.8030    3.7630 ho        1 VOR      0.417000
     27 H11        -0.4270   -1.1040    1.8400 hc        1 VOR      0.088700
     28 H12        -0.3640    1.2040    1.8020 h1        1 VOR      0.083200
     29 H12A       -0.0230    1.2990    3.6090 h1        1 VOR      0.083200
     30 H14         2.0090   -2.6600    2.9690 hc        1 VOR      0.050033
     31 H14A        1.4600   -2.5250    1.2450 hc        1 VOR      0.050033
     32 H14B        0.4340   -3.3950    2.4630 hc        1 VOR      0.050033
     33 H17         4.0110    0.0990    2.1970 ha        1 VOR      0.164000
     34 H19         1.6940   -0.1870   -2.2240 ha        1 VOR      0.168000
     35 H20         5.3530    0.0180    0.1040 ha        1 VOR      0.160000
     36 H21         0.6180    2.9380    0.2510 h5        1 VOR      0.070100
     37 H23        -3.2470   -0.5630    5.5740 h4        1 VOR      0.047100
     38 H24         0.2790   -2.2680    7.0740 h5        1 VOR      0.065100
     39 H25         3.0080    5.0240    3.0930 h5        1 VOR      0.071100
@<TRIPOS>BOND
     1    1   16 1   
     2    2   18 1   
     3    3   22 1   
     4    4   10 1   
     5    4   26 1   
     6    5    7 1   
     7    5   12 1   
     8    5   21 1   
     9    6   15 ar  
    10    6   24 ar  
    11    7   25 2   
    12    8   21 2   
    13    8   25 1   
    14    9   23 ar  
    15    9   24 ar  
    16   10   11 1   
    17   10   12 1   
    18   10   13 1   
    19   11   14 1   
    20   11   15 1   
    21   11   27 1   
    22   12   28 1   
    23   12   29 1   
    24   13   16 ar  
    25   13   17 ar  
    26   14   30 1   
    27   14   31 1   
    28   14   32 1   
    29   15   18 ar  
    30   16   19 ar  
    31   17   20 ar  
    32   17   33 1   
    33   18   23 ar  
    34   19   22 ar  
    35   19   34 1   
    36   20   22 ar  
    37   20   35 1   
    38   21   36 1   
    39   23   37 1   
    40   24   38 1   
    41   25   39 1   
@<TRIPOS>SUBSTRUCTURE
     1 VOR         1 TEMP              0 ****  ****    0 ROOT
