@<TRIPOS>MOLECULE
VOR
   39    41     1     0     0
SMALL
bcc


@<TRIPOS>ATOM
      1 F1          0.1060   -0.1000   -0.1650 f         1 VOR     -0.142900
      2 F2         -2.3070   -0.2990    3.0850 f         1 VOR     -0.121900
      3 F3          4.3330   -0.1310   -2.3270 f         1 VOR     -0.128900
      4 O4          2.2070    0.0810    3.6050 oh        1 VOR     -0.566800
      5 N5          1.1310    2.5340    2.3720 na        1 VOR     -0.051400
      6 N6          0.3890   -1.8160    5.0230 nb        1 VOR     -0.673000
      7 N7          1.8840    3.1680    3.2900 nc        1 VOR     -0.493800
      8 N8          1.9150    4.3610    1.3100 nd        1 VOR     -0.682000
      9 N9         -1.5460   -1.4390    6.4500 nb        1 VOR     -0.666000
     10 C10         1.3250    0.0020    2.4960 c3        1 VOR      0.204100
     11 C11         0.3900   -1.2340    2.6080 c3        1 VOR     -0.152000
     12 C12         0.4430    1.2840    2.5840 c3        1 VOR      0.061300
     13 C13         2.0960   -0.0340    1.1970 ca        1 VOR     -0.163300
     14 C14         1.1220   -2.5250    2.3030 c3        1 VOR     -0.088100
     15 C15        -0.2750   -1.2960    3.9620 ca        1 VOR      0.420600
     16 C16         1.4590   -0.0890   -0.0630 ca        1 VOR      0.145900
     17 C17         3.4960    0.0190    1.2240 ca        1 VOR     -0.062000
     18 C18        -1.6140   -0.8250    4.1150 ca        1 VOR     -0.116700
     19 C19         2.2050   -0.1270   -1.2540 ca        1 VOR     -0.207000
     20 C20         4.2540   -0.0120    0.0600 ca        1 VOR     -0.175000
     21 C21         1.1550    3.2580    1.1560 cc        1 VOR      0.399400
     22 C22         3.6060   -0.0920   -1.1870 ca        1 VOR      0.161900
     23 C23        -2.2100   -0.9250    5.4030 ca        1 VOR      0.407200
     24 C24        -0.2730   -1.8590    6.2060 ca        1 VOR      0.629900
     25 C25         2.3520    4.2730    2.6460 cd        1 VOR      0.491900
     26 HO4         2.5630   -0.8040    3.7600 ho        1 VOR      0.417000
     27 H11        -0.4260   -1.1050    1.8380 hc        1 VOR      0.088700
     28 H12        -0.0270    1.2940    3.6100 h1        1 VOR      0.083200
     29 H12A       -0.3660    1.2030    1.8030 h1        1 VOR      0.083200
     30 H14         1.4620   -2.5220    1.2380 hc        1 VOR      0.050033
     31 H14A        0.4390   -3.3960    2.4550 hc        1 VOR      0.050033
     32 H14B        2.0130   -2.6600    2.9610 hc        1 VOR      0.050033
     33 H17         4.0110    0.1060    2.1960 ha        1 VOR      0.164000
     34 H19         1.6930   -0.1770   -2.2260 ha        1 VOR      0.168000
     35 H20         5.3520    0.0320    0.1030 ha        1 VOR      0.160000
     36 H21         0.6170    2.9430    0.2580 h5        1 VOR      0.070100
     37 H23        -3.2440   -0.5780    5.5750 h4        1 VOR      0.047100
     38 H24         0.2850   -2.2810    7.0680 h5        1 VOR      0.065100
     39 H25         2.9980    5.0260    3.1090 h5        1 VOR      0.071100
@<TRIPOS>BOND
     1    1   16 1   
     2    2   18 1   
     3    3   22 1   
     4    4   10 1   
     5    4   26 1   
     6    5    7 1   
     7    5   12 1   
     8    5   21 1   
     9    6   15 ar  
    10    6   24 ar  
    11    7   25 2   
    12    8   21 2   
    13    8   25 1   
    14    9   23 ar  
    15    9   24 ar  
    16   10   11 1   
    17   10   12 1   
    18   10   13 1   
    19   11   14 1   
    20   11   15 1   
    21   11   27 1   
    22   12   28 1   
    23   12   29 1   
    24   13   16 ar  
    25   13   17 ar  
    26   14   30 1   
    27   14   31 1   
    28   14   32 1   
    29   15   18 ar  
    30   16   19 ar  
    31   17   20 ar  
    32   17   33 1   
    33   18   23 ar  
    34   19   22 ar  
    35   19   34 1   
    36   20   22 ar  
    37   20   35 1   
    38   21   36 1   
    39   23   37 1   
    40   24   38 1   
    41   25   39 1   
@<TRIPOS>SUBSTRUCTURE
     1 VOR         1 TEMP              0 ****  ****    0 ROOT
