@<TRIPOS>MOLECULE
VOR
   39    34     1     0     0
SMALL
bcc


@<TRIPOS>ATOM
      1 F1          3.0360    0.4440   -0.3870 f         1 VOR     -0.084000
      2 F2         -3.7660   -1.7410    0.1900 f         1 VOR     -0.091000
      3 F3          2.7810   -0.2440   -5.1090 f         1 VOR     -0.093000
      4 O4          1.2320   -0.0290    0.9700 oh        1 VOR     -0.288000
      5 N5          0.3060    2.3550    0.6050 n2        1 VOR     -0.105500
      6 N6         -1.0380   -1.0230    2.5850 n1        1 VOR     -0.141000
      7 N7          1.1120    2.2930    1.6780 n2        1 VOR     -0.105500
      8 N8          0.8000    4.3930    1.1950 n2        1 VOR     -0.156000
      9 N9         -3.1360   -1.7560    3.4050 n1        1 VOR     -0.140000
     10 C10         0.2570    0.0150   -0.0400 c3        1 VOR      0.123000
     11 C11        -0.6670   -1.1870    0.0920 c3        1 VOR     -0.090000
     12 C12        -0.5490    1.2920    0.0940 c2        1 VOR      0.008000
     13 C13         0.9370   -0.0160   -1.4040 c2        1 VOR     -0.163000
     14 C14         0.1650   -2.4540    0.2210 c3        1 VOR     -0.208000
     15 C15        -1.5340   -1.0260    1.3220 c2        1 VOR     -0.001000
     16 C16         2.3230    0.1470   -1.4900 c2        1 VOR      0.148000
     17 C17         0.1880   -0.2320   -2.5580 c1        1 VOR     -0.090000
     18 C18        -2.8260   -1.3920    1.1000 c2        1 VOR     -0.025000
     19 C19         2.9550    0.0940   -2.7330 c1        1 VOR     -0.206000
     20 C20         0.8220   -0.2840   -3.8030 c1        1 VOR     -0.183000
     21 C21         0.1120    3.6550    0.3050 c1        1 VOR     -0.128000
     22 C22         2.2040   -0.1210   -3.8890 c1        1 VOR      0.129000
     23 C23        -3.6280   -1.7590    2.1590 c1        1 VOR     -0.057000
     24 C24        -1.8300   -1.3860    3.6280 c1        1 VOR     -0.032000
     25 C25         1.4180    3.5550    2.0420 c1        1 VOR     -0.128000
     26 HO4         1.7650   -0.7210    0.8360 ho        1 VOR      0.222000
     27 H11        -1.2310   -1.2490   -0.6960 hc        1 VOR      0.111000
     28 H12        -1.2880    1.1470    0.7090 ha        1 VOR      0.117000
     29 H12A       -0.8990    1.5490   -0.7810 ha        1 VOR      0.117000
     30 H14        -0.3860   -3.2320   -0.0050 hc        1 VOR      0.090667
     31 H14A        0.4930   -2.5410    1.1550 hc        1 VOR      0.090667
     32 H14B        0.9250   -2.4070   -0.3870 hc        1 VOR      0.090667
     33 H17        -0.7790   -0.3460   -2.4980 ha        1 VOR      0.140000
     34 H19         3.9190    0.2360   -2.7960 ha        1 VOR      0.172000
     35 H20         0.2920   -0.4360   -4.6190 ha        1 VOR      0.158000
     36 H21        -0.4330    4.0020   -0.4310 DU        1 VOR      0.206000
     37 H23        -4.5700   -2.0260    1.9990 ha        1 VOR      0.184000
     38 H24        -1.4700   -1.3840    4.5430 ha        1 VOR      0.203000
     39 H25         1.9890    3.8140    2.7920 DU        1 VOR      0.206000
@<TRIPOS>BOND
     1    1   16 1   
     2    2   18 1   
     3    3   22 1   
     4    4   10 1   
     5    4   26 1   
     6    5    7 1   
     7    5   21 1   
     8    6   15 1   
     9    7   25 1   
    10    8   21 1   
    11    8   25 1   
    12    9   24 1   
    13   10   11 1   
    14   10   12 1   
    15   10   13 1   
    16   11   14 1   
    17   11   15 1   
    18   11   27 1   
    19   12   28 1   
    20   12   29 1   
    21   13   16 1   
    22   13   17 1   
    23   14   30 1   
    24   14   31 1   
    25   14   32 1   
    26   15   18 1   
    27   16   19 1   
    28   17   33 1   
    29   18   23 1   
    30   19   34 1   
    31   20   22 1   
    32   20   35 1   
    33   23   37 1   
    34   24   38 1   
@<TRIPOS>SUBSTRUCTURE
     1 VOR         1 TEMP              0 ****  ****    0 ROOT
