@<TRIPOS>MOLECULE
VPA
   59    61     1     0     0
SMALL
bcc


@<TRIPOS>ATOM
      1 C1         -0.3060    0.6200    0.0640 c2        1 VPA      0.532200
      2 C2          0.3410   -0.7510    0.0090 c3        1 VPA     -0.107400
      3 N2         -0.4040    1.4600    1.0230 n2        1 VPA     -0.727100
      4 C3          0.9720   -1.0940    1.3120 ca        1 VPA     -0.146300
      5 C4          0.4590   -2.1400    2.0850 ca        1 VPA     -0.118500
      6 C5          1.0750   -2.4790    3.2910 ca        1 VPA     -0.121500
      7 C6          2.2010   -1.7820    3.7260 ca        1 VPA     -0.098000
      8 C8          2.1090   -0.3990    1.7470 ca        1 VPA     -0.118500
      9 C7          2.7190   -0.7420    2.9510 ca        1 VPA     -0.121500
     10 N1         -0.9370    1.0250   -1.2420 n4        1 VPA     -0.749000
     11 C1'        -2.4070    0.6960   -1.2870 c3        1 VPA      0.335300
     12 O5'        -2.4970   -0.7140   -1.4480 os        1 VPA     -0.429600
     13 C2'        -3.0960    1.3770   -2.5010 c3        1 VPA      0.107100
     14 O2'        -2.8820    2.7640   -2.3630 oh        1 VPA     -0.618800
     15 C3'        -4.5820    0.9940   -2.4390 c3        1 VPA      0.118100
     16 O3'        -5.1700    1.5690   -3.5890 oh        1 VPA     -0.595800
     17 C4'        -4.7270   -0.5410   -2.4510 c3        1 VPA      0.079100
     18 O4'        -6.1000   -0.7680   -2.1940 oh        1 VPA     -0.584800
     19 C5'        -3.8590   -1.1840   -1.3560 c3        1 VPA      0.113100
     20 C6'        -3.7550   -2.7010   -1.5340 c3        1 VPA      0.137400
     21 O6'        -3.5020   -3.2210   -0.2310 os        1 VPA     -0.408600
     22 C1A        -3.3500   -4.6290   -0.2040 c3        1 VPA      0.337900
     23 O5A        -4.6580   -5.0690   -0.5480 os        1 VPA     -0.446600
     24 C5A        -4.8580   -6.4680   -0.3910 c3        1 VPA      0.105400
     25 C4A        -4.5870   -6.9070    1.0500 c3        1 VPA      0.074100
     26 O4A        -4.6470   -8.3190    1.1640 oh        1 VPA     -0.593800
     27 C3A        -3.1550   -6.5160    1.4440 c3        1 VPA      0.110100
     28 O3A        -2.9100   -6.7590    2.8170 oh        1 VPA     -0.605800
     29 C2A        -2.9570   -5.0050    1.2380 c3        1 VPA      0.130100
     30 O2A        -1.5920   -4.6560    1.3920 oh        1 VPA     -0.607800
     31 H1          1.1250   -0.7620   -0.7980 hc        1 VPA      0.097200
     32 H2         -0.4490   -1.5110   -0.2580 hc        1 VPA      0.097200
     33 H3          0.0190    1.2120    1.8970 hn        1 VPA      0.485400
     34 H4         -0.4220   -2.7100    1.7420 ha        1 VPA      0.146500
     35 H5          0.6690   -3.3040    3.8970 ha        1 VPA      0.150000
     36 H6          2.6860   -2.0530    4.6770 ha        1 VPA      0.152000
     37 H7          2.5330    0.4070    1.1310 ha        1 VPA      0.146500
     38 H8          3.6140   -0.1970    3.2880 ha        1 VPA      0.150000
     39 H9         -0.4550    0.5240   -1.9960 hn        1 VPA      0.474800
     40 H10        -2.8720    1.0340   -0.3120 hx        1 VPA      0.128700
     41 H11        -2.6510    1.0170   -3.4710 h1        1 VPA      0.083700
     42 H12        -3.5410    3.2180   -2.9130 ho        1 VPA      0.468000
     43 H13        -5.0620    1.4160   -1.5110 h1        1 VPA      0.080700
     44 H14        -6.1070    1.3200   -3.5800 ho        1 VPA      0.449000
     45 H15        -4.4390   -0.9420   -3.4620 h1        1 VPA      0.074700
     46 H16        -6.2770   -1.7080   -2.3340 ho        1 VPA      0.430000
     47 H17        -4.2670   -0.9370   -0.3360 h1        1 VPA      0.099700
     48 H18        -2.9130   -2.9690   -2.2260 h1        1 VPA      0.063200
     49 H19        -4.7230   -3.1080   -1.9270 h1        1 VPA      0.063200
     50 H20        -2.5950   -4.9900   -0.9550 h2        1 VPA      0.062700
     51 H21        -4.1980   -7.0340   -1.1000 h1        1 VPA      0.067700
     52 H22        -5.9350   -6.6210   -0.6660 h1        1 VPA      0.067700
     53 H23        -5.3210   -6.4250    1.7520 h1        1 VPA      0.069700
     54 H24        -5.5700   -8.5750    1.0480 ho        1 VPA      0.420000
     55 H25        -2.4170   -7.0970    0.8220 h1        1 VPA      0.068700
     56 H26        -3.1190   -7.6900    2.9760 ho        1 VPA      0.437000
     57 H27        -3.5820   -4.4270    1.9740 h1        1 VPA      0.082700
     58 H28        -1.2990   -5.0650    2.2200 ho        1 VPA      0.433000
     59 H121       -0.8580    2.0440   -1.3960 hn        1 VPA      0.474800
@<TRIPOS>BOND
     1    1    2 1   
     2    1    3 2   
     3    1   10 1   
     4    2    4 1   
     5    2   31 1   
     6    2   32 1   
     7    3   33 1   
     8    4    5 ar  
     9    4    8 ar  
    10    5    6 ar  
    11    5   34 1   
    12    6    7 ar  
    13    6   35 1   
    14    7    9 ar  
    15    7   36 1   
    16    8    9 ar  
    17    8   37 1   
    18    9   38 1   
    19   10   11 1   
    20   10   39 1   
    21   10   59 1   
    22   11   12 1   
    23   11   13 1   
    24   11   40 1   
    25   12   19 1   
    26   13   14 1   
    27   13   15 1   
    28   13   41 1   
    29   14   42 1   
    30   15   16 1   
    31   15   17 1   
    32   15   43 1   
    33   16   44 1   
    34   17   18 1   
    35   17   19 1   
    36   17   45 1   
    37   18   46 1   
    38   19   20 1   
    39   19   47 1   
    40   20   21 1   
    41   20   48 1   
    42   20   49 1   
    43   21   22 1   
    44   22   23 1   
    45   22   29 1   
    46   22   50 1   
    47   23   24 1   
    48   24   25 1   
    49   24   51 1   
    50   24   52 1   
    51   25   26 1   
    52   25   27 1   
    53   25   53 1   
    54   26   54 1   
    55   27   28 1   
    56   27   29 1   
    57   27   55 1   
    58   28   56 1   
    59   29   30 1   
    60   29   57 1   
    61   30   58 1   
@<TRIPOS>SUBSTRUCTURE
     1 VPA         1 TEMP              0 ****  ****    0 ROOT
