@<TRIPOS>MOLECULE
VPA
   59    61     1     0     0
SMALL
bcc


@<TRIPOS>ATOM
      1 C1         -0.3110    0.6170    0.0650 c2        1 VPA      0.532200
      2 C2          0.3390   -0.7540    0.0230 c3        1 VPA     -0.107400
      3 N2         -0.4180    1.4620    1.0180 n2        1 VPA     -0.727100
      4 C3          0.9590   -1.0890    1.3330 ca        1 VPA     -0.146300
      5 C4          0.4400   -2.1310    2.1070 ca        1 VPA     -0.118500
      6 C5          1.0450   -2.4630    3.3210 ca        1 VPA     -0.121500
      7 C6          2.1660   -1.7620    3.7620 ca        1 VPA     -0.098000
      8 C8          2.0900   -0.3900    1.7750 ca        1 VPA     -0.118500
      9 C7          2.6900   -0.7250    2.9860 ca        1 VPA     -0.121500
     10 N1         -0.9320    1.0140   -1.2490 n4        1 VPA     -0.749000
     11 C1'        -2.4010    0.6830   -1.3030 c3        1 VPA      0.334300
     12 O5'        -2.4890   -0.7280   -1.4580 os        1 VPA     -0.429600
     13 C2'        -3.0810    1.3570   -2.5270 c3        1 VPA      0.107100
     14 O2'        -2.8680    2.7450   -2.3950 oh        1 VPA     -0.618800
     15 C3'        -4.5670    0.9740   -2.4750 c3        1 VPA      0.118100
     16 O3'        -5.1460    1.5410   -3.6320 oh        1 VPA     -0.595800
     17 C4'        -4.7110   -0.5620   -2.4790 c3        1 VPA      0.079100
     18 O4'        -6.0860   -0.7880   -2.2320 oh        1 VPA     -0.584800
     19 C5'        -3.8510   -1.1980   -1.3740 c3        1 VPA      0.113100
     20 C6'        -3.7440   -2.7160   -1.5430 c3        1 VPA      0.137400
     21 O6'        -3.4980   -3.2280   -0.2350 os        1 VPA     -0.408600
     22 C1A        -3.3480   -4.6360   -0.1990 c3        1 VPA      0.337900
     23 O5A        -4.6550   -5.0780   -0.5450 os        1 VPA     -0.446600
     24 C5A        -4.8570   -6.4750   -0.3820 c3        1 VPA      0.105400
     25 C4A        -4.5930   -6.9060    1.0630 c3        1 VPA      0.074100
     26 O4A        -4.6540   -8.3170    1.1850 oh        1 VPA     -0.593800
     27 C3A        -3.1630   -6.5140    1.4610 c3        1 VPA      0.110100
     28 O3A        -2.9240   -6.7490    2.8370 oh        1 VPA     -0.605800
     29 C2A        -2.9620   -5.0050    1.2470 c3        1 VPA      0.130100
     30 O2A        -1.5980   -4.6560    1.4050 oh        1 VPA     -0.607800
     31 H1          1.1290   -0.7680   -0.7770 hc        1 VPA      0.097200
     32 H2         -0.4480   -1.5160   -0.2470 hc        1 VPA      0.097200
     33 H3         -0.0030    1.2200    1.8970 hn        1 VPA      0.485400
     34 H4         -0.4370   -2.7050    1.7580 ha        1 VPA      0.146500
     35 H5          0.6360   -3.2860    3.9270 ha        1 VPA      0.150000
     36 H6          2.6430   -2.0270    4.7190 ha        1 VPA      0.152000
     37 H7          2.5180    0.4140    1.1580 ha        1 VPA      0.146500
     38 H8          3.5810   -0.1760    3.3290 ha        1 VPA      0.150000
     39 H9         -0.4430    0.5080   -1.9960 hn        1 VPA      0.474800
     40 H10        -2.8740    1.0270   -0.3340 hx        1 VPA      0.128700
     41 H11        -2.6280    0.9920   -3.4920 h1        1 VPA      0.083700
     42 H12        -3.5230    3.1950   -2.9530 ho        1 VPA      0.468000
     43 H13        -5.0550    1.4000   -1.5530 h1        1 VPA      0.080700
     44 H14        -6.0830    1.2920   -3.6290 ho        1 VPA      0.449000
     45 H15        -4.4150   -0.9690   -3.4860 h1        1 VPA      0.074700
     46 H16        -6.2610   -1.7290   -2.3690 ho        1 VPA      0.430000
     47 H17        -4.2680   -0.9460   -0.3580 h1        1 VPA      0.099700
     48 H18        -2.8990   -2.9870   -2.2280 h1        1 VPA      0.063200
     49 H19        -4.7100   -3.1260   -1.9380 h1        1 VPA      0.063200
     50 H20        -2.5910   -5.0020   -0.9450 h2        1 VPA      0.062700
     51 H21        -4.1940   -7.0460   -1.0850 h1        1 VPA      0.067700
     52 H22        -5.9330   -6.6290   -0.6600 h1        1 VPA      0.067700
     53 H23        -5.3300   -6.4180    1.7600 h1        1 VPA      0.069700
     54 H24        -5.5780   -8.5730    1.0670 ho        1 VPA      0.420000
     55 H25        -2.4230   -7.0990    0.8460 h1        1 VPA      0.068700
     56 H26        -3.1340   -7.6790    3.0000 ho        1 VPA      0.437000
     57 H27        -3.5900   -4.4210    1.9760 h1        1 VPA      0.082700
     58 H28        -1.3080   -5.0610    2.2350 ho        1 VPA      0.433000
     59 H121       -0.8530    2.0320   -1.4080 hn        1 VPA      0.474800
@<TRIPOS>BOND
     1    1    2 1   
     2    1    3 2   
     3    1   10 1   
     4    2    4 1   
     5    2   31 1   
     6    2   32 1   
     7    3   33 1   
     8    4    5 ar  
     9    4    8 ar  
    10    5    6 ar  
    11    5   34 1   
    12    6    7 ar  
    13    6   35 1   
    14    7    9 ar  
    15    7   36 1   
    16    8    9 ar  
    17    8   37 1   
    18    9   38 1   
    19   10   11 1   
    20   10   39 1   
    21   10   59 1   
    22   11   12 1   
    23   11   13 1   
    24   11   40 1   
    25   12   19 1   
    26   13   14 1   
    27   13   15 1   
    28   13   41 1   
    29   14   42 1   
    30   15   16 1   
    31   15   17 1   
    32   15   43 1   
    33   16   44 1   
    34   17   18 1   
    35   17   19 1   
    36   17   45 1   
    37   18   46 1   
    38   19   20 1   
    39   19   47 1   
    40   20   21 1   
    41   20   48 1   
    42   20   49 1   
    43   21   22 1   
    44   22   23 1   
    45   22   29 1   
    46   22   50 1   
    47   23   24 1   
    48   24   25 1   
    49   24   51 1   
    50   24   52 1   
    51   25   26 1   
    52   25   27 1   
    53   25   53 1   
    54   26   54 1   
    55   27   28 1   
    56   27   29 1   
    57   27   55 1   
    58   28   56 1   
    59   29   30 1   
    60   29   57 1   
    61   30   58 1   
@<TRIPOS>SUBSTRUCTURE
     1 VPA         1 TEMP              0 ****  ****    0 ROOT
