@<TRIPOS>MOLECULE
VPA
   59    61     1     0     0
SMALL
bcc


@<TRIPOS>ATOM
      1 C1         -0.3060    0.6130    0.0590 c2        1 VPA      0.532200
      2 C2          0.3400   -0.7590    0.0270 c3        1 VPA     -0.107400
      3 N2         -0.4160    1.4630    1.0080 n2        1 VPA     -0.727100
      4 C3          0.9540   -1.0890    1.3410 ca        1 VPA     -0.146300
      5 C4          0.4290   -2.1260    2.1190 ca        1 VPA     -0.118500
      6 C5          1.0300   -2.4530    3.3360 ca        1 VPA     -0.121500
      7 C6          2.1510   -1.7520    3.7780 ca        1 VPA     -0.098000
      8 C8          2.0850   -0.3900    1.7840 ca        1 VPA     -0.118500
      9 C7          2.6800   -0.7200    2.9990 ca        1 VPA     -0.121500
     10 N1         -0.9210    1.0050   -1.2590 ny        1 VPA     -0.749000
     11 C1'        -2.3910    0.6780   -1.3180 c3        1 VPA      0.334300
     12 O5'        -2.4820   -0.7340   -1.4650 os        1 VPA     -0.429600
     13 C2'        -3.0640    1.3470   -2.5470 c3        1 VPA      0.107100
     14 O2'        -2.8490    2.7350   -2.4220 oh        1 VPA     -0.618800
     15 C3'        -4.5520    0.9680   -2.4990 c3        1 VPA      0.118100
     16 O3'        -5.1250    1.5300   -3.6620 oh        1 VPA     -0.595800
     17 C4'        -4.6990   -0.5670   -2.4970 c3        1 VPA      0.079100
     18 O4'        -6.0760   -0.7900   -2.2540 oh        1 VPA     -0.584800
     19 C5'        -3.8450   -1.2000   -1.3850 c3        1 VPA      0.113100
     20 C6'        -3.7410   -2.7190   -1.5450 c3        1 VPA      0.137400
     21 O6'        -3.5030   -3.2260   -0.2340 os        1 VPA     -0.408600
     22 C1A        -3.3550   -4.6330   -0.1900 c3        1 VPA      0.337900
     23 O5A        -4.6610   -5.0740   -0.5410 os        1 VPA     -0.446600
     24 C5A        -4.8660   -6.4710   -0.3710 c3        1 VPA      0.105400
     25 C4A        -4.6110   -6.8950    1.0770 c3        1 VPA      0.074100
     26 O4A        -4.6750   -8.3050    1.2060 oh        1 VPA     -0.593800
     27 C3A        -3.1810   -6.5030    1.4800 c3        1 VPA      0.110100
     28 O3A        -2.9500   -6.7320    2.8580 oh        1 VPA     -0.605800
     29 C2A        -2.9770   -4.9950    1.2600 c3        1 VPA      0.130100
     30 O2A        -1.6130   -4.6480    1.4220 oh        1 VPA     -0.607800
     31 H1          1.1330   -0.7790   -0.7700 hc        1 VPA      0.097200
     32 H2         -0.4480   -1.5200   -0.2420 hc        1 VPA      0.097200
     33 H3         -0.0040    1.2250    1.8900 hn        1 VPA      0.485400
     34 H4         -0.4480   -2.6990    1.7700 ha        1 VPA      0.146500
     35 H5          0.6160   -3.2710    3.9450 ha        1 VPA      0.150000
     36 H6          2.6230   -2.0130    4.7380 ha        1 VPA      0.152000
     37 H7          2.5180    0.4100    1.1640 ha        1 VPA      0.146500
     38 H8          3.5710   -0.1720    3.3420 ha        1 VPA      0.150000
     39 H9         -0.8390    2.0220   -1.4230 hn        1 VPA      0.474800
     40 H10        -2.8670    1.0280   -0.3520 hx        1 VPA      0.128700
     41 H11        -2.6080    0.9760   -3.5090 h1        1 VPA      0.083700
     42 H12        -3.5000    3.1840   -2.9850 ho        1 VPA      0.468000
     43 H13        -5.0420    1.3990   -1.5820 h1        1 VPA      0.080700
     44 H14        -6.0620    1.2830   -3.6620 ho        1 VPA      0.449000
     45 H15        -4.4000   -0.9800   -3.5000 h1        1 VPA      0.074700
     46 H16        -6.2520   -1.7310   -2.3870 ho        1 VPA      0.430000
     47 H17        -4.2650   -0.9420   -0.3720 h1        1 VPA      0.099700
     48 H18        -4.7070   -3.1290   -1.9430 h1        1 VPA      0.063200
     49 H19        -2.8930   -2.9960   -2.2250 h1        1 VPA      0.063200
     50 H20        -2.5950   -5.0050   -0.9300 h2        1 VPA      0.062700
     51 H21        -4.2010   -7.0460   -1.0680 h1        1 VPA      0.067700
     52 H22        -5.9420   -6.6240   -0.6540 h1        1 VPA      0.067700
     53 H23        -5.3500   -6.4030    1.7670 h1        1 VPA      0.069700
     54 H24        -5.5980   -8.5600    1.0840 ho        1 VPA      0.420000
     55 H25        -2.4390   -7.0930    0.8710 h1        1 VPA      0.068700
     56 H26        -3.1630   -7.6610    3.0250 ho        1 VPA      0.437000
     57 H27        -3.6070   -4.4070    1.9830 h1        1 VPA      0.082700
     58 H28        -1.3280   -5.0490    2.2560 ho        1 VPA      0.433000
     59 H121       -0.4300    0.4950   -2.0010 hn        1 VPA      0.474800
@<TRIPOS>BOND
     1    1    2 1   
     2    1    3 2   
     3    1   10 1   
     4    2    4 1   
     5    2   31 1   
     6    2   32 1   
     7    3   33 1   
     8    4    5 ar  
     9    4    8 ar  
    10    5    6 ar  
    11    5   34 1   
    12    6    7 ar  
    13    6   35 1   
    14    7    9 ar  
    15    7   36 1   
    16    8    9 ar  
    17    8   37 1   
    18    9   38 1   
    19   10   11 1   
    20   10   39 1   
    21   10   59 1   
    22   11   12 1   
    23   11   13 1   
    24   11   40 1   
    25   12   19 1   
    26   13   14 1   
    27   13   15 1   
    28   13   41 1   
    29   14   42 1   
    30   15   16 1   
    31   15   17 1   
    32   15   43 1   
    33   16   44 1   
    34   17   18 1   
    35   17   19 1   
    36   17   45 1   
    37   18   46 1   
    38   19   20 1   
    39   19   47 1   
    40   20   21 1   
    41   20   48 1   
    42   20   49 1   
    43   21   22 1   
    44   22   23 1   
    45   22   29 1   
    46   22   50 1   
    47   23   24 1   
    48   24   25 1   
    49   24   51 1   
    50   24   52 1   
    51   25   26 1   
    52   25   27 1   
    53   25   53 1   
    54   26   54 1   
    55   27   28 1   
    56   27   29 1   
    57   27   55 1   
    58   28   56 1   
    59   29   30 1   
    60   29   57 1   
    61   30   58 1   
@<TRIPOS>SUBSTRUCTURE
     1 VPA         1 TEMP              0 ****  ****    0 ROOT
