@<TRIPOS>MOLECULE
VPF
   63    64     1     0     0
SMALL
bcc


@<TRIPOS>ATOM
      1 C1          9.0830   -0.3820   -0.6050 c         1 VPF      0.905600
      2 O1          8.9820   -1.4330   -1.3030 o         1 VPF     -0.860300
      3 O2         10.1680   -0.0080   -0.0680 o         1 VPF     -0.860300
      4 C2          7.8470    0.5110   -0.4120 c3        1 VPF     -0.184400
      5 C3          6.5690   -0.2900   -0.4300 c3        1 VPF     -0.132400
      6 C4          5.3330    0.5780   -0.5750 c         1 VPF      0.655100
      7 O3          5.3800    1.7990   -0.8390 o         1 VPF     -0.645100
      8 N           4.1070   -0.0430   -0.3810 n         1 VPF     -0.571900
      9 CA          2.8530    0.6130   -0.6590 c3        1 VPF      0.043700
     10 C           1.7460    0.0490    0.2750 c         1 VPF      0.676100
     11 O           1.6050   -1.1880    0.3960 o         1 VPF     -0.635100
     12 CB          2.3910    0.4870   -2.1330 c3        1 VPF     -0.073700
     13 CG1         2.1660   -0.9460   -2.5600 c3        1 VPF     -0.104100
     14 CG2         1.1440    1.3140   -2.3610 c3        1 VPF     -0.104100
     15 N1          0.9550    0.9270    0.9740 n         1 VPF     -0.447800
     16 CA1        -0.2500    0.5410    1.7060 c3        1 VPF      0.024700
     17 C5         -1.5360    0.4030    0.8250 c         1 VPF      0.624100
     18 O4         -1.4750    0.6500   -0.4080 o         1 VPF     -0.701100
     19 CB1        -0.4630    1.6560    2.7590 c3        1 VPF     -0.091400
     20 CG          0.3240    2.8620    2.2540 c3        1 VPF     -0.087400
     21 CD          1.2160    2.3450    1.1110 c3        1 VPF      0.097000
     22 P          -5.0360    0.0810    2.6540 p5        1 VPF      1.190700
     23 O1P        -4.1000   -0.4570    3.7130 o         1 VPF     -0.920500
     24 CA2        -3.9980   -0.0470    1.0680 c3        1 VPF     -0.083500
     25 CB2        -4.4860    1.0380    0.1340 c3        1 VPF     -0.050100
     26 CG3        -5.3620    0.5290   -0.9590 ca        1 VPF     -0.017300
     27 CD2        -5.1410    0.8970   -2.2910 ca        1 VPF     -0.144000
     28 CE2        -5.9970    0.4550   -3.3020 ca        1 VPF     -0.161500
     29 CZ         -7.0810   -0.3610   -2.9930 ca        1 VPF     -0.187000
     30 CE1        -7.3010   -0.7410   -1.6650 ca        1 VPF     -0.161500
     31 CD1        -6.4540   -0.3040   -0.6530 ca        1 VPF     -0.144000
     32 N2         -2.6410    0.0200    1.5060 n         1 VPF     -0.474900
     33 H21         7.9410    1.0710    0.5510 hc        1 VPF      0.037200
     34 H22         7.8350    1.2660   -1.2400 hc        1 VPF      0.037200
     35 H31         6.6090   -1.0070   -1.2960 hc        1 VPF      0.069700
     36 H32         6.4940   -0.9000    0.5080 hc        1 VPF      0.069700
     37 H           4.0710   -1.0320   -0.2880 hn        1 VPF      0.316500
     38 HA          3.0140    1.7180   -0.4710 h1        1 VPF      0.082700
     39 HB          3.2230    0.9180   -2.7630 hc        1 VPF      0.040700
     40 HG11        1.4080   -1.4370   -1.9010 hc        1 VPF      0.043200
     41 HG12        1.7930   -0.9740   -3.6130 hc        1 VPF      0.043200
     42 HG13        3.1150   -1.5310   -2.5090 hc        1 VPF      0.043200
     43 HG21        0.2810    0.9240   -1.7590 hc        1 VPF      0.043200
     44 HG22        1.3240    2.3780   -2.0750 hc        1 VPF      0.043200
     45 HG23        0.8620    1.2830   -3.4410 hc        1 VPF      0.043200
     46 HA1        -0.0590   -0.4570    2.1950 h1        1 VPF      0.083700
     47 HB2        -1.5450    1.9050    2.8900 hc        1 VPF      0.072200
     48 HB3        -0.0700    1.3140    3.7480 hc        1 VPF      0.072200
     49 HG2        -0.3660    3.6530    1.8730 hc        1 VPF      0.037700
     50 HG3         0.9490    3.3060    3.0660 hc        1 VPF      0.037700
     51 HD2         2.3010    2.5180    1.3500 h1        1 VPF      0.036200
     52 HD3         0.9740    2.8790    0.1490 h1        1 VPF      0.036200
     53 HA2        -4.1910   -1.0570    0.6250 h1        1 VPF      0.040700
     54 HB1        -5.0840    1.7780    0.7530 hc        1 VPF      0.071200
     55 HB21       -3.6280    1.6030   -0.3240 hc        1 VPF      0.071200
     56 HD21       -4.2770    1.5280   -2.5440 ha        1 VPF      0.187000
     57 HE2        -5.8100    0.7500   -4.3430 ha        1 VPF      0.092500
     58 HZ         -7.7540   -0.7100   -3.7860 ha        1 VPF      0.080000
     59 HE1        -8.1520   -1.3910   -1.4180 ha        1 VPF      0.092500
     60 HD1        -6.5970   -0.5960    0.4270 ha        1 VPF      0.187000
     61 HN2        -2.5600   -0.1670    2.5020 hn        1 VPF      0.355500
     62 O2P        -6.2140   -0.7970    2.3120 o         1 VPF     -0.920500
     63 OGG        -5.3410    1.5480    2.7940 o         1 VPF     -0.920500
@<TRIPOS>BOND
     1    1    2 1   
     2    1    3 1   
     3    1    4 1   
     4    4    5 1   
     5    4   33 1   
     6    4   34 1   
     7    5    6 1   
     8    5   35 1   
     9    5   36 1   
    10    6    7 2   
    11    6    8 1   
    12    8    9 1   
    13    8   37 1   
    14    9   10 1   
    15    9   12 1   
    16    9   38 1   
    17   10   11 2   
    18   10   15 1   
    19   12   13 1   
    20   12   14 1   
    21   12   39 1   
    22   13   40 1   
    23   13   41 1   
    24   13   42 1   
    25   14   43 1   
    26   14   44 1   
    27   14   45 1   
    28   15   16 1   
    29   15   21 1   
    30   16   17 1   
    31   16   19 1   
    32   16   46 1   
    33   17   18 2   
    34   17   32 1   
    35   19   20 1   
    36   19   47 1   
    37   19   48 1   
    38   20   21 1   
    39   20   49 1   
    40   20   50 1   
    41   21   51 1   
    42   21   52 1   
    43   22   23 1   
    44   22   24 1   
    45   22   62 1   
    46   22   63 1   
    47   24   25 1   
    48   24   32 1   
    49   24   53 1   
    50   25   26 1   
    51   25   54 1   
    52   25   55 1   
    53   26   27 ar  
    54   26   31 ar  
    55   27   28 ar  
    56   27   56 1   
    57   28   29 ar  
    58   28   57 1   
    59   29   30 ar  
    60   29   58 1   
    61   30   31 ar  
    62   30   59 1   
    63   31   60 1   
    64   32   61 1   
@<TRIPOS>SUBSTRUCTURE
     1 VPF         1 TEMP              0 ****  ****    0 ROOT
