@<TRIPOS>MOLECULE
VPM
   22    21     1     0     0
SMALL
bcc


@<TRIPOS>ATOM
      1 CAA         0.2490   -0.6230    0.2350 c3        1 VPM     -0.081100
      2 CAK         1.6600   -0.0800    0.3200 c3        1 VPM     -0.072700
      3 CAB         1.9060    0.9070   -0.8010 c3        1 VPM     -0.081100
      4 CAL         1.9380    0.5530    1.7040 c3        1 VPM      0.079800
      5 CAJ         1.2140    1.9270    1.8990 c         1 VPM      0.924600
      6 OAF         1.8150    2.8420    2.5350 o         1 VPM     -0.867300
      7 OAD         0.0560    2.1080    1.4130 o         1 VPM     -0.867300
      8 OAG         1.4150   -0.3060    2.7160 oh        1 VPM     -0.634800
      9 CAH         3.4500    0.7250    1.8940 c3        1 VPM     -0.194400
     10 CAI         4.2940   -0.5370    1.7280 c         1 VPM      0.897600
     11 OAE         3.9080   -1.6400    2.2350 o         1 VPM     -0.887300
     12 OAC         5.4020   -0.4530    1.1110 o         1 VPM     -0.887300
     13 H1          0.0970   -1.4090    1.0130 hc        1 VPM      0.020200
     14 H2          0.0590   -1.0730   -0.7710 hc        1 VPM      0.020200
     15 H3         -0.4800    0.2050    0.4190 hc        1 VPM      0.020200
     16 H4          2.3780   -0.9430    0.2080 hc        1 VPM      0.045700
     17 H5          1.2560    1.8060   -0.6630 hc        1 VPM      0.020200
     18 H6          2.9750    1.2290   -0.8060 hc        1 VPM      0.020200
     19 H7          1.6730    0.4400   -1.7900 hc        1 VPM      0.020200
     20 H9          2.0170   -1.0660    2.7600 ho        1 VPM      0.418000
     21 H10         3.8120    1.5080    1.1820 hc        1 VPM      0.043200
     22 H11         3.6140    1.1130    2.9330 hc        1 VPM      0.043200
@<TRIPOS>BOND
     1    1    2 1   
     2    1   13 1   
     3    1   14 1   
     4    1   15 1   
     5    2    3 1   
     6    2    4 1   
     7    2   16 1   
     8    3   17 1   
     9    3   18 1   
    10    3   19 1   
    11    4    5 1   
    12    4    8 1   
    13    4    9 1   
    14    5    6 1   
    15    5    7 1   
    16    8   20 1   
    17    9   10 1   
    18    9   21 1   
    19    9   22 1   
    20   10   11 1   
    21   10   12 1   
@<TRIPOS>SUBSTRUCTURE
     1 VPM         1 TEMP              0 ****  ****    0 ROOT
