@<TRIPOS>MOLECULE
VPM
   22    21     1     0     0
SMALL
bcc


@<TRIPOS>ATOM
      1 CAA         0.2340   -0.5420    0.1740 c3        1 VPM     -0.081100
      2 CAK         1.6640   -0.0630    0.3070 c3        1 VPM     -0.072700
      3 CAB         1.9940    0.9090   -0.8040 c3        1 VPM     -0.081100
      4 CAL         1.9230    0.5580    1.7010 c3        1 VPM      0.079800
      5 CAJ         1.2570    1.9640    1.8710 c         1 VPM      0.924600
      6 OAF         1.8750    2.8510    2.5290 o         1 VPM     -0.867300
      7 OAD         0.1260    2.1970    1.3440 o         1 VPM     -0.867300
      8 OAG         1.3280   -0.2750    2.6950 oh        1 VPM     -0.634800
      9 CAH         3.4350    0.6620    1.9420 c3        1 VPM     -0.194400
     10 CAI         4.2260   -0.6370    1.8050 c         1 VPM      0.897600
     11 OAE         3.7730   -1.7210    2.2980 o         1 VPM     -0.887300
     12 OAC         5.3570   -0.6040    1.2260 o         1 VPM     -0.887300
     13 H1          0.0590   -0.9850   -0.8370 hc        1 VPM      0.020200
     14 H2          0.0200   -1.3190    0.9470 hc        1 VPM      0.020200
     15 H3         -0.4620    0.3190    0.3330 hc        1 VPM      0.020200
     16 H4          2.3460   -0.9590    0.2210 hc        1 VPM      0.045700
     17 H5          3.0760    1.1810   -0.7730 hc        1 VPM      0.020200
     18 H6          1.3820    1.8380   -0.6880 hc        1 VPM      0.020200
     19 H7          1.7740    0.4520   -1.8000 hc        1 VPM      0.020200
     20 H9          1.8930   -1.0610    2.7590 ho        1 VPM      0.418000
     21 H10         3.5800    1.0430    2.9860 hc        1 VPM      0.043200
     22 H11         3.8560    1.4260    1.2440 hc        1 VPM      0.043200
@<TRIPOS>BOND
     1    1    2 1   
     2    1   13 1   
     3    1   14 1   
     4    1   15 1   
     5    2    3 1   
     6    2    4 1   
     7    2   16 1   
     8    3   17 1   
     9    3   18 1   
    10    3   19 1   
    11    4    5 1   
    12    4    8 1   
    13    4    9 1   
    14    5    6 1   
    15    5    7 1   
    16    8   20 1   
    17    9   10 1   
    18    9   21 1   
    19    9   22 1   
    20   10   11 1   
    21   10   12 1   
@<TRIPOS>SUBSTRUCTURE
     1 VPM         1 TEMP              0 ****  ****    0 ROOT
