@<TRIPOS>MOLECULE
VPP
   64    66     1     0     0
SMALL
bcc


@<TRIPOS>ATOM
      1 S           3.4150   -2.2990   -0.3370 ss        1 VPP     -0.510200
      2 O01         3.4680   -1.5390    3.3270 o         1 VPP     -0.820300
      3 O02         3.7440    2.3490   -1.8760 o         1 VPP     -0.846800
      4 O03         4.4680    1.0390   -3.5210 o         1 VPP     -0.846800
      5 O06        -0.9440   -0.8370    0.9570 o         1 VPP     -0.696100
      6 O04        -3.8940    0.9860    2.2740 o         1 VPP     -0.567100
      7 O05        -6.3170    1.0170    0.8440 o         1 VPP     -0.556500
      8 O          -7.5550   -0.3420   -1.2340 o         1 VPP     -0.616500
      9 N02         2.4710    0.2090   -0.5500 n3        1 VPP     -0.798200
     10 N03         0.9200    0.1220    1.9290 n         1 VPP     -0.470900
     11 N04        -2.2940    1.5480    0.6790 n         1 VPP     -0.474900
     12 N01        -4.2650    0.2210    0.1090 n         1 VPP     -0.520400
     13 N          -5.7600   -1.7760   -1.3380 n         1 VPP     -0.472800
     14 C17         2.1390   -1.0370    0.1000 c3        1 VPP      0.304600
     15 C19         4.2910   -1.1680   -1.4720 c3        1 VPP      0.085100
     16 C18         3.2500   -0.0500   -1.7530 c3        1 VPP      0.049500
     17 C20         1.8660   -0.9410    1.6170 c3        1 VPP     -0.043300
     18 C01         3.1760   -0.6800    2.4570 c         1 VPP      0.929600
     19 C02         5.5120   -0.6210   -0.7760 c3        1 VPP     -0.084600
     20 C03         4.6490   -1.9070   -2.7340 c3        1 VPP     -0.084600
     21 C04         3.8810    1.2160   -2.4130 c         1 VPP      0.930600
     22 C21        -0.3460    0.1630    1.4330 c         1 VPP      0.622100
     23 CA         -1.1410    1.5040    1.5730 c3        1 VPP      0.047000
     24 C05        -0.2450    2.6870    1.3110 ca        1 VPP     -0.119300
     25 C07         0.6120    2.6890    0.2070 ca        1 VPP     -0.112500
     26 C08        -0.2460    3.7730    2.1920 ca        1 VPP     -0.112500
     27 C09        -3.5870   -0.6720   -0.8050 c3        1 VPP      0.050000
     28 C10        -4.3590   -1.9810   -1.0510 c3        1 VPP      0.077000
     29 C11        -5.6520    0.2720    0.1150 c         1 VPP      0.653500
     30 C12         1.5230    3.7300    0.0210 ca        1 VPP     -0.128000
     31 C13         0.6350    4.8330    1.9830 ca        1 VPP     -0.128000
     32 C14        -6.3960   -0.6330   -0.8900 c         1 VPP      0.630500
     33 C15        -6.4110   -2.6850   -2.2490 c3        1 VPP      0.095000
     34 C16         1.5270    4.8050    0.9100 ca        1 VPP     -0.129000
     35 C          -6.0990   -2.4690   -3.7230 c3        1 VPP     -0.119100
     36 O07         3.7890    0.3990    2.2390 o         1 VPP     -0.820300
     37 H3          2.9780    0.8290    0.0670 hn        1 VPP      0.411800
     38 H5          1.3640    0.9930    2.1520 hn        1 VPP      0.332500
     39 H6         -2.0310    1.3920   -0.2750 hn        1 VPP      0.294500
     40 H7          1.2070   -1.4400   -0.3920 h2        1 VPP      0.049700
     41 H8          2.5310   -0.4550   -2.5270 h1        1 VPP      0.040700
     42 H9          1.4160   -1.9200    1.9420 h1        1 VPP      0.069700
     43 H10         5.9830    0.1670   -1.4160 hc        1 VPP      0.042367
     44 H11         5.2270   -0.1670    0.2080 hc        1 VPP      0.042367
     45 H12         6.2560   -1.4330   -0.5930 hc        1 VPP      0.042367
     46 H13         3.7650   -2.4580   -3.1350 hc        1 VPP      0.042367
     47 H14         4.9870   -1.1610   -3.5010 hc        1 VPP      0.042367
     48 H15         5.4690   -2.6400   -2.5440 hc        1 VPP      0.042367
     49 H16        -1.5250    1.5430    2.6380 h1        1 VPP      0.100700
     50 H17         0.6040    1.8480   -0.5070 ha        1 VPP      0.145000
     51 H18        -0.9310    3.7850    3.0520 ha        1 VPP      0.145000
     52 H19        -3.4340   -0.1390   -1.7880 h1        1 VPP      0.093200
     53 H20        -2.5720   -0.9560   -0.3890 h1        1 VPP      0.093200
     54 H21        -4.2700   -2.6460   -0.1440 h1        1 VPP      0.062700
     55 H22        -3.8690   -2.5070   -1.9190 h1        1 VPP      0.062700
     56 H23         2.2650    3.6510   -0.8010 ha        1 VPP      0.159500
     57 H24         0.6380    5.6830    2.6790 ha        1 VPP      0.159500
     58 H25        -6.1050   -3.7320   -1.9610 h1        1 VPP      0.054700
     59 H26        -7.5250   -2.5880   -2.0980 h1        1 VPP      0.054700
     60 H27         2.2480    5.6230    0.7740 ha        1 VPP      0.120000
     61 H28        -6.6460   -3.2370   -4.3210 hc        1 VPP      0.040700
     62 H29        -6.4280   -1.4560   -4.0550 hc        1 VPP      0.040700
     63 H30        -5.0060   -2.5720   -3.9270 hc        1 VPP      0.040700
     64 C06        -3.4720    0.9080    1.1060 c         1 VPP      0.775100
@<TRIPOS>BOND
     1    1   14 1   
     2    1   15 1   
     3    2   18 1   
     4    3   21 1   
     5    4   21 1   
     6    5   22 2   
     7    6   64 2   
     8    7   29 2   
     9    8   32 2   
    10    9   14 1   
    11    9   16 1   
    12    9   37 1   
    13   10   17 1   
    14   10   22 1   
    15   10   38 1   
    16   11   23 1   
    17   11   39 1   
    18   11   64 1   
    19   12   27 1   
    20   12   29 1   
    21   12   64 1   
    22   13   28 1   
    23   13   32 1   
    24   13   33 1   
    25   14   17 1   
    26   14   40 1   
    27   15   16 1   
    28   15   19 1   
    29   15   20 1   
    30   16   21 1   
    31   16   41 1   
    32   17   18 1   
    33   17   42 1   
    34   18   36 1   
    35   19   43 1   
    36   19   44 1   
    37   19   45 1   
    38   20   46 1   
    39   20   47 1   
    40   20   48 1   
    41   22   23 1   
    42   23   24 1   
    43   23   49 1   
    44   24   25 ar  
    45   24   26 ar  
    46   25   30 ar  
    47   25   50 1   
    48   26   31 ar  
    49   26   51 1   
    50   27   28 1   
    51   27   52 1   
    52   27   53 1   
    53   28   54 1   
    54   28   55 1   
    55   29   32 1   
    56   30   34 ar  
    57   30   56 1   
    58   31   34 ar  
    59   31   57 1   
    60   33   35 1   
    61   33   58 1   
    62   33   59 1   
    63   34   60 1   
    64   35   61 1   
    65   35   62 1   
    66   35   63 1   
@<TRIPOS>SUBSTRUCTURE
     1 VPP         1 TEMP              0 ****  ****    0 ROOT
