@<TRIPOS>MOLECULE
VPP
   66    63     1     0     0
SMALL
bcc


@<TRIPOS>ATOM
      1 S           1.6340   -1.7940    0.0240 ss        1 VPP      0.032000
      2 O01         1.0570    5.3490    0.5790 o         1 VPP     -0.235000
      3 O02         0.6820    2.7760    1.7780 o         1 VPP     -0.453000
      4 O03        -0.5000    1.2250    2.9570 o         1 VPP     -0.453000
      5 O06         5.6570    2.0190   -2.4580 o         1 VPP     -0.407000
      6 O04         9.0080    4.6890    0.3070 o         1 VPP     -0.320000
      7 O05        10.7580    5.8380   -4.4560 o         1 VPP     -0.359000
      8 O          10.7540    5.0680   -1.7970 o         1 VPP     -0.253000
      9 N02         2.1470    0.7130    0.6040 n7        1 VPP     -0.132000
     10 N03         3.6050    1.1230   -2.0100 ns        1 VPP     -0.392000
     11 N04         7.7640    2.8360   -0.2860 ns        1 VPP     -0.328000
     12 N01         8.5380    4.4310   -1.9590 n         1 VPP     -0.352000
     13 N           8.4770    5.7120   -4.5250 ns        1 VPP     -0.396000
     14 C17         2.7140   -0.3590   -0.2060 c3        1 VPP     -0.174000
     15 C19         0.5100   -0.9380    1.2000 c3        1 VPP     -0.116000
     16 C18         1.0520    0.4660    1.2840 c2        1 VPP      0.063000
     17 C20         2.8040   -0.0220   -1.7150 c3        1 VPP     -0.024000
     18 C01         1.6160    4.4100    0.1260 c1        1 VPP      0.471000
     19 C02        -0.9000   -0.9370    0.6570 c3        1 VPP     -0.208500
     20 C03         0.5780   -1.6160    2.5490 c3        1 VPP     -0.208500
     21 C04         0.3140    1.6360    2.1220 c2        1 VPP      0.404000
     22 C21         4.9400    1.0090   -2.3240 c2        1 VPP      0.266000
     23 CA          7.7150    2.3830    1.0220 c2        1 VPP      0.048000
     24 C05         7.2130    1.1930    1.4350 c2        1 VPP     -0.202000
     25 C07         6.6850   -3.7630   -4.1530 c3        1 VPP     -0.141000
     26 C08         6.6930    0.1880    0.6160 c1        1 VPP     -0.090000
     27 C09         7.3930    4.2540   -2.8240 c3        1 VPP     -0.042000
     28 C10         7.2490    5.3800   -3.8690 c3        1 VPP     -0.031000
     29 C11         9.7150    5.0080   -2.4590 c2        1 VPP      0.299000
     30 C12         5.4470   -3.5130   -3.3840 c2        1 VPP     -0.435000
     31 C13         6.2430   -0.7000   -0.0540 c1        1 VPP     -0.284000
     32 C14         9.6800    5.5550   -3.8970 c2        1 VPP      0.294000
     33 C15         8.8920    7.0560   -6.9700 c1        1 VPP     -0.095000
     34 C16         5.1060   -2.4010   -2.7840 c1        1 VPP      0.106000
     35 C          10.1340    6.5830   -7.4940 c3        1 VPP     -0.316000
     36 O07         2.2090    3.5050   -0.3870 o         1 VPP     -0.235000
     37 H3          2.5610    1.6340    0.5850 hn        1 VPP      0.309000
     38 H5          3.2080    2.0250   -1.8560 hn        1 VPP      0.244000
     39 H6          7.3420    2.2970   -1.0120 hn        1 VPP      0.260000
     40 H7          3.2440   -0.9380   -2.2150 h1        1 VPP      0.127000
     41 H8          3.7450   -0.6050    0.1840 h2        1 VPP      0.169000
     42 H9          1.7630    0.1430   -2.1160 h1        1 VPP      0.127000
     43 H10        -0.9410   -0.4770   -0.3590 hc        1 VPP      0.110000
     44 H11        -1.2810   -1.9850    0.5940 hc        1 VPP      0.110000
     45 H12        -1.5600   -0.3510    1.3510 hc        1 VPP      0.110000
     46 H13         0.1650   -2.6510    2.4710 hc        1 VPP      0.110000
     47 H14         1.6300   -1.6750    2.9160 hc        1 VPP      0.110000
     48 H15        -0.0340   -1.0320    3.2870 hc        1 VPP      0.110000
     49 H16         7.2250    0.9700    2.5170 ha        1 VPP      0.157000
     50 H17         7.3420   -2.8600   -4.1790 hc        1 VPP      0.093000
     51 H18         7.2560   -4.6050   -3.6870 hc        1 VPP      0.093000
     52 H19         7.4770    3.2600   -3.3530 h1        1 VPP      0.113000
     53 H20         6.4460    4.2350   -2.2120 h1        1 VPP      0.113000
     54 H21         6.5060    5.0330   -4.6430 h1        1 VPP      0.092000
     55 H22         6.8230    6.2970   -3.3670 h1        1 VPP      0.092000
     56 H23         6.4260   -4.0460   -5.2040 hc        1 VPP      0.093000
     57 H24         5.8750   -1.4960   -0.6540 ha        1 VPP      0.229000
     58 H25         8.4510    6.1470   -5.4610 hn        1 VPP      0.306000
     59 H26         8.4970    8.0190   -7.3210 ha        1 VPP      0.062000
     60 H27         4.7560   -4.3830   -3.3260 ha        1 VPP      0.199000
     61 H28        10.8480    6.5770   -6.6060 hc        1 VPP      0.136000
     62 H29        10.5960    7.1610   -8.3320 hc        1 VPP      0.136000
     63 H30        10.0330    5.5060   -7.7990 hc        1 VPP      0.136000
     64 H032        5.3150   -0.0360   -2.4580 h5        1 VPP      0.160000
     65 H042        8.1430    3.0900    1.7660 h4        1 VPP      0.179000
     66 C06         8.4690    4.0190   -0.5930 c2        1 VPP      0.414000
@<TRIPOS>BOND
     1    1   14 1   
     2    1   15 1   
     3    2   18 1   
     4    3   21 1   
     5    4   21 1   
     6    5   22 1   
     7    6   66 1   
     8    7   32 1   
     9    8   29 1   
    10    9   14 1   
    11    9   16 1   
    12    9   37 1   
    13   10   17 1   
    14   10   22 1   
    15   10   38 1   
    16   11   23 1   
    17   11   39 1   
    18   11   66 1   
    19   12   27 1   
    20   12   29 1   
    21   12   66 1   
    22   13   28 1   
    23   13   32 1   
    24   13   58 1   
    25   14   17 1   
    26   14   41 1   
    27   15   16 1   
    28   15   19 1   
    29   15   20 1   
    30   16   21 1   
    31   17   40 1   
    32   17   42 1   
    33   18   36 1   
    34   19   43 1   
    35   19   44 1   
    36   19   45 1   
    37   20   46 1   
    38   20   47 1   
    39   20   48 1   
    40   22   64 1   
    41   23   24 1   
    42   23   65 1   
    43   24   26 1   
    44   24   49 1   
    45   25   30 1   
    46   25   50 1   
    47   25   51 1   
    48   25   56 1   
    49   26   31 1   
    50   27   28 1   
    51   27   52 1   
    52   27   53 1   
    53   28   54 1   
    54   28   55 1   
    55   29   32 1   
    56   30   34 1   
    57   30   60 1   
    58   31   57 1   
    59   33   35 1   
    60   33   59 1   
    61   35   61 1   
    62   35   62 1   
    63   35   63 1   
@<TRIPOS>SUBSTRUCTURE
     1 VPP         1 TEMP              0 ****  ****    0 ROOT
