@<TRIPOS>MOLECULE
VPP
   66    63     1     0     0
SMALL
bcc


@<TRIPOS>ATOM
      1 S           0.7810   -1.6320   -0.9220 ss        1 VPP     -0.028000
      2 O01         3.7440    4.0050    3.0730 o         1 VPP     -0.242250
      3 O02         1.8040    1.5920    3.1670 o         1 VPP     -0.242250
      4 O03        -0.0540    0.2980    3.8980 o         1 VPP     -0.242250
      5 O06         5.6320    1.7970   -2.3840 o         1 VPP     -0.437000
      6 O04         9.5640    4.3440   -0.2220 o         1 VPP     -0.316000
      7 O05        10.2550    6.4400   -4.5990 o         1 VPP     -0.169000
      8 O          10.9760    4.5090   -2.5880 o         1 VPP     -0.243000
      9 N02         2.0350    0.0310    0.6730 n3        1 VPP     -0.176000
     10 N03         3.5150    1.2540   -1.7260 n         1 VPP     -0.385000
     11 N04         8.0060    2.6720   -0.5680 n         1 VPP     -0.333000
     12 N01         8.6930    4.1740   -2.3650 n         1 VPP     -0.357000
     13 N           8.4280    4.9540   -5.2050 n4        1 VPP      0.154000
     14 C17         2.2320   -0.5950   -0.6380 c3        1 VPP     -0.175000
     15 C19        -0.0140   -1.1900    0.6960 c3        1 VPP     -0.121000
     16 C18         0.9460   -0.2440    1.3410 c1        1 VPP     -0.117000
     17 C20         2.3630    0.4050   -1.8060 c3        1 VPP     -0.025000
     18 C01         3.6390    3.3370    2.1010 c1        1 VPP      0.465500
     19 C02        -1.3410   -0.5220    0.4340 c3        1 VPP     -0.191500
     20 C03        -0.1770   -2.4390    1.5280 c3        1 VPP     -0.191500
     21 C04         0.8720    0.8910    3.4410 c1        1 VPP      0.465500
     22 C21         4.6340    1.0520   -2.4880 c2        1 VPP      0.269000
     23 CA          8.0560    2.2470    0.7540 c2        1 VPP      0.027000
     24 C05         7.3000    1.2280    1.2360 c2        1 VPP     -0.169000
     25 C07         7.1050   -0.4380   -4.6590 c3        1 VPP     -0.127000
     26 C08         7.3720    0.8180    2.5720 c1        1 VPP     -0.124000
     27 C09         7.4770    3.9300   -3.1050 c3        1 VPP     -0.051000
     28 C10         7.2490    4.8760   -4.2920 c3        1 VPP     -0.108000
     29 C11         9.8320    4.6820   -3.0140 c2        1 VPP      0.277000
     30 C12         5.9260   -1.2310   -4.7970 c1        1 VPP     -0.170000
     31 C13         7.4170    0.4480    3.7100 c1        1 VPP     -0.211000
     32 C14         9.5860    5.4600   -4.3110 c2        1 VPP      0.093000
     33 C15         8.1400    5.6800   -6.3620 c2        1 VPP     -0.614000
     34 C16         4.9380   -1.8970   -4.9140 c1        1 VPP     -0.229000
     35 C           8.9200    5.4770   -7.5900 c3        1 VPP     -0.110000
     36 O07         3.5420    2.6820    1.1060 o         1 VPP     -0.242250
     37 H3          2.7260    0.6670    1.0170 hn        1 VPP      0.280000
     38 H5          3.5060    1.9820   -1.0460 hn        1 VPP      0.246000
     39 H6          7.3770    2.2190   -1.1960 hn        1 VPP      0.259000
     40 H7          2.3970   -0.2020   -2.7560 h1        1 VPP      0.116000
     41 H8          3.1410   -1.2550   -0.5970 h2        1 VPP      0.136000
     42 H9          1.4390    1.0530   -1.8410 h1        1 VPP      0.116000
     43 H10        -1.2090    0.3990   -0.1830 hc        1 VPP      0.095500
     44 H11        -2.0210   -1.2230   -0.1090 hc        1 VPP      0.095500
     45 H12        -1.8180   -0.2390    1.4050 hc        1 VPP      0.095500
     46 H13        -0.8940   -3.1380    1.0340 hc        1 VPP      0.095500
     47 H14         0.8010   -2.9620    1.6590 hc        1 VPP      0.095500
     48 H15        -0.5750   -2.1650    2.5380 hc        1 VPP      0.095500
     49 H16         6.5950    0.6670    0.5990 ha        1 VPP      0.135000
     50 H17         7.4410   -0.0590   -5.6590 hc        1 VPP      0.100667
     51 H18         6.9100    0.4440   -3.9900 hc        1 VPP      0.100667
     52 H19         7.4690    2.8610   -3.4770 h1        1 VPP      0.118000
     53 H20         6.5840    4.0500   -2.4220 h1        1 VPP      0.118000
     54 H21         6.3710    4.5000   -4.8880 hx        1 VPP      0.142000
     55 H22         7.0190    5.9180   -3.9360 hx        1 VPP      0.142000
     56 H23         7.9360   -1.0450   -4.2140 hc        1 VPP      0.100667
     57 H24         7.4590    0.1210    4.7180 ha        1 VPP      0.225000
     58 H25         8.7210    4.0080   -5.4680 hn        1 VPP      0.216000
     59 H26         7.6390    6.6410   -6.2130 hx        1 VPP      0.138000
     60 H27         4.0730   -2.4990   -5.0290 ha        1 VPP      0.226000
     61 H28         8.9550    4.4000   -7.8980 hc        1 VPP      0.055000
     62 H29         9.9790    5.8360   -7.4900 hc        1 VPP      0.055000
     63 H30         8.4320    6.0580   -8.4120 hc        1 VPP      0.055000
     64 H032        4.5950    0.2020   -3.2120 h5        1 VPP      0.150000
     65 H042        8.7720    2.8040    1.3950 h4        1 VPP      0.181000
     66 C06         8.7960    3.7500   -1.0000 c2        1 VPP      0.411000
@<TRIPOS>BOND
     1    1   14 1   
     2    1   15 1   
     3    2   18 1   
     4    3   21 1   
     5    4   21 1   
     6    5   22 1   
     7    6   66 1   
     8    7   32 1   
     9    8   29 1   
    10    9   14 1   
    11    9   16 1   
    12    9   37 1   
    13   10   17 1   
    14   10   22 1   
    15   10   38 1   
    16   11   23 1   
    17   11   39 1   
    18   11   66 1   
    19   12   27 1   
    20   12   29 1   
    21   12   66 1   
    22   13   28 1   
    23   13   32 1   
    24   13   33 1   
    25   13   58 1   
    26   14   17 1   
    27   14   41 1   
    28   15   16 1   
    29   15   19 1   
    30   15   20 1   
    31   17   40 1   
    32   17   42 1   
    33   18   36 1   
    34   19   43 1   
    35   19   44 1   
    36   19   45 1   
    37   20   46 1   
    38   20   47 1   
    39   20   48 1   
    40   22   64 1   
    41   23   24 1   
    42   23   65 1   
    43   24   26 1   
    44   24   49 1   
    45   25   30 1   
    46   25   50 1   
    47   25   51 1   
    48   25   56 1   
    49   26   31 1   
    50   27   28 1   
    51   27   52 1   
    52   27   53 1   
    53   28   54 1   
    54   28   55 1   
    55   29   32 1   
    56   30   34 1   
    57   31   57 1   
    58   33   35 1   
    59   33   59 1   
    60   34   60 1   
    61   35   61 1   
    62   35   62 1   
    63   35   63 1   
@<TRIPOS>SUBSTRUCTURE
     1 VPP         1 TEMP              0 ****  ****    0 ROOT
