@<TRIPOS>MOLECULE
VPR
   28    27     1     0     0
SMALL
bcc


@<TRIPOS>ATOM
      1 C5         -0.1210    0.0110   -0.0050 c3        1 VPR     -0.099600
      2 C4          1.3830    0.1080    0.0180 c3        1 VPR     -0.082400
      3 C3          1.9230   -0.1480    1.4090 c3        1 VPR     -0.088900
      4 C2          3.4450   -0.0700    1.4570 c3        1 VPR     -0.118700
      5 C3A         3.9670   -0.0550    2.8930 c3        1 VPR     -0.088900
      6 C4A         3.8810    1.3330    3.4960 c3        1 VPR     -0.082400
      7 C5A         4.3980    1.3350    4.9120 c3        1 VPR     -0.099600
      8 C1          4.0210   -1.2770    0.7530 c         1 VPR      0.552100
      9 N           5.3780   -1.0540    0.0860 n4        1 VPR     -0.774400
     10 O           3.6000   -2.4130    0.6470 o         1 VPR     -0.383100
     11 H51        -0.5760    0.7630    0.6850 hc        1 VPR      0.051867
     12 H52        -0.5020    0.2030   -1.0370 hc        1 VPR      0.051867
     13 H53        -0.4570   -1.0060    0.3110 hc        1 VPR      0.051867
     14 H41         1.8180   -0.6420   -0.6960 hc        1 VPR      0.043700
     15 H42         1.6980    1.1270   -0.3310 hc        1 VPR      0.043700
     16 H31         1.5150    0.6230    2.1180 hc        1 VPR      0.072700
     17 H32         1.5820   -1.1540    1.7740 hc        1 VPR      0.072700
     18 H2          3.7730    0.8720    0.9290 hc        1 VPR      0.089700
     19 H3A1        5.0350   -0.3980    2.9200 hc        1 VPR      0.072700
     20 H3A2        3.3680   -0.7740    3.5140 hc        1 VPR      0.072700
     21 H4A1        4.4770    2.0540    2.8750 hc        1 VPR      0.043700
     22 H4A2        2.8150    1.6860    3.4850 hc        1 VPR      0.043700
     23 H5A1        5.4670    1.0140    4.9480 hc        1 VPR      0.051867
     24 H5A2        3.8000    0.6430    5.5540 hc        1 VPR      0.051867
     25 H5A3        4.3250    2.3640    5.3420 hc        1 VPR      0.051867
     26 HN1         6.0370   -0.6670    0.7670 hn        1 VPR      0.466133
     27 HN2         5.7490   -1.9390   -0.2790 hn        1 VPR      0.466133
     28 HN3         5.2770   -0.3920   -0.6880 hn        1 VPR      0.466133
@<TRIPOS>BOND
     1    1    2 1   
     2    1   11 1   
     3    1   12 1   
     4    1   13 1   
     5    2    3 1   
     6    2   14 1   
     7    2   15 1   
     8    3    4 1   
     9    3   16 1   
    10    3   17 1   
    11    4    5 1   
    12    4    8 1   
    13    4   18 1   
    14    5    6 1   
    15    5   19 1   
    16    5   20 1   
    17    6    7 1   
    18    6   21 1   
    19    6   22 1   
    20    7   23 1   
    21    7   24 1   
    22    7   25 1   
    23    8    9 1   
    24    8   10 2   
    25    9   26 1   
    26    9   27 1   
    27    9   28 1   
@<TRIPOS>SUBSTRUCTURE
     1 VPR         1 TEMP              0 ****  ****    0 ROOT
