@<TRIPOS>MOLECULE
VPR
   27    26     1     0     0
SMALL
bcc


@<TRIPOS>ATOM
      1 C5          2.3670   -0.0660    2.7540 c3        1 VPR     -0.092100
      2 C4          1.2000    0.4860    1.9780 c3        1 VPR     -0.080900
      3 C3          0.9900   -0.2740    0.6850 c3        1 VPR     -0.076400
      4 C2         -0.1950    0.2670   -0.1030 c3        1 VPR     -0.125700
      5 C3A        -0.2180   -0.2780   -1.5260 c3        1 VPR     -0.076400
      6 C4A         0.7640    0.4410   -2.4270 c3        1 VPR     -0.080900
      7 C5A         0.7180   -0.1090   -3.8300 c3        1 VPR     -0.092100
      8 C1         -1.4980   -0.1410    0.5840 c         1 VPR      0.657100
      9 N          -2.5280    0.7680    0.6100 n         1 VPR     -0.680000
     10 O          -1.6580   -1.2670    1.0980 o         1 VPR     -0.614100
     11 H51         2.5060    0.5060    3.7030 hc        1 VPR      0.034700
     12 H52         2.1960   -1.1400    3.0110 hc        1 VPR      0.034700
     13 H53         3.3080    0.0050    2.1570 hc        1 VPR      0.034700
     14 H41         0.2670    0.4190    2.5990 hc        1 VPR      0.039450
     15 H42         1.3760    1.5710    1.7550 hc        1 VPR      0.039450
     16 H31         1.9130   -0.2000    0.0530 hc        1 VPR      0.055450
     17 H32         0.8160   -1.3600    0.9100 hc        1 VPR      0.055450
     18 H2         -0.1140    1.3900   -0.1440 hc        1 VPR      0.054700
     19 H3A1        0.0160   -1.3750   -1.5040 hc        1 VPR      0.055450
     20 H3A2       -1.2510   -0.1670   -1.9500 hc        1 VPR      0.055450
     21 H4A1        0.5250    1.5370   -2.4450 hc        1 VPR      0.039450
     22 H4A2        1.8030    0.3360   -2.0170 hc        1 VPR      0.039450
     23 H5A1        1.4470    0.4310   -4.4810 hc        1 VPR      0.034700
     24 H5A2        0.9770   -1.1960   -3.8360 hc        1 VPR      0.034700
     25 H5A3       -0.3020    0.0100   -4.2690 hc        1 VPR      0.034700
     26 HN1        -3.3860    0.5230    1.0360 hn        1 VPR      0.309500
     27 HN2        -2.4330    1.6620    0.2070 hn        1 VPR      0.309500
@<TRIPOS>BOND
     1    1    2 1   
     2    1   11 1   
     3    1   12 1   
     4    1   13 1   
     5    2    3 1   
     6    2   14 1   
     7    2   15 1   
     8    3    4 1   
     9    3   16 1   
    10    3   17 1   
    11    4    5 1   
    12    4    8 1   
    13    4   18 1   
    14    5    6 1   
    15    5   19 1   
    16    5   20 1   
    17    6    7 1   
    18    6   21 1   
    19    6   22 1   
    20    7   23 1   
    21    7   24 1   
    22    7   25 1   
    23    8    9 1   
    24    8   10 2   
    25    9   26 1   
    26    9   27 1   
@<TRIPOS>SUBSTRUCTURE
     1 VPR         1 TEMP              0 ****  ****    0 ROOT
