@<TRIPOS>MOLECULE
VPR
   28    27     1     0     0
SMALL
bcc


@<TRIPOS>ATOM
      1 C5         -0.1310    0.0430    0.0130 c3        1 VPR     -0.099600
      2 C4          1.3740    0.1280    0.0270 c3        1 VPR     -0.082400
      3 C3          1.9190   -0.1380    1.4150 c3        1 VPR     -0.088900
      4 C2          3.4420   -0.0710    1.4540 c3        1 VPR     -0.118700
      5 C3A         3.9720   -0.0670    2.8880 c3        1 VPR     -0.088900
      6 C4A         3.9000    1.3200    3.4970 c3        1 VPR     -0.082400
      7 C5A         4.4250    1.3120    4.9100 c3        1 VPR     -0.099600
      8 C1          4.0060   -1.2800    0.7430 c         1 VPR      0.552100
      9 N           5.3610   -1.0640    0.0690 nz        1 VPR     -0.774400
     10 O           3.5750   -2.4110    0.6330 o         1 VPR     -0.383100
     11 H51        -0.5760    0.7950    0.7080 hc        1 VPR      0.051867
     12 H52        -0.5160    0.2430   -1.0170 hc        1 VPR      0.051867
     13 H53        -0.4730   -0.9730    0.3270 hc        1 VPR      0.051867
     14 H41         1.7990   -0.6220   -0.6920 hc        1 VPR      0.043700
     15 H42         1.6950    1.1470   -0.3190 hc        1 VPR      0.043700
     16 H31         1.5210    0.6330    2.1290 hc        1 VPR      0.072700
     17 H32         1.5730   -1.1430    1.7770 hc        1 VPR      0.072700
     18 H2          3.7750    0.8700    0.9290 hc        1 VPR      0.089700
     19 H3A1        5.0380   -0.4180    2.9070 hc        1 VPR      0.072700
     20 H3A2        3.3710   -0.7840    3.5090 hc        1 VPR      0.072700
     21 H4A1        4.4970    2.0390    2.8760 hc        1 VPR      0.043700
     22 H4A2        2.8370    1.6800    3.4930 hc        1 VPR      0.043700
     23 H5A1        5.4920    0.9830    4.9380 hc        1 VPR      0.051867
     24 H5A2        3.8260    0.6220    5.5520 hc        1 VPR      0.051867
     25 H5A3        4.3620    2.3390    5.3450 hc        1 VPR      0.051867
     26 HN1         6.0270   -0.6860    0.7490 hn        1 VPR      0.466133
     27 HN2         5.7230   -1.9510   -0.3020 hn        1 VPR      0.466133
     28 HN3         5.2620   -0.3970   -0.7010 hn        1 VPR      0.466133
@<TRIPOS>BOND
     1    1    2 1   
     2    1   11 1   
     3    1   12 1   
     4    1   13 1   
     5    2    3 1   
     6    2   14 1   
     7    2   15 1   
     8    3    4 1   
     9    3   16 1   
    10    3   17 1   
    11    4    5 1   
    12    4    8 1   
    13    4   18 1   
    14    5    6 1   
    15    5   19 1   
    16    5   20 1   
    17    6    7 1   
    18    6   21 1   
    19    6   22 1   
    20    7   23 1   
    21    7   24 1   
    22    7   25 1   
    23    8    9 1   
    24    8   10 2   
    25    9   26 1   
    26    9   27 1   
    27    9   28 1   
@<TRIPOS>SUBSTRUCTURE
     1 VPR         1 TEMP              0 ****  ****    0 ROOT
