@<TRIPOS>MOLECULE
VPR
   28    27     1     0     0
SMALL
bcc


@<TRIPOS>ATOM
      1 C5         -0.1270    0.0290    0.0060 c3        1 VPR     -0.099600
      2 C4          1.3780    0.1250    0.0240 c3        1 VPR     -0.082400
      3 C3          1.9220   -0.1440    1.4110 c3        1 VPR     -0.088900
      4 C2          3.4440   -0.0670    1.4540 c3        1 VPR     -0.118700
      5 C3A         3.9710   -0.0670    2.8890 c3        1 VPR     -0.088900
      6 C4A         3.8870    1.3150    3.5060 c3        1 VPR     -0.082400
      7 C5A         4.4100    1.3030    4.9200 c3        1 VPR     -0.099600
      8 C1          4.0170   -1.2680    0.7370 c         1 VPR      0.552100
      9 N           5.3710   -1.0380    0.0660 n4        1 VPR     -0.774400
     10 O           3.5960   -2.4020    0.6220 o         1 VPR     -0.383100
     11 H51        -0.5110    0.2320   -1.0240 hc        1 VPR      0.051867
     12 H52        -0.4630   -0.9900    0.3140 hc        1 VPR      0.051867
     13 H53        -0.5780    0.7760    0.7040 hc        1 VPR      0.051867
     14 H41         1.8090   -0.6190   -0.6980 hc        1 VPR      0.043700
     15 H42         1.6920    1.1470   -0.3160 hc        1 VPR      0.043700
     16 H31         1.5170    0.6200    2.1290 hc        1 VPR      0.072700
     17 H32         1.5820   -1.1530    1.7680 hc        1 VPR      0.072700
     18 H2          3.7710    0.8800    0.9350 hc        1 VPR      0.089700
     19 H3A1        5.0390   -0.4100    2.9080 hc        1 VPR      0.072700
     20 H3A2        3.3740   -0.7930    3.5050 hc        1 VPR      0.072700
     21 H4A1        4.4780    2.0430    2.8900 hc        1 VPR      0.043700
     22 H4A2        2.8210    1.6670    3.5040 hc        1 VPR      0.043700
     23 H5A1        5.4800    0.9830    4.9470 hc        1 VPR      0.051867
     24 H5A2        3.8160    0.6040    5.5570 hc        1 VPR      0.051867
     25 H5A3        4.3380    2.3270    5.3610 hc        1 VPR      0.051867
     26 HN1         6.0330   -0.6580    0.7480 hn        1 VPR      0.466133
     27 HN2         5.2670   -0.3690   -0.7020 hn        1 VPR      0.466133
     28 HN3         5.7400   -1.9210   -0.3080 hn        1 VPR      0.466133
@<TRIPOS>BOND
     1    1    2 1   
     2    1   11 1   
     3    1   12 1   
     4    1   13 1   
     5    2    3 1   
     6    2   14 1   
     7    2   15 1   
     8    3    4 1   
     9    3   16 1   
    10    3   17 1   
    11    4    5 1   
    12    4    8 1   
    13    4   18 1   
    14    5    6 1   
    15    5   19 1   
    16    5   20 1   
    17    6    7 1   
    18    6   21 1   
    19    6   22 1   
    20    7   23 1   
    21    7   24 1   
    22    7   25 1   
    23    8    9 1   
    24    8   10 2   
    25    9   26 1   
    26    9   27 1   
    27    9   28 1   
@<TRIPOS>SUBSTRUCTURE
     1 VPR         1 TEMP              0 ****  ****    0 ROOT
