@<TRIPOS>MOLECULE
VPU
   55    56     1     0     0
SMALL
bcc


@<TRIPOS>ATOM
      1 C3          1.7570    2.6610   -0.7480 c3        1 VPU     -0.102100
      2 C2          1.5570    1.2660   -0.2120 c3        1 VPU     -0.077400
      3 C1          2.4560    1.0110    0.9850 c3        1 VPU     -0.098400
      4 CAH         2.2680   -0.4070    1.4820 c3        1 VPU     -0.161400
      5 CAG         2.9110   -0.6910    2.8060 c         1 VPU      0.565100
      6 OAN         2.4810   -1.3380    3.7420 o         1 VPU     -0.398100
      7 NAI         4.3020   -0.0760    2.9920 n4        1 VPU     -0.679800
      8 CAB         5.0010   -0.4690    4.2520 c3        1 VPU      0.067200
      9 CAC         6.1100    0.5500    4.6200 c3        1 VPU      0.128100
     10 OAJ         5.4690    1.8040    4.7120 oh        1 VPU     -0.615800
     11 CAD         6.7270    0.1140    5.9640 c3        1 VPU      0.089100
     12 OAK         7.7170    1.0840    6.2360 oh        1 VPU     -0.577800
     13 CAE         7.3700   -1.2620    5.7750 c3        1 VPU      0.078100
     14 CAF         7.8570   -1.8840    7.0950 c3        1 VPU      0.135400
     15 OAM         8.6550   -3.0090    6.8180 oh        1 VPU     -0.591800
     16 OAL         6.4200   -2.2300    5.2700 os        1 VPU     -0.419400
     17 CAA         5.5930   -1.8690    4.2400 c2        1 VPU      0.582600
     18 NAY         5.1920   -2.7880    3.3820 n2        1 VPU     -0.438200
     19 OAQ         5.7460   -3.9870    3.3900 os        1 VPU     -0.125600
     20 CAP         5.6640   -4.8080    4.5140 c         1 VPU      0.595100
     21 OAR         5.0840   -4.5230    5.5460 o         1 VPU     -0.370000
     22 NAO         6.3940   -6.0850    4.2760 n4        1 VPU     -0.482200
     23 CAS         5.4770   -7.2200    4.0950 ca        1 VPU     -0.080400
     24 CAT         5.3060   -7.7710    2.8120 ca        1 VPU     -0.091500
     25 CAU         4.4740   -8.8780    2.6640 ca        1 VPU     -0.100000
     26 CAV         3.8170   -9.4260    3.7680 ca        1 VPU     -0.053000
     27 CAW         3.9860   -8.8640    5.0360 ca        1 VPU     -0.100000
     28 CAX         4.8130   -7.7570    5.2140 ca        1 VPU     -0.091500
     29 H3          1.5170    3.4250    0.0310 hc        1 VPU      0.053033
     30 H3A         1.0820    2.8300   -1.6230 hc        1 VPU      0.053033
     31 H3B         2.8110    2.8140   -1.0830 hc        1 VPU      0.053033
     32 H2          1.7810    0.5150   -1.0160 hc        1 VPU      0.060200
     33 H2A         0.4850    1.1270    0.0880 hc        1 VPU      0.060200
     34 H1          2.2010    1.7450    1.7950 hc        1 VPU      0.050700
     35 H1A         3.5210    1.1850    0.6790 hc        1 VPU      0.050700
     36 HAH         1.1670   -0.6260    1.6070 hc        1 VPU      0.129200
     37 HAHA        2.6720   -1.1450    0.7320 hc        1 VPU      0.129200
     38 HNAI        4.8740   -0.3120    2.1740 hn        1 VPU      0.479800
     39 HAB         4.2160   -0.4590    5.0820 hx        1 VPU      0.169700
     40 HAC         6.9120    0.5890    3.8290 h1        1 VPU      0.088700
     41 HOAJ        6.0920    2.4230    5.1300 ho        1 VPU      0.480000
     42 HAD         5.9420    0.0860    6.7690 h1        1 VPU      0.089700
     43 HOAK        7.8320    1.1350    7.1960 ho        1 VPU      0.447000
     44 HAE         8.2160   -1.2020    5.0330 h1        1 VPU      0.095700
     45 HAF         8.4070   -1.0970    7.6750 h1        1 VPU      0.085200
     46 HAFA        6.9830   -2.2710    7.6880 h1        1 VPU      0.085200
     47 HOAM        9.5770   -2.7200    6.7700 ho        1 VPU      0.427000
     48 HNAO        6.9900   -5.9900    3.4410 hn        1 VPU      0.487300
     49 HAT         5.8180   -7.3540    1.9290 ha        1 VPU      0.163000
     50 HAU         4.3400   -9.3250    1.6630 ha        1 VPU      0.181000
     51 HAV         3.1630  -10.3070    3.6390 ha        1 VPU      0.182000
     52 HAW         3.4660   -9.2970    5.9080 ha        1 VPU      0.181000
     53 HAX         4.9310   -7.3170    6.2190 ha        1 VPU      0.163000
     54 HAI2        4.1860    0.9540    3.0150 hn        1 VPU      0.479800
     55 HAO2        6.9840   -6.2630    5.1060 hn        1 VPU      0.487300
@<TRIPOS>BOND
     1    1    2 1   
     2    1   29 1   
     3    1   30 1   
     4    1   31 1   
     5    2    3 1   
     6    2   32 1   
     7    2   33 1   
     8    3    4 1   
     9    3   34 1   
    10    3   35 1   
    11    4    5 1   
    12    4   36 1   
    13    4   37 1   
    14    5    6 2   
    15    5    7 1   
    16    7    8 1   
    17    7   38 1   
    18    7   54 1   
    19    8    9 1   
    20    8   17 1   
    21    8   39 1   
    22    9   10 1   
    23    9   11 1   
    24    9   40 1   
    25   10   41 1   
    26   11   12 1   
    27   11   13 1   
    28   11   42 1   
    29   12   43 1   
    30   13   14 1   
    31   13   16 1   
    32   13   44 1   
    33   14   15 1   
    34   14   45 1   
    35   14   46 1   
    36   15   47 1   
    37   16   17 1   
    38   17   18 2   
    39   18   19 1   
    40   19   20 1   
    41   20   21 2   
    42   20   22 1   
    43   22   23 1   
    44   22   48 1   
    45   22   55 1   
    46   23   24 ar  
    47   23   28 ar  
    48   24   25 ar  
    49   24   49 1   
    50   25   26 ar  
    51   25   50 1   
    52   26   27 ar  
    53   26   51 1   
    54   27   28 ar  
    55   27   52 1   
    56   28   53 1   
@<TRIPOS>SUBSTRUCTURE
     1 VPU         1 TEMP              0 ****  ****    0 ROOT
