@<TRIPOS>MOLECULE
VPU
   54    55     1     0     0
SMALL
bcc


@<TRIPOS>ATOM
      1 C3          0.2470   -0.4710   -0.0910 c3        1 VPU     -0.097100
      2 C2          1.6510   -0.8560    0.3010 c3        1 VPU     -0.080400
      3 C1          2.1560    0.0230    1.4280 c3        1 VPU     -0.080400
      4 CAH         3.5710   -0.3790    1.8060 c3        1 VPU     -0.161400
      5 CAG         4.0320    0.4020    2.9970 c         1 VPU      0.573100
      6 OAN         3.3810    0.9040    3.8960 o         1 VPU     -0.414100
      7 NAI         5.5480    0.5980    3.1100 n4        1 VPU     -0.675800
      8 CAB         6.0820    0.2450    4.4630 c3        1 VPU      0.080200
      9 CAC         7.5510    0.7040    4.6280 c3        1 VPU      0.128100
     10 OAJ         7.5760    2.0880    4.3480 oh        1 VPU     -0.624800
     11 CAD         7.9780    0.3930    6.0750 c3        1 VPU      0.099100
     12 OAK         9.3380    0.7740    6.1340 oh        1 VPU     -0.601800
     13 CAE         7.8060   -1.1040    6.3650 c3        1 VPU      0.064100
     14 CAF         7.9970   -1.4100    7.8610 c3        1 VPU      0.129400
     15 OAM         9.3040   -1.0510    8.2470 oh        1 VPU     -0.594800
     16 OAL         6.4690   -1.5520    6.0730 os        1 VPU     -0.399400
     17 CAA         6.0240   -1.2400    4.7990 c2        1 VPU      0.515600
     18 NAY         5.4890   -2.0870    3.9630 n2        1 VPU     -0.433200
     19 OAQ         5.4350   -3.3510    4.2990 os        1 VPU     -0.200600
     20 CAP         4.6140   -4.1990    3.4570 c         1 VPU      0.769100
     21 OAR         3.8440   -3.6700    2.6510 o         1 VPU     -0.537000
     22 NAO         4.9220   -5.5020    3.7330 n         1 VPU     -0.412100
     23 CAS         4.1220   -6.5970    3.3170 ca        1 VPU      0.030600
     24 CAT         3.2610   -6.5180    2.2060 ca        1 VPU     -0.148500
     25 CAU         2.5370   -7.6420    1.8140 ca        1 VPU     -0.101500
     26 CAV         2.6570   -8.8440    2.5080 ca        1 VPU     -0.126000
     27 CAW         3.5090   -8.9250    3.6100 ca        1 VPU     -0.101500
     28 CAX         4.2390   -7.8150    4.0230 ca        1 VPU     -0.148500
     29 H3          0.2080    0.5890   -0.4390 hc        1 VPU      0.046367
     30 H3A        -0.1100   -1.1280   -0.9210 hc        1 VPU      0.046367
     31 H3B        -0.4510   -0.5850    0.7730 hc        1 VPU      0.046367
     32 H2          2.3310   -0.7600   -0.5860 hc        1 VPU      0.051200
     33 H2A         1.6730   -1.9310    0.6250 hc        1 VPU      0.051200
     34 H1          1.4830   -0.0780    2.3200 hc        1 VPU      0.066200
     35 H1A         2.1360    1.0980    1.1100 hc        1 VPU      0.066200
     36 HAH         3.5940   -1.4780    2.0880 hc        1 VPU      0.121200
     37 HAHA        4.2560   -0.2390    0.9270 hc        1 VPU      0.121200
     38 HNAI        6.0210    0.0410    2.3920 hn        1 VPU      0.469300
     39 HAB         5.4330    0.7910    5.2220 hx        1 VPU      0.155700
     40 HAC         8.2290    0.1650    3.9080 h1        1 VPU      0.081700
     41 HOAJ        8.3980    2.4460    4.7200 ho        1 VPU      0.470000
     42 HAD         7.3670    1.0040    6.7980 h1        1 VPU      0.077700
     43 HOAK        9.6350    0.6620    7.0520 ho        1 VPU      0.458000
     44 HAE         8.5350   -1.6960    5.7470 h1        1 VPU      0.077700
     45 HAF         7.7800   -2.4920    8.0560 h1        1 VPU      0.080200
     46 HAFA        7.3140   -0.7700    8.4830 h1        1 VPU      0.080200
     47 HOAM        9.8990   -1.7700    7.9970 ho        1 VPU      0.422000
     48 HNAO        5.5580   -5.6750    4.4840 hn        1 VPU      0.345500
     49 HAT         3.1480   -5.5760    1.6450 ha        1 VPU      0.149000
     50 HAU         1.8650   -7.5730    0.9450 ha        1 VPU      0.147500
     51 HAV         2.0820   -9.7270    2.1900 ha        1 VPU      0.149000
     52 HAW         3.6070   -9.8730    4.1620 ha        1 VPU      0.147500
     53 HAX         4.9040   -7.9020    4.8960 ha        1 VPU      0.149000
     54 HAI2        5.7720    1.5930    2.9540 hn        1 VPU      0.469300
@<TRIPOS>BOND
     1    1    2 1   
     2    1   29 1   
     3    1   30 1   
     4    1   31 1   
     5    2    3 1   
     6    2   32 1   
     7    2   33 1   
     8    3    4 1   
     9    3   34 1   
    10    3   35 1   
    11    4    5 1   
    12    4   36 1   
    13    4   37 1   
    14    5    6 2   
    15    5    7 1   
    16    7    8 1   
    17    7   38 1   
    18    7   54 1   
    19    8    9 1   
    20    8   17 1   
    21    8   39 1   
    22    9   10 1   
    23    9   11 1   
    24    9   40 1   
    25   10   41 1   
    26   11   12 1   
    27   11   13 1   
    28   11   42 1   
    29   12   43 1   
    30   13   14 1   
    31   13   16 1   
    32   13   44 1   
    33   14   15 1   
    34   14   45 1   
    35   14   46 1   
    36   15   47 1   
    37   16   17 1   
    38   17   18 2   
    39   18   19 1   
    40   19   20 1   
    41   20   21 2   
    42   20   22 1   
    43   22   23 1   
    44   22   48 1   
    45   23   24 ar  
    46   23   28 ar  
    47   24   25 ar  
    48   24   49 1   
    49   25   26 ar  
    50   25   50 1   
    51   26   27 ar  
    52   26   51 1   
    53   27   28 ar  
    54   27   52 1   
    55   28   53 1   
@<TRIPOS>SUBSTRUCTURE
     1 VPU         1 TEMP              0 ****  ****    0 ROOT
