@<TRIPOS>MOLECULE
VPU
   54    55     1     0     0
SMALL
bcc


@<TRIPOS>ATOM
      1 C3          0.2510   -0.4770   -0.0980 c3        1 VPU     -0.097100
      2 C2          1.6530   -0.8620    0.2960 c3        1 VPU     -0.080400
      3 C1          2.1590    0.0190    1.4210 c3        1 VPU     -0.080400
      4 CAH         3.5740   -0.3830    1.8010 c3        1 VPU     -0.161400
      5 CAG         4.0340    0.4010    2.9900 c         1 VPU      0.573100
      6 OAN         3.3830    0.9050    3.8880 o         1 VPU     -0.414100
      7 NAI         5.5500    0.5960    3.1040 ny        1 VPU     -0.675800
      8 CAB         6.0830    0.2450    4.4580 c3        1 VPU      0.080200
      9 CAC         7.5520    0.7040    4.6230 c3        1 VPU      0.128100
     10 OAJ         7.5770    2.0890    4.3410 oh        1 VPU     -0.624800
     11 CAD         7.9780    0.3970    6.0710 c3        1 VPU      0.099100
     12 OAK         9.3380    0.7770    6.1300 oh        1 VPU     -0.601800
     13 CAE         7.8060   -1.1000    6.3640 c3        1 VPU      0.064100
     14 CAF         7.9950   -1.4030    7.8610 c3        1 VPU      0.129400
     15 OAM         9.3010   -1.0430    8.2480 oh        1 VPU     -0.594800
     16 OAL         6.4680   -1.5480    6.0720 os        1 VPU     -0.399400
     17 CAA         6.0240   -1.2380    4.7980 c2        1 VPU      0.515600
     18 NAY         5.4900   -2.0880    3.9620 n2        1 VPU     -0.433200
     19 OAQ         5.4360   -3.3500    4.3010 os        1 VPU     -0.200600
     20 CAP         4.6150   -4.2000    3.4600 c         1 VPU      0.769100
     21 OAR         3.8430   -3.6730    2.6550 o         1 VPU     -0.537000
     22 NAO         4.9230   -5.5020    3.7380 ns        1 VPU     -0.412100
     23 CAS         4.1230   -6.5980    3.3260 ca        1 VPU      0.030600
     24 CAT         3.2590   -6.5210    2.2160 ca        1 VPU     -0.148500
     25 CAU         2.5350   -7.6460    1.8280 ca        1 VPU     -0.101500
     26 CAV         2.6560   -8.8470    2.5230 ca        1 VPU     -0.126000
     27 CAW         3.5100   -8.9250    3.6230 ca        1 VPU     -0.101500
     28 CAX         4.2400   -7.8150    4.0340 ca        1 VPU     -0.148500
     29 H3         -0.1070   -1.1350   -0.9270 hc        1 VPU      0.046367
     30 H3A        -0.4480   -0.5880    0.7660 hc        1 VPU      0.046367
     31 H3B         0.2130    0.5830   -0.4490 hc        1 VPU      0.046367
     32 H2          1.6740   -1.9360    0.6230 hc        1 VPU      0.051200
     33 H2A         2.3340   -0.7690   -0.5910 hc        1 VPU      0.051200
     34 H1          2.1400    1.0940    1.1010 hc        1 VPU      0.066200
     35 H1A         1.4850   -0.0790    2.3130 hc        1 VPU      0.066200
     36 HAH         4.2590   -0.2460    0.9230 hc        1 VPU      0.121200
     37 HAHA        3.5940   -1.4820    2.0870 hc        1 VPU      0.121200
     38 HNAI        5.7750    1.5910    2.9470 hn        1 VPU      0.469300
     39 HAB         5.4340    0.7930    5.2160 hx        1 VPU      0.155700
     40 HAC         8.2300    0.1640    3.9050 h1        1 VPU      0.081700
     41 HOAJ        8.4000    2.4470    4.7130 ho        1 VPU      0.470000
     42 HAD         7.3670    1.0090    6.7930 h1        1 VPU      0.077700
     43 HOAK        9.6350    0.6670    7.0480 ho        1 VPU      0.458000
     44 HAE         8.5340   -1.6930    5.7480 h1        1 VPU      0.077700
     45 HAF         7.3110   -0.7610    8.4810 h1        1 VPU      0.080200
     46 HAFA        7.7770   -2.4840    8.0580 h1        1 VPU      0.080200
     47 HOAM        9.8970   -1.7620    7.9990 ho        1 VPU      0.422000
     48 HNAO        5.5600   -5.6740    4.4890 hn        1 VPU      0.345500
     49 HAT         3.1460   -5.5800    1.6530 ha        1 VPU      0.149000
     50 HAU         1.8610   -7.5780    0.9590 ha        1 VPU      0.147500
     51 HAV         2.0800   -9.7300    2.2070 ha        1 VPU      0.149000
     52 HAW         3.6090   -9.8720    4.1770 ha        1 VPU      0.147500
     53 HAX         4.9070   -7.9010    4.9050 ha        1 VPU      0.149000
     54 HAI2        6.0230    0.0370    2.3880 hn        1 VPU      0.469300
@<TRIPOS>BOND
     1    1    2 1   
     2    1   29 1   
     3    1   30 1   
     4    1   31 1   
     5    2    3 1   
     6    2   32 1   
     7    2   33 1   
     8    3    4 1   
     9    3   34 1   
    10    3   35 1   
    11    4    5 1   
    12    4   36 1   
    13    4   37 1   
    14    5    6 2   
    15    5    7 1   
    16    7    8 1   
    17    7   38 1   
    18    7   54 1   
    19    8    9 1   
    20    8   17 1   
    21    8   39 1   
    22    9   10 1   
    23    9   11 1   
    24    9   40 1   
    25   10   41 1   
    26   11   12 1   
    27   11   13 1   
    28   11   42 1   
    29   12   43 1   
    30   13   14 1   
    31   13   16 1   
    32   13   44 1   
    33   14   15 1   
    34   14   45 1   
    35   14   46 1   
    36   15   47 1   
    37   16   17 1   
    38   17   18 2   
    39   18   19 1   
    40   19   20 1   
    41   20   21 2   
    42   20   22 1   
    43   22   23 1   
    44   22   48 1   
    45   23   24 ar  
    46   23   28 ar  
    47   24   25 ar  
    48   24   49 1   
    49   25   26 ar  
    50   25   50 1   
    51   26   27 ar  
    52   26   51 1   
    53   27   28 ar  
    54   27   52 1   
    55   28   53 1   
@<TRIPOS>SUBSTRUCTURE
     1 VPU         1 TEMP              0 ****  ****    0 ROOT
