@<TRIPOS>MOLECULE
VPU
   53    54     1     0     0
SMALL
bcc


@<TRIPOS>ATOM
      1 C3          1.5560    6.6820   -1.4700 c3        1 VPU     -0.092100
      2 C2          0.9340    5.8230   -0.3990 c3        1 VPU     -0.080400
      3 C1          0.3140    4.5740   -0.9880 c3        1 VPU     -0.075400
      4 CAH        -0.3060    3.7160    0.0940 c3        1 VPU     -0.148400
      5 CAG        -0.9460    2.4750   -0.4980 c         1 VPU      0.669100
      6 OAN        -1.0250    2.2750   -1.7240 o         1 VPU     -0.598100
      7 NAI        -1.4420    1.5470    0.4070 n         1 VPU     -0.559900
      8 CAB        -2.1670    0.3850   -0.0090 c3        1 VPU      0.078400
      9 CAC        -3.4580    0.1450    0.8230 c3        1 VPU      0.131100
     10 OAJ        -4.2630    1.3030    0.7090 oh        1 VPU     -0.590800
     11 CAD        -4.1950   -1.0810    0.2540 c3        1 VPU      0.084100
     12 OAK        -5.3150   -1.2750    1.1000 oh        1 VPU     -0.610800
     13 CAE        -3.2790   -2.3090    0.2680 c3        1 VPU      0.076100
     14 CAF        -3.9000   -3.4940   -0.4830 c3        1 VPU      0.124400
     15 OAM        -5.0400   -3.9620    0.2080 oh        1 VPU     -0.602800
     16 OAL        -2.0480   -2.0430   -0.4170 os        1 VPU     -0.426400
     17 CAA        -1.3670   -0.9230    0.0600 c2        1 VPU      0.538600
     18 NAY        -0.1210   -0.9930    0.4480 n2        1 VPU     -0.463200
     19 OAQ         0.4100   -2.2050    0.4990 os        1 VPU     -0.173600
     20 CAP         1.8230   -2.3340    0.5900 c         1 VPU      0.766100
     21 OAR         2.0930   -3.4900    0.9350 o         1 VPU     -0.514000
     22 NAO         2.6540   -1.2830    0.2730 n         1 VPU     -0.457100
     23 CAS         4.0600   -1.3240    0.3150 ca        1 VPU      0.071600
     24 CAT         4.7870   -2.4680    0.7040 ca        1 VPU     -0.168000
     25 CAU         6.1790   -2.4330    0.7220 ca        1 VPU     -0.102500
     26 CAV         6.8710   -1.2800    0.3590 ca        1 VPU     -0.154000
     27 CAW         6.1590   -0.1450   -0.0280 ca        1 VPU     -0.102500
     28 CAX         4.7690   -0.1540   -0.0530 ca        1 VPU     -0.168000
     29 H3          2.3580    6.1220   -2.0080 hc        1 VPU      0.035700
     30 H3A         0.7880    6.9970   -2.2170 hc        1 VPU      0.035700
     31 H3B         2.0060    7.5990   -1.0180 hc        1 VPU      0.035700
     32 H2          1.7140    5.5370    0.3550 hc        1 VPU      0.037200
     33 H2A         0.1480    6.4110    0.1460 hc        1 VPU      0.037200
     34 H1         -0.4710    4.8510   -1.7400 hc        1 VPU      0.059700
     35 H1A         1.0920    3.9810   -1.5360 hc        1 VPU      0.059700
     36 HAH         0.4780    3.4170    0.8400 hc        1 VPU      0.065700
     37 HAHA       -1.0940    4.3000    0.6400 hc        1 VPU      0.065700
     38 HNAI       -1.4110    1.7430    1.3770 hn        1 VPU      0.318500
     39 HAB        -2.4550    0.5130   -1.1010 h1        1 VPU      0.126700
     40 HAC        -3.2080   -0.0350    1.9060 h1        1 VPU      0.056700
     41 HOAJ       -5.1210    1.0780    1.0990 ho        1 VPU      0.429000
     42 HAD        -4.5380   -0.8640   -0.7970 h1        1 VPU      0.068700
     43 HOAK       -5.8120   -2.0290    0.7480 ho        1 VPU      0.437000
     44 HAE        -3.0550   -2.5990    1.3320 h1        1 VPU      0.065700
     45 HAF        -4.2790   -3.1730   -1.4900 h1        1 VPU      0.073200
     46 HAFA       -3.1350   -4.3040   -0.6100 h1        1 VPU      0.073200
     47 HOAM       -4.7350   -4.3950    1.0150 ho        1 VPU      0.411000
     48 HNAO        2.2460   -0.4160   -0.0010 hn        1 VPU      0.345500
     49 HAT         4.2660   -3.3960    0.9950 ha        1 VPU      0.153000
     50 HAU         6.7330   -3.3340    1.0270 ha        1 VPU      0.135500
     51 HAV         7.9700   -1.2640    0.3760 ha        1 VPU      0.135000
     52 HAW         6.6980    0.7700   -0.3180 ha        1 VPU      0.135500
     53 HAX         4.2310    0.7530   -0.3650 ha        1 VPU      0.153000
@<TRIPOS>BOND
     1    1    2 1   
     2    1   29 1   
     3    1   30 1   
     4    1   31 1   
     5    2    3 1   
     6    2   32 1   
     7    2   33 1   
     8    3    4 1   
     9    3   34 1   
    10    3   35 1   
    11    4    5 1   
    12    4   36 1   
    13    4   37 1   
    14    5    6 2   
    15    5    7 1   
    16    7    8 1   
    17    7   38 1   
    18    8    9 1   
    19    8   17 1   
    20    8   39 1   
    21    9   10 1   
    22    9   11 1   
    23    9   40 1   
    24   10   41 1   
    25   11   12 1   
    26   11   13 1   
    27   11   42 1   
    28   12   43 1   
    29   13   14 1   
    30   13   16 1   
    31   13   44 1   
    32   14   15 1   
    33   14   45 1   
    34   14   46 1   
    35   15   47 1   
    36   16   17 1   
    37   17   18 2   
    38   18   19 1   
    39   19   20 1   
    40   20   21 2   
    41   20   22 1   
    42   22   23 1   
    43   22   48 1   
    44   23   24 ar  
    45   23   28 ar  
    46   24   25 ar  
    47   24   49 1   
    48   25   26 ar  
    49   25   50 1   
    50   26   27 ar  
    51   26   51 1   
    52   27   28 ar  
    53   27   52 1   
    54   28   53 1   
@<TRIPOS>SUBSTRUCTURE
     1 VPU         1 TEMP              0 ****  ****    0 ROOT
