@<TRIPOS>MOLECULE
VPX
   70    74     1     0     0
SMALL
bcc


@<TRIPOS>ATOM
      1 CAA         0.9970   -2.1230    0.3090 c3        1 VPX     -0.117100
      2 CAO         2.0100   -1.0350    0.0830 c3        1 VPX      0.158400
      3 OAV         2.4820   -0.6800    1.4300 os        1 VPX     -0.409900
      4 CAX         3.4000    0.3010    1.4840 c         1 VPX      0.614100
      5 OAC         3.8690    0.9030    0.5280 o         1 VPX     -0.422000
      6 NAU         3.7870    0.5930    2.8960 n4        1 VPX     -0.642800
      7 CBE         5.2780    0.4080    3.1140 c3        1 VPX      0.131500
      8 CAR         5.7120    1.0890    4.4130 c3        1 VPX     -0.103400
      9 CAP         5.6520   -1.0760    3.1470 c3        1 VPX     -0.097400
     10 CAQ         7.1550   -1.1990    3.2970 c3        1 VPX     -0.080400
     11 CBI         7.6520   -0.5120    4.5600 c3        1 VPX     -0.064700
     12 CBG         7.2230    0.9530    4.5830 c3        1 VPX     -0.053700
     13 CAS         7.6200    1.5870    5.9040 c3        1 VPX     -0.068400
     14 CBH         9.1030    1.4560    6.2060 c3        1 VPX     -0.149700
     15 CAY         9.2640    1.5190    7.7170 c         1 VPX      0.709600
     16 OAD         9.1500    2.4470    8.5050 o         1 VPX     -0.547500
     17 OAW         9.5550    0.2820    8.2440 os        1 VPX     -0.400900
     18 CBD         9.7080   -0.6930    7.1770 c3        1 VPX      0.142100
     19 CAB        10.9690   -1.4770    7.4560 c3        1 VPX     -0.108100
     20 CBJ         9.7530    0.1080    5.8560 c3        1 VPX     -0.092700
     21 CBF         9.1790   -0.5920    4.6330 c3        1 VPX     -0.011500
     22 CAG         9.6170   -2.0180    4.5780 c2        1 VPX     -0.162200
     23 CAF        10.5690   -2.4570    3.7450 ce        1 VPX     -0.212800
     24 CBA        11.0080   -3.8530    3.6550 ca        1 VPX      0.431100
     25 CAK        12.2800   -4.1190    3.1000 ca        1 VPX     -0.225300
     26 CAL        12.7200   -5.4380    3.0030 ca        1 VPX     -0.081000
     27 NAT        10.1900   -4.8500    4.0930 nb        1 VPX     -0.671000
     28 CAM        10.6280   -6.1110    3.9880 ca        1 VPX      0.409200
     29 CBB        11.8880   -6.4730    3.4500 cp        1 VPX     -0.134300
     30 CBC        12.2910   -7.8710    3.3700 cp        1 VPX     -0.023000
     31 CAN        11.3510   -8.8510    3.0290 ca        1 VPX     -0.157000
     32 CAZ        11.7470  -10.1980    2.9540 ca        1 VPX      0.129900
     33 FAE        10.8370  -11.1440    2.6200 f         1 VPX     -0.134900
     34 CAI        13.0780  -10.5670    3.2210 ca        1 VPX     -0.152000
     35 CAH        14.0000   -9.5810    3.5610 ca        1 VPX     -0.101000
     36 CAJ        13.6170   -8.2430    3.6340 ca        1 VPX     -0.130000
     37 H1          1.4610   -3.0060    0.8110 hc        1 VPX      0.075367
     38 H2          0.1500   -1.7590    0.9390 hc        1 VPX      0.075367
     39 H3          0.5980   -2.4400   -0.6880 hc        1 VPX      0.075367
     40 H4          2.8990   -1.3770   -0.5060 h1        1 VPX      0.080700
     41 H5          1.5690   -0.1120   -0.3750 h1        1 VPX      0.080700
     42 H6          3.2660   -0.0270    3.5300 hn        1 VPX      0.472300
     43 H7          5.7850    0.9100    2.2340 hx        1 VPX      0.124700
     44 H8          5.1970    0.6160    5.2910 hc        1 VPX      0.068200
     45 H9          5.4480    2.1800    4.3960 hc        1 VPX      0.068200
     46 H10         5.3280   -1.5810    2.1990 hc        1 VPX      0.067700
     47 H11         5.1440   -1.5870    4.0070 hc        1 VPX      0.067700
     48 H12         7.6630   -0.7590    2.3980 hc        1 VPX      0.078200
     49 H13         7.4260   -2.2890    3.3360 hc        1 VPX      0.078200
     50 H14         7.2160   -1.0350    5.4570 hc        1 VPX      0.067700
     51 H15         7.7340    1.4970    3.7400 hc        1 VPX      0.067700
     52 H16         7.3520    2.6770    5.8970 hc        1 VPX      0.063200
     53 H17         7.0280    1.1040    6.7290 hc        1 VPX      0.063200
     54 H18         9.6660    2.2950    5.7220 hc        1 VPX      0.098700
     55 H19         8.8000   -1.3520    7.2220 h1        1 VPX      0.061700
     56 H20        11.8580   -0.8020    7.4830 hc        1 VPX      0.060033
     57 H21        11.1130   -2.2460    6.6590 hc        1 VPX      0.060033
     58 H22        10.8860   -1.9850    8.4480 hc        1 VPX      0.060033
     59 H23        10.8410    0.3070    5.6280 hc        1 VPX      0.080700
     60 H24         9.5840   -0.0450    3.7290 hc        1 VPX      0.057700
     61 H25         9.0970   -2.6970    5.2750 ha        1 VPX      0.149000
     62 H27        11.1010   -1.7690    3.0650 ha        1 VPX      0.131000
     63 H29        12.9160   -3.2920    2.7520 ha        1 VPX      0.147000
     64 H30        13.7070   -5.6650    2.5720 ha        1 VPX      0.152000
     65 H31         9.9370   -6.8900    4.3630 h4        1 VPX      0.031100
     66 H32        10.3090   -8.5800    2.8080 ha        1 VPX      0.148000
     67 H33        13.3740  -11.6250    3.1610 ha        1 VPX      0.157000
     68 H34        15.0430   -9.8630    3.7740 ha        1 VPX      0.147000
     69 H35        14.3560   -7.4760    3.9110 ha        1 VPX      0.140000
     70 HAU2        3.5400    1.5700    3.1000 hn        1 VPX      0.472300
@<TRIPOS>BOND
     1    1    2 1   
     2    1   37 1   
     3    1   38 1   
     4    1   39 1   
     5    2    3 1   
     6    2   40 1   
     7    2   41 1   
     8    3    4 1   
     9    4    5 2   
    10    4    6 1   
    11    6    7 1   
    12    6   42 1   
    13    6   70 1   
    14    7    8 1   
    15    7    9 1   
    16    7   43 1   
    17    8   12 1   
    18    8   44 1   
    19    8   45 1   
    20    9   10 1   
    21    9   46 1   
    22    9   47 1   
    23   10   11 1   
    24   10   48 1   
    25   10   49 1   
    26   11   12 1   
    27   11   21 1   
    28   11   50 1   
    29   12   13 1   
    30   12   51 1   
    31   13   14 1   
    32   13   52 1   
    33   13   53 1   
    34   14   15 1   
    35   14   20 1   
    36   14   54 1   
    37   15   16 2   
    38   15   17 1   
    39   17   18 1   
    40   18   19 1   
    41   18   20 1   
    42   18   55 1   
    43   19   56 1   
    44   19   57 1   
    45   19   58 1   
    46   20   21 1   
    47   20   59 1   
    48   21   22 1   
    49   21   60 1   
    50   22   23 2   
    51   22   61 1   
    52   23   24 1   
    53   23   62 1   
    54   24   25 ar  
    55   24   27 ar  
    56   25   26 ar  
    57   25   63 1   
    58   26   29 ar  
    59   26   64 1   
    60   27   28 ar  
    61   28   29 ar  
    62   28   65 1   
    63   29   30 1   
    64   30   31 ar  
    65   30   36 ar  
    66   31   32 ar  
    67   31   66 1   
    68   32   33 1   
    69   32   34 ar  
    70   34   35 ar  
    71   34   67 1   
    72   35   36 ar  
    73   35   68 1   
    74   36   69 1   
@<TRIPOS>SUBSTRUCTURE
     1 VPX         1 TEMP              0 ****  ****    0 ROOT
