@<TRIPOS>MOLECULE
VPX
   70    74     1     0     0
SMALL
bcc


@<TRIPOS>ATOM
      1 CAA         1.8720   -0.3410   -0.0400 c3        1 VPX     -0.117100
      2 CAO         3.0010   -1.3230   -0.1930 c3        1 VPX      0.157400
      3 OAV         3.4840   -1.5510    1.1770 os        1 VPX     -0.408900
      4 CAX         4.4960   -2.4280    1.2960 c         1 VPX      0.613100
      5 OAC         5.0410   -3.0280    0.3790 o         1 VPX     -0.423000
      6 NAU         4.8940   -2.6020    2.7230 n4        1 VPX     -0.642800
      7 CBE         6.0050   -1.6400    3.1100 c3        1 VPX      0.136500
      8 CAR         6.1050   -1.5290    4.6320 c3        1 VPX     -0.103400
      9 CAP         7.3490   -2.0800    2.5270 c3        1 VPX     -0.101400
     10 CAQ         8.4070   -1.0620    2.9000 c3        1 VPX     -0.081400
     11 CBI         8.5370   -0.9030    4.4100 c3        1 VPX     -0.066700
     12 CBG         7.1800   -0.5100    4.9990 c3        1 VPX     -0.053700
     13 CAS         7.2730   -0.4300    6.5110 c3        1 VPX     -0.069400
     14 CBH         8.3070    0.5810    6.9660 c3        1 VPX     -0.150700
     15 CAY         8.7030    0.2220    8.3890 c         1 VPX      0.710600
     16 OAD         8.0960    0.3280    9.4450 o         1 VPX     -0.552500
     17 OAW         9.9540   -0.3440    8.4330 os        1 VPX     -0.398900
     18 CBD        10.5490   -0.3520    7.1050 c3        1 VPX      0.135100
     19 CAB        11.9610    0.1670    7.2470 c3        1 VPX     -0.103100
     20 CBJ         9.6480    0.5380    6.2190 c3        1 VPX     -0.089700
     21 CBF         9.5660    0.1740    4.7380 c3        1 VPX      0.001500
     22 CAG        10.9410   -0.0350    4.2040 c2        1 VPX     -0.142200
     23 CAF        11.6310   -1.1030    3.8040 ce        1 VPX     -0.226800
     24 CBA        11.2830   -2.5290    3.7440 ca        1 VPX      0.443100
     25 CAK        11.3380   -3.1600    2.4780 ca        1 VPX     -0.247300
     26 CAL        11.1030   -4.5300    2.3890 ca        1 VPX     -0.085000
     27 NAT        11.0160   -3.2200    4.8820 nb        1 VPX     -0.664000
     28 CAM        10.7980   -4.5400    4.7770 ca        1 VPX      0.405200
     29 CBB        10.8200   -5.2540    3.5550 cp        1 VPX     -0.148300
     30 CBC        10.5600   -6.6880    3.5220 cp        1 VPX     -0.023000
     31 CAN         9.5700   -7.2370    4.3470 ca        1 VPX     -0.167000
     32 CAZ         9.3170   -8.6180    4.3060 ca        1 VPX      0.128900
     33 FAE         8.3500   -9.1430    5.0950 f         1 VPX     -0.135900
     34 CAI        10.0570   -9.4550    3.4490 ca        1 VPX     -0.150000
     35 CAH        11.0420   -8.8960    2.6410 ca        1 VPX     -0.097000
     36 CAJ        11.2940   -7.5250    2.6690 ca        1 VPX     -0.128000
     37 H1          2.2280    0.6130    0.4180 hc        1 VPX      0.075033
     38 H2          1.4580   -0.1250   -1.0570 hc        1 VPX      0.075033
     39 H3          1.0580   -0.7610    0.6000 hc        1 VPX      0.075033
     40 H4          3.8580   -0.9170   -0.7890 h1        1 VPX      0.080200
     41 H5          2.6710   -2.3110   -0.6050 h1        1 VPX      0.080200
     42 H6          5.2220   -3.5680    2.8520 hn        1 VPX      0.472800
     43 H7          5.7080   -0.6360    2.6780 hx        1 VPX      0.112700
     44 H8          5.1270   -1.1980    5.0710 hc        1 VPX      0.069200
     45 H9          6.3710   -2.5240    5.0780 hc        1 VPX      0.069200
     46 H10         7.6370   -3.0860    2.9360 hc        1 VPX      0.073200
     47 H11         7.2820   -2.1650    1.4100 hc        1 VPX      0.073200
     48 H12         9.3920   -1.4020    2.4770 hc        1 VPX      0.071700
     49 H13         8.1620   -0.0720    2.4320 hc        1 VPX      0.071700
     50 H14         8.8540   -1.8790    4.8660 hc        1 VPX      0.084700
     51 H15         6.8810    0.4960    4.5920 hc        1 VPX      0.063700
     52 H16         6.2770   -0.1460    6.9430 hc        1 VPX      0.064700
     53 H17         7.5370   -1.4450    6.9160 hc        1 VPX      0.064700
     54 H18         7.8740    1.6150    6.9330 hc        1 VPX      0.095700
     55 H19        10.5360   -1.4200    6.7620 h1        1 VPX      0.092700
     56 H20        11.9670    1.2120    7.6400 hc        1 VPX      0.056367
     57 H21        12.5270   -0.4790    7.9620 hc        1 VPX      0.056367
     58 H22        12.4670    0.1410    6.2520 hc        1 VPX      0.056367
     59 H23        10.0840    1.5810    6.2560 hc        1 VPX      0.074700
     60 H24         9.1840    1.1130    4.2210 hc        1 VPX      0.052700
     61 H25        11.4780    0.9370    4.1430 ha        1 VPX      0.131000
     62 H27        12.6660   -0.9370    3.4340 ha        1 VPX      0.147000
     63 H29        11.5820   -2.5720    1.5820 ha        1 VPX      0.151000
     64 H30        11.1450   -5.0400    1.4140 ha        1 VPX      0.150000
     65 H31        10.6110   -5.0690    5.7320 h4        1 VPX      0.037100
     66 H32         8.9910   -6.6010    5.0310 ha        1 VPX      0.141000
     67 H33         9.8550  -10.5360    3.4330 ha        1 VPX      0.161000
     68 H34        11.6310   -9.5450    1.9750 ha        1 VPX      0.150000
     69 H35        12.0830   -7.0990    2.0310 ha        1 VPX      0.144000
     70 HAU2        4.0790   -2.4300    3.3270 hn        1 VPX      0.472800
@<TRIPOS>BOND
     1    1    2 1   
     2    1   37 1   
     3    1   38 1   
     4    1   39 1   
     5    2    3 1   
     6    2   40 1   
     7    2   41 1   
     8    3    4 1   
     9    4    5 2   
    10    4    6 1   
    11    6    7 1   
    12    6   42 1   
    13    6   70 1   
    14    7    8 1   
    15    7    9 1   
    16    7   43 1   
    17    8   12 1   
    18    8   44 1   
    19    8   45 1   
    20    9   10 1   
    21    9   46 1   
    22    9   47 1   
    23   10   11 1   
    24   10   48 1   
    25   10   49 1   
    26   11   12 1   
    27   11   21 1   
    28   11   50 1   
    29   12   13 1   
    30   12   51 1   
    31   13   14 1   
    32   13   52 1   
    33   13   53 1   
    34   14   15 1   
    35   14   20 1   
    36   14   54 1   
    37   15   16 2   
    38   15   17 1   
    39   17   18 1   
    40   18   19 1   
    41   18   20 1   
    42   18   55 1   
    43   19   56 1   
    44   19   57 1   
    45   19   58 1   
    46   20   21 1   
    47   20   59 1   
    48   21   22 1   
    49   21   60 1   
    50   22   23 2   
    51   22   61 1   
    52   23   24 1   
    53   23   62 1   
    54   24   25 ar  
    55   24   27 ar  
    56   25   26 ar  
    57   25   63 1   
    58   26   29 ar  
    59   26   64 1   
    60   27   28 ar  
    61   28   29 ar  
    62   28   65 1   
    63   29   30 1   
    64   30   31 ar  
    65   30   36 ar  
    66   31   32 ar  
    67   31   66 1   
    68   32   33 1   
    69   32   34 ar  
    70   34   35 ar  
    71   34   67 1   
    72   35   36 ar  
    73   35   68 1   
    74   36   69 1   
@<TRIPOS>SUBSTRUCTURE
     1 VPX         1 TEMP              0 ****  ****    0 ROOT
