@<TRIPOS>MOLECULE
VPX
   69    73     1     0     0
SMALL
bcc


@<TRIPOS>ATOM
      1 CAA         8.3860    5.4220    0.9270 c3        1 VPX     -0.102100
      2 CAO         7.5760    4.6760   -0.1050 c3        1 VPX      0.151400
      3 OAV         6.8830    3.6370    0.6130 os        1 VPX     -0.450900
      4 CAX         6.1020    2.8090   -0.1690 c         1 VPX      0.731100
      5 OAC         5.9830    3.0660   -1.3790 o         1 VPX     -0.588000
      6 NAU         5.5930    1.7350    0.5360 n         1 VPX     -0.525900
      7 CBE         4.4870    0.9770   -0.0190 c3        1 VPX      0.097700
      8 CAR         4.6050   -0.5120    0.3450 c3        1 VPX     -0.079400
      9 CAP         3.1090    1.4860    0.4370 c3        1 VPX     -0.105400
     10 CAQ         2.0140    0.6990   -0.2460 c3        1 VPX     -0.073400
     11 CBI         2.1210   -0.7900    0.0490 c3        1 VPX     -0.057700
     12 CBG         3.5040   -1.3130   -0.3340 c3        1 VPX     -0.057700
     13 CAS         3.6320   -2.7710    0.0670 c3        1 VPX     -0.069400
     14 CBH         2.5530   -3.6530   -0.5370 c3        1 VPX     -0.144700
     15 CAY         2.4030   -4.8760    0.3490 c         1 VPX      0.712600
     16 OAD         3.1070   -5.8640    0.5090 o         1 VPX     -0.566500
     17 OAW         1.2570   -4.8060    1.1120 os        1 VPX     -0.412900
     18 CBD         0.4990   -3.6170    0.7610 c3        1 VPX      0.139100
     19 CAB        -0.9460   -4.0320    0.6090 c3        1 VPX     -0.107100
     20 CBJ         1.1310   -3.0670   -0.5370 c3        1 VPX     -0.085700
     21 CBF         1.0530   -1.5590   -0.7330 c3        1 VPX     -0.022500
     22 CAG        -0.3090   -1.0570   -0.3860 c2        1 VPX     -0.120200
     23 CAF        -1.2090   -0.7030   -1.3120 ce        1 VPX     -0.247800
     24 CBA        -2.5560   -0.2050   -1.0240 ca        1 VPX      0.458100
     25 CAK        -3.3220    0.3010   -2.1010 ca        1 VPX     -0.237300
     26 CAL        -4.6070    0.7830   -1.8610 ca        1 VPX     -0.080000
     27 NAT        -3.0430   -0.2380    0.2470 nb        1 VPX     -0.669000
     28 CAM        -4.2810    0.2300    0.4580 ca        1 VPX      0.415200
     29 CBB        -5.1170    0.7560   -0.5560 cp        1 VPX     -0.157300
     30 CBC        -6.4530    1.2460   -0.2440 cp        1 VPX     -0.009000
     31 CAN        -6.6820    1.9530    0.9420 ca        1 VPX     -0.157000
     32 CAZ        -7.9750    2.4210    1.2340 ca        1 VPX      0.127900
     33 FAE        -8.1950    3.1070    2.3820 f         1 VPX     -0.138900
     34 CAI        -9.0390    2.1840    0.3450 ca        1 VPX     -0.161000
     35 CAH        -8.7960    1.4800   -0.8300 ca        1 VPX     -0.104000
     36 CAJ        -7.5170    1.0140   -1.1280 ca        1 VPX     -0.134000
     37 H1          8.9460    6.2450    0.4220 hc        1 VPX      0.048700
     38 H2          7.7210    5.8580    1.7100 hc        1 VPX      0.048700
     39 H3          9.1130    4.7370    1.4270 hc        1 VPX      0.048700
     40 H4          6.8170    5.3340   -0.6030 h1        1 VPX      0.054200
     41 H5          8.2230    4.2030   -0.8880 h1        1 VPX      0.054200
     42 H6          5.6660    1.7700    1.5270 hn        1 VPX      0.315500
     43 H7          4.5460    1.0770   -1.1460 h1        1 VPX      0.090700
     44 H8          5.6020   -0.9080    0.0190 hc        1 VPX      0.053200
     45 H9          4.5330   -0.6390    1.4570 hc        1 VPX      0.053200
     46 H10         3.0130    1.3870    1.5500 hc        1 VPX      0.049700
     47 H11         2.9990    2.5720    0.1800 hc        1 VPX      0.049700
     48 H12         1.0150    1.0730    0.1030 hc        1 VPX      0.051200
     49 H13         2.0680    0.8660   -1.3540 hc        1 VPX      0.051200
     50 H14         1.9610   -0.9560    1.1510 hc        1 VPX      0.057700
     51 H15         3.6270   -1.2230   -1.4500 hc        1 VPX      0.057700
     52 H16         4.6350   -3.1630   -0.2490 hc        1 VPX      0.059200
     53 H17         3.5870   -2.8420    1.1880 hc        1 VPX      0.059200
     54 H18         2.8470   -3.9570   -1.5750 hc        1 VPX      0.090700
     55 H19         0.6290   -2.8960    1.6120 h1        1 VPX      0.066700
     56 H20        -1.0570   -4.7930   -0.2000 hc        1 VPX      0.055700
     57 H21        -1.3110   -4.4810    1.5650 hc        1 VPX      0.055700
     58 H22        -1.5670   -3.1380    0.3620 hc        1 VPX      0.055700
     59 H23         0.5730   -3.5320   -1.4000 hc        1 VPX      0.066700
     60 H24         1.2500   -1.3700   -1.8310 hc        1 VPX      0.057700
     61 H25        -0.5240   -0.9930    0.6950 ha        1 VPX      0.148000
     62 H27        -0.9720   -0.7660   -2.3890 ha        1 VPX      0.129000
     63 H29        -2.9020    0.3160   -3.1160 ha        1 VPX      0.145000
     64 H30        -5.2130    1.1870   -2.6860 ha        1 VPX      0.144000
     65 H31        -4.6370    0.1760    1.5040 h4        1 VPX      0.028100
     66 H32        -5.8600    2.1540    1.6450 ha        1 VPX      0.152000
     67 H33       -10.0450    2.5560    0.5860 ha        1 VPX      0.151000
     68 H34        -9.6240    1.2890   -1.5300 ha        1 VPX      0.140000
     69 H35        -7.3410    0.4520   -2.0580 ha        1 VPX      0.139000
@<TRIPOS>BOND
     1    1    2 1   
     2    1   37 1   
     3    1   38 1   
     4    1   39 1   
     5    2    3 1   
     6    2   40 1   
     7    2   41 1   
     8    3    4 1   
     9    4    5 2   
    10    4    6 1   
    11    6    7 1   
    12    6   42 1   
    13    7    8 1   
    14    7    9 1   
    15    7   43 1   
    16    8   12 1   
    17    8   44 1   
    18    8   45 1   
    19    9   10 1   
    20    9   46 1   
    21    9   47 1   
    22   10   11 1   
    23   10   48 1   
    24   10   49 1   
    25   11   12 1   
    26   11   21 1   
    27   11   50 1   
    28   12   13 1   
    29   12   51 1   
    30   13   14 1   
    31   13   52 1   
    32   13   53 1   
    33   14   15 1   
    34   14   20 1   
    35   14   54 1   
    36   15   16 2   
    37   15   17 1   
    38   17   18 1   
    39   18   19 1   
    40   18   20 1   
    41   18   55 1   
    42   19   56 1   
    43   19   57 1   
    44   19   58 1   
    45   20   21 1   
    46   20   59 1   
    47   21   22 1   
    48   21   60 1   
    49   22   23 2   
    50   22   61 1   
    51   23   24 1   
    52   23   62 1   
    53   24   25 ar  
    54   24   27 ar  
    55   25   26 ar  
    56   25   63 1   
    57   26   29 ar  
    58   26   64 1   
    59   27   28 ar  
    60   28   29 ar  
    61   28   65 1   
    62   29   30 1   
    63   30   31 ar  
    64   30   36 ar  
    65   31   32 ar  
    66   31   66 1   
    67   32   33 1   
    68   32   34 ar  
    69   34   35 ar  
    70   34   67 1   
    71   35   36 ar  
    72   35   68 1   
    73   36   69 1   
@<TRIPOS>SUBSTRUCTURE
     1 VPX         1 TEMP              0 ****  ****    0 ROOT
