@<TRIPOS>MOLECULE
VPX
   70    74     1     0     0
SMALL
bcc


@<TRIPOS>ATOM
      1 CAA         0.9810   -2.1370    0.3630 c3        1 VPX     -0.117100
      2 CAO         1.9900   -1.0470    0.1230 c3        1 VPX      0.158400
      3 OAV         2.4710   -0.6840    1.4650 os        1 VPX     -0.409900
      4 CAX         3.3880    0.2980    1.5060 c         1 VPX      0.614100
      5 OAC         3.8490    0.8950    0.5430 o         1 VPX     -0.422000
      6 NAU         3.7860    0.5990    2.9130 ny        1 VPX     -0.642800
      7 CBE         5.2790    0.4110    3.1220 c3        1 VPX      0.131500
      8 CAR         5.7240    1.0990    4.4130 c3        1 VPX     -0.103400
      9 CAP         5.6500   -1.0730    3.1600 c3        1 VPX     -0.097400
     10 CAQ         7.1540   -1.1990    3.3000 c3        1 VPX     -0.080400
     11 CBI         7.6620   -0.5050    4.5550 c3        1 VPX     -0.064700
     12 CBG         7.2360    0.9610    4.5730 c3        1 VPX     -0.053700
     13 CAS         7.6440    1.6020    5.8860 c3        1 VPX     -0.068400
     14 CBH         9.1290    1.4690    6.1790 c3        1 VPX     -0.149700
     15 CAY         9.3020    1.5400    7.6880 c         1 VPX      0.709600
     16 OAD         9.1950    2.4730    8.4710 o         1 VPX     -0.547500
     17 OAW         9.5950    0.3050    8.2190 os        1 VPX     -0.400900
     18 CBD         9.7380   -0.6750    7.1570 c3        1 VPX      0.142100
     19 CAB        10.9990   -1.4610    7.4310 c3        1 VPX     -0.108100
     20 CBJ         9.7740    0.1180    5.8310 c3        1 VPX     -0.092700
     21 CBF         9.1890   -0.5890    4.6170 c3        1 VPX     -0.011500
     22 CAG         9.6230   -2.0160    4.5670 c2        1 VPX     -0.162200
     23 CAF        10.5680   -2.4620    3.7290 ce        1 VPX     -0.212800
     24 CBA        11.0020   -3.8600    3.6430 ca        1 VPX      0.431100
     25 CAK        12.2690   -4.1320    3.0800 ca        1 VPX     -0.225300
     26 CAL        12.7040   -5.4540    2.9870 ca        1 VPX     -0.081000
     27 NAT        10.1840   -4.8510    4.0930 nb        1 VPX     -0.671000
     28 CAM        10.6180   -6.1140    3.9920 ca        1 VPX      0.409200
     29 CBB        11.8720   -6.4830    3.4460 cp        1 VPX     -0.134300
     30 CBC        12.2700   -7.8830    3.3700 cp        1 VPX     -0.023000
     31 CAN        11.3250   -8.8620    3.0410 ca        1 VPX     -0.157000
     32 CAZ        11.7160  -10.2100    2.9700 ca        1 VPX      0.129900
     33 FAE        10.8010  -11.1550    2.6490 f         1 VPX     -0.134900
     34 CAI        13.0480  -10.5820    3.2300 ca        1 VPX     -0.152000
     35 CAH        13.9760   -9.5980    3.5570 ca        1 VPX     -0.101000
     36 CAJ        13.5970   -8.2580    3.6270 ca        1 VPX     -0.130000
     37 H1          0.5740   -2.4590   -0.6290 hc        1 VPX      0.075367
     38 H2          0.1380   -1.7710    0.9980 hc        1 VPX      0.075367
     39 H3          1.4500   -3.0160    0.8660 hc        1 VPX      0.075367
     40 H4          2.8750   -1.3910   -0.4710 h1        1 VPX      0.080700
     41 H5          1.5430   -0.1280   -0.3360 h1        1 VPX      0.080700
     42 H6          3.5430    1.5770    3.1130 hn        1 VPX      0.472300
     43 H7          5.7810    0.9070    2.2350 hx        1 VPX      0.124700
     44 H8          5.2140    0.6320    5.2980 hc        1 VPX      0.068200
     45 H9          5.4620    2.1900    4.3920 hc        1 VPX      0.068200
     46 H10         5.1480   -1.5790    4.0270 hc        1 VPX      0.067700
     47 H11         5.3180   -1.5830    2.2170 hc        1 VPX      0.067700
     48 H12         7.6560   -0.7650    2.3950 hc        1 VPX      0.077700
     49 H13         7.4230   -2.2890    3.3430 hc        1 VPX      0.077700
     50 H14         7.2310   -1.0220    5.4580 hc        1 VPX      0.067700
     51 H15         7.7410    1.4990    3.7220 hc        1 VPX      0.067700
     52 H16         7.0570    1.1250    6.7190 hc        1 VPX      0.063200
     53 H17         7.3790    2.6920    5.8760 hc        1 VPX      0.063200
     54 H18         9.6900    2.3040    5.6850 hc        1 VPX      0.098700
     55 H19         8.8280   -1.3320    7.2130 h1        1 VPX      0.061700
     56 H20        10.9220   -1.9620    8.4270 hc        1 VPX      0.060033
     57 H21        11.8890   -0.7880    7.4480 hc        1 VPX      0.060033
     58 H22        11.1340   -2.2340    6.6370 hc        1 VPX      0.060033
     59 H23        10.8600    0.3140    5.5940 hc        1 VPX      0.080700
     60 H24         9.5890   -0.0470    3.7070 hc        1 VPX      0.057700
     61 H25         9.1070   -2.6890    5.2720 ha        1 VPX      0.149000
     62 H27        11.0960   -1.7790    3.0410 ha        1 VPX      0.131000
     63 H29        12.9040   -3.3100    2.7240 ha        1 VPX      0.147000
     64 H30        13.6870   -5.6860    2.5500 ha        1 VPX      0.152000
     65 H31         9.9270   -6.8890    4.3760 h4        1 VPX      0.031100
     66 H32        10.2810   -8.5880    2.8270 ha        1 VPX      0.148000
     67 H33        13.3410  -11.6410    3.1720 ha        1 VPX      0.157000
     68 H34        15.0190   -9.8820    3.7640 ha        1 VPX      0.147000
     69 H35        14.3410   -7.4920    3.8930 ha        1 VPX      0.140000
     70 HAU2        3.2690   -0.0170    3.5550 hn        1 VPX      0.472300
@<TRIPOS>BOND
     1    1    2 1   
     2    1   37 1   
     3    1   38 1   
     4    1   39 1   
     5    2    3 1   
     6    2   40 1   
     7    2   41 1   
     8    3    4 1   
     9    4    5 2   
    10    4    6 1   
    11    6    7 1   
    12    6   42 1   
    13    6   70 1   
    14    7    8 1   
    15    7    9 1   
    16    7   43 1   
    17    8   12 1   
    18    8   44 1   
    19    8   45 1   
    20    9   10 1   
    21    9   46 1   
    22    9   47 1   
    23   10   11 1   
    24   10   48 1   
    25   10   49 1   
    26   11   12 1   
    27   11   21 1   
    28   11   50 1   
    29   12   13 1   
    30   12   51 1   
    31   13   14 1   
    32   13   52 1   
    33   13   53 1   
    34   14   15 1   
    35   14   20 1   
    36   14   54 1   
    37   15   16 2   
    38   15   17 1   
    39   17   18 1   
    40   18   19 1   
    41   18   20 1   
    42   18   55 1   
    43   19   56 1   
    44   19   57 1   
    45   19   58 1   
    46   20   21 1   
    47   20   59 1   
    48   21   22 1   
    49   21   60 1   
    50   22   23 2   
    51   22   61 1   
    52   23   24 1   
    53   23   62 1   
    54   24   25 ar  
    55   24   27 ar  
    56   25   26 ar  
    57   25   63 1   
    58   26   29 ar  
    59   26   64 1   
    60   27   28 ar  
    61   28   29 ar  
    62   28   65 1   
    63   29   30 1   
    64   30   31 ar  
    65   30   36 ar  
    66   31   32 ar  
    67   31   66 1   
    68   32   33 1   
    69   32   34 ar  
    70   34   35 ar  
    71   34   67 1   
    72   35   36 ar  
    73   35   68 1   
    74   36   69 1   
@<TRIPOS>SUBSTRUCTURE
     1 VPX         1 TEMP              0 ****  ****    0 ROOT
