@<TRIPOS>MOLECULE
VR
   21    20     1     0     0
SMALL
bcc


@<TRIPOS>ATOM
      1 C4          3.4870   -0.8560    0.0100 c3        1 VR      -0.082100
      2 C3          2.4080    0.1480    0.3490 c3        1 VR      -0.075700
      3 C5          2.6800    1.4790   -0.3140 c3        1 VR      -0.082100
      4 C2          1.0390   -0.3920   -0.0700 c3        1 VR       0.173400
      5 O2          0.0270    0.3940    0.4800 os        1 VR      -0.587200
      6 P1         -1.4800   -0.1980    0.0520 p5        1 VR       1.337600
      7 C1         -2.4450    0.9190    0.8710 c3        1 VR      -0.363300
      8 O1         -1.5750   -1.5380    0.6770 o         1 VR      -0.868000
      9 O3         -1.5830   -0.0110   -1.4150 o         1 VR      -0.868000
     10 H41C        4.4910   -0.4640    0.3010 hc        1 VR       0.023033
     11 H42C        3.3090   -1.8170    0.5510 hc        1 VR       0.023033
     12 H43C        3.4950   -1.0670   -1.0870 hc        1 VR       0.023033
     13 H3          2.3860    0.3020    1.4640 hc        1 VR       0.047700
     14 H51C        1.8290    2.1740   -0.1090 hc        1 VR       0.023033
     15 H52C        3.6240    1.9290    0.0760 hc        1 VR       0.023033
     16 H53C        2.7750    1.3560   -1.4200 hc        1 VR       0.023033
     17 H21C        0.9380   -0.3820   -1.1920 h1        1 VR       0.028200
     18 H22C        0.9120   -1.4500    0.2960 h1        1 VR       0.028200
     19 H11C       -1.8260    1.6670    1.4160 hc        1 VR       0.057700
     20 H12C       -3.0980    1.4750    0.1630 hc        1 VR       0.057700
     21 H13C       -3.0940    0.4120    1.6170 hc        1 VR       0.057700
@<TRIPOS>BOND
     1    1    2 1   
     2    1   10 1   
     3    1   11 1   
     4    1   12 1   
     5    2    3 1   
     6    2    4 1   
     7    2   13 1   
     8    3   14 1   
     9    3   15 1   
    10    3   16 1   
    11    4    5 1   
    12    4   17 1   
    13    4   18 1   
    14    5    6 1   
    15    6    7 1   
    16    6    8 1   
    17    6    9 1   
    18    7   19 1   
    19    7   20 1   
    20    7   21 1   
@<TRIPOS>SUBSTRUCTURE
     1 VR          1 TEMP              0 ****  ****    0 ROOT
