@<TRIPOS>MOLECULE
VR
   21    20     1     0     0
SMALL
bcc


@<TRIPOS>ATOM
      1 C4          0.0940   -0.0690   -0.0440 c3        1 VR      -0.082100
      2 C3          1.6010   -0.0510    0.0900 c3        1 VR      -0.075700
      3 C5          2.0150   -0.1010    1.5430 c3        1 VR      -0.082100
      4 C2          2.2100   -1.2220   -0.6830 c3        1 VR       0.173400
      5 O2          3.5900   -1.0570   -0.7910 os        1 VR      -0.587200
      6 P1          4.2710   -2.3170   -1.6590 p5        1 VR       1.337600
      7 C1          5.8830   -1.8160   -1.6310 c3        1 VR      -0.363300
      8 O1          3.7070   -2.2130   -3.0260 o         1 VR      -0.868000
      9 O3          4.0800   -3.5280   -0.8250 o         1 VR      -0.868000
     10 H41C       -0.3220   -1.0270    0.3500 hc        1 VR       0.023033
     11 H42C       -0.3590    0.7760    0.5290 hc        1 VR       0.023033
     12 H43C       -0.2020    0.0280   -1.1170 hc        1 VR       0.023033
     13 H3          1.9990    0.9000   -0.3620 hc        1 VR       0.047700
     14 H51C        1.5820   -0.9990    2.0450 hc        1 VR       0.023033
     15 H52C        3.1290   -0.1650    1.6070 hc        1 VR       0.023033
     16 H53C        1.6670    0.8110    2.0850 hc        1 VR       0.023033
     17 H21C        1.7710   -1.2710   -1.7200 h1        1 VR       0.028200
     18 H22C        2.0010   -2.1950   -0.1550 h1        1 VR       0.028200
     19 H11C        6.0000   -0.8590   -1.0770 hc        1 VR       0.057700
     20 H12C        6.2670   -1.6570   -2.6630 hc        1 VR       0.057700
     21 H13C        6.5270   -2.5750   -1.1340 hc        1 VR       0.057700
@<TRIPOS>BOND
     1    1    2 1   
     2    1   10 1   
     3    1   11 1   
     4    1   12 1   
     5    2    3 1   
     6    2    4 1   
     7    2   13 1   
     8    3   14 1   
     9    3   15 1   
    10    3   16 1   
    11    4    5 1   
    12    4   17 1   
    13    4   18 1   
    14    5    6 1   
    15    6    7 1   
    16    6    8 1   
    17    6    9 1   
    18    7   19 1   
    19    7   20 1   
    20    7   21 1   
@<TRIPOS>SUBSTRUCTURE
     1 VR          1 TEMP              0 ****  ****    0 ROOT
