@<TRIPOS>MOLECULE
VR
   21    20     1     0     0
SMALL
bcc


@<TRIPOS>ATOM
      1 C4          0.0940   -0.0670   -0.0510 c3        1 VR      -0.082100
      2 C3          1.6010   -0.0450    0.0780 c3        1 VR      -0.075700
      3 C5          2.0200   -0.0710    1.5310 c3        1 VR      -0.082100
      4 C2          2.2090   -1.2270   -0.6780 c3        1 VR       0.173400
      5 O2          3.5890   -1.0610   -0.7930 os        1 VR      -0.587200
      6 P1          4.2690   -2.3350   -1.6410 p5        1 VR       1.337600
      7 C1          5.8800   -1.8310   -1.6280 c3        1 VR      -0.363300
      8 O1          3.7010   -2.2540   -3.0080 o         1 VR      -0.868000
      9 O3          4.0820   -3.5320   -0.7870 o         1 VR      -0.868000
     10 H41C       -0.3200   -1.0190    0.3600 hc        1 VR       0.023033
     11 H42C       -0.3580    0.7860    0.5100 hc        1 VR       0.023033
     12 H43C       -0.2060    0.0130   -1.1240 hc        1 VR       0.023033
     13 H3          1.9970    0.8990   -0.3900 hc        1 VR       0.047700
     14 H51C        1.5890   -0.9620    2.0490 hc        1 VR       0.023033
     15 H52C        3.1340   -0.1320    1.5930 hc        1 VR       0.023033
     16 H53C        1.6730    0.8490    2.0600 hc        1 VR       0.023033
     17 H21C        1.7680   -1.2930   -1.7130 h1        1 VR       0.028200
     18 H22C        2.0040   -2.1910   -0.1340 h1        1 VR       0.028200
     19 H11C        5.9970   -0.8630   -1.0920 hc        1 VR       0.057700
     20 H12C        6.2610   -1.6910   -2.6630 hc        1 VR       0.057700
     21 H13C        6.5260   -2.5790   -1.1180 hc        1 VR       0.057700
@<TRIPOS>BOND
     1    1    2 1   
     2    1   10 1   
     3    1   11 1   
     4    1   12 1   
     5    2    3 1   
     6    2    4 1   
     7    2   13 1   
     8    3   14 1   
     9    3   15 1   
    10    3   16 1   
    11    4    5 1   
    12    4   17 1   
    13    4   18 1   
    14    5    6 1   
    15    6    7 1   
    16    6    8 1   
    17    6    9 1   
    18    7   19 1   
    19    7   20 1   
    20    7   21 1   
@<TRIPOS>SUBSTRUCTURE
     1 VR          1 TEMP              0 ****  ****    0 ROOT
