@<TRIPOS>MOLECULE
VR
   21    20     1     0     0
SMALL
bcc


@<TRIPOS>ATOM
      1 C4         -2.4310    1.0790    0.5410 c3        1 VR      -0.082100
      2 C3         -0.9620    0.8650    0.8770 c3        1 VR      -0.075700
      3 C5         -0.8080    0.7050    2.3630 c3        1 VR      -0.082100
      4 C2         -0.4600   -0.3940    0.1730 c3        1 VR       0.173400
      5 O2          0.7660   -0.0980   -0.5300 os        1 VR      -0.587200
      6 P1          1.4370   -1.2510   -1.4120 p5        1 VR       1.337600
      7 C1          2.9580   -0.5860   -2.2570 c3        1 VR      -0.363300
      8 O1          1.8220   -2.4070   -0.5180 o         1 VR      -0.868000
      9 O3          0.4570   -1.7230   -2.4460 o         1 VR      -0.868000
     10 H41C       -2.9400    0.2870    0.7930 hc        1 VR       0.023033
     11 H42C       -2.5270    1.2350   -0.4220 hc        1 VR       0.023033
     12 H43C       -2.7740    1.8650    1.0400 hc        1 VR       0.023033
     13 H3         -0.4540    1.6170    0.5840 hc        1 VR       0.047700
     14 H51C        0.1370    0.5170    2.5790 hc        1 VR       0.023033
     15 H52C       -1.3710   -0.0420    2.6720 hc        1 VR       0.023033
     16 H53C       -1.0890    1.5370    2.8140 hc        1 VR       0.023033
     17 H21C       -0.2950   -1.0980    0.8380 h1        1 VR       0.028200
     18 H22C       -1.1420   -0.7040   -0.4710 h1        1 VR       0.028200
     19 H11C        2.7180    0.2080   -2.7900 hc        1 VR       0.057700
     20 H12C        3.3330   -1.2760   -2.8470 hc        1 VR       0.057700
     21 H13C        3.6240   -0.3370   -1.5810 hc        1 VR       0.057700
@<TRIPOS>BOND
     1    1    2 1   
     2    1   10 1   
     3    1   11 1   
     4    1   12 1   
     5    2    3 1   
     6    2    4 1   
     7    2   13 1   
     8    3   14 1   
     9    3   15 1   
    10    3   16 1   
    11    4    5 1   
    12    4   17 1   
    13    4   18 1   
    14    5    6 1   
    15    6    7 1   
    16    6    8 1   
    17    6    9 1   
    18    7   19 1   
    19    7   20 1   
    20    7   21 1   
@<TRIPOS>SUBSTRUCTURE
     1 VR          1 TEMP              0 ****  ****    0 ROOT
