@<TRIPOS>MOLECULE
VR0
   32    31     1     0     0
SMALL
bcc


@<TRIPOS>ATOM
      1 C1          5.8410    2.0450   -0.0870 c3        1 VR0      0.071300
      2 NH2         2.1790   -2.5850    0.7480 n2        1 VR0     -0.827100
      3 O1          3.5100    1.0150    0.9420 o         1 VR0     -0.624100
      4 O          -5.9020    0.4170    0.4300 o         1 VR0     -0.843800
      5 CG         -1.1000    0.1180   -0.1480 c3        1 VR0     -0.085400
      6 CD         -0.0670   -0.9540    0.2010 c3        1 VR0      0.182800
      7 CB         -2.4910   -0.3860    0.1680 c3        1 VR0     -0.063400
      8 NH3         5.2160    0.8690   -0.6130 n         1 VR0     -0.550900
      9 NE          1.2820   -0.5550   -0.1630 nh        1 VR0     -0.805200
     10 NH1         3.6850   -0.9780   -0.2460 n         1 VR0     -0.522400
     11 N          -3.5340    1.8510    0.5370 n3        1 VR0     -0.892800
     12 CZ          2.3520   -1.4240    0.1810 c2        1 VR0      0.639800
     13 C6          4.1000    0.3360    0.0690 c         1 VR0      0.737100
     14 C          -4.9550   -0.1190   -0.2130 c         1 VR0      0.888600
     15 CA         -3.5730    0.6160   -0.2370 c3        1 VR0      0.018500
     16 H5          6.3710    2.5660   -0.9280 h1        1 VR0      0.044367
     17 H4          5.0610    2.7290    0.3430 h1        1 VR0      0.044367
     18 H3          6.5870    1.8050    0.7190 h1        1 VR0      0.044367
     19 HH22        2.9930   -3.1520    0.8460 hn        1 VR0      0.393400
     20 HG2        -0.8920    1.0560    0.4310 hc        1 VR0      0.044200
     21 HG3        -1.0360    0.3760   -1.2380 hc        1 VR0      0.044200
     22 HD2        -0.1450   -1.1880    1.3020 h1        1 VR0      0.049700
     23 HD3        -0.3060   -1.9000   -0.3630 h1        1 VR0      0.049700
     24 HB2        -2.6960   -1.3370   -0.3950 hc        1 VR0      0.049700
     25 HB3        -2.5700   -0.6200    1.2620 hc        1 VR0      0.049700
     26 HH33        5.8300    0.2250   -1.0580 hn        1 VR0      0.290500
     27 HE          1.4750    0.4060    0.0570 hn        1 VR0      0.418800
     28 HH11        3.9250   -1.3150   -1.1550 hn        1 VR0      0.298500
     29 H2         -4.4040    2.3310    0.3710 hn        1 VR0      0.330800
     30 H          -3.5290    1.6140    1.5140 hn        1 VR0      0.330800
     31 OXT        -5.0520   -1.1990   -0.8600 o         1 VR0     -0.843800
     32 HA         -3.3930    0.9110   -1.3130 h1        1 VR0      0.040700
@<TRIPOS>BOND
     1    1    8 1   
     2    1   16 1   
     3    1   17 1   
     4    1   18 1   
     5    2   12 2   
     6    2   19 1   
     7    3   13 2   
     8    4   14 1   
     9    5    6 1   
    10    5    7 1   
    11    5   20 1   
    12    5   21 1   
    13    6    9 1   
    14    6   22 1   
    15    6   23 1   
    16    7   15 1   
    17    7   24 1   
    18    7   25 1   
    19    8   13 1   
    20    8   26 1   
    21    9   12 1   
    22    9   27 1   
    23   10   12 1   
    24   10   13 1   
    25   10   28 1   
    26   11   15 1   
    27   11   29 1   
    28   11   30 1   
    29   14   15 1   
    30   14   31 1   
    31   15   32 1   
@<TRIPOS>SUBSTRUCTURE
     1 VR0         1 TEMP              0 ****  ****    0 ROOT
