@<TRIPOS>MOLECULE
VR1
   57    60     1     0     0
SMALL
bcc


@<TRIPOS>ATOM
      1 C1         -0.1770   -0.0070   -0.2450 cc        1 VR1      0.288000
      2 C2          0.9750    0.7650   -0.2310 cd        1 VR1     -0.274300
      3 C3          1.3340    0.9510    1.1480 cd        1 VR1     -0.196300
      4 C4          0.3820    0.2820    1.9100 cc        1 VR1      0.244500
      5 O5         -0.5640   -0.3170    1.0590 os        1 VR1     -0.351800
      6 C6         -1.0330   -0.5310   -1.3230 c3        1 VR1     -0.120700
      7 C7         -0.7520   -1.9860   -1.6150 c3        1 VR1     -0.093100
      8 C8          0.2550    0.1390    3.3240 ce        1 VR1     -0.084800
      9 C9         -0.6850   -0.5250    4.0180 cd        1 VR1     -0.167600
     10 C10        -0.6250   -0.5470    5.5310 c         1 VR1      0.695700
     11 N11        -1.6970   -1.2830    6.1130 nc        1 VR1     -0.706100
     12 C12        -2.4860   -1.7910    5.1750 cd        1 VR1      0.681100
     13 S13        -2.0340   -1.4140    3.4870 ss        1 VR1     -0.129800
     14 O14         0.2560    0.0180    6.1860 o         1 VR1     -0.508100
     15 N15        -3.5590   -2.6280    5.3730 nh        1 VR1     -0.785200
     16 C16        -4.0830   -2.8590    6.7050 c3        1 VR1      0.210800
     17 C17        -4.9910   -4.1160    6.6890 c         1 VR1      0.697100
     18 O18        -5.7090   -4.3990    5.7160 o         1 VR1     -0.584100
     19 N19        -4.9980   -4.9080    7.8310 n         1 VR1     -0.663300
     20 S20        -5.7520   -6.3650    8.0770 sy        1 VR1      1.507900
     21 C21        -4.8910   -1.7150    7.2670 ca        1 VR1     -0.169300
     22 C22        -6.1860   -1.4580    6.8070 ca        1 VR1     -0.078000
     23 C23        -6.9210   -0.3960    7.3220 ca        1 VR1     -0.169500
     24 C24        -6.3470    0.4270    8.3100 ca        1 VR1      0.147900
     25 C25        -5.0380    0.1800    8.7670 ca        1 VR1     -0.169500
     26 C26        -4.3180   -0.8870    8.2390 ca        1 VR1     -0.078000
     27 F          -7.0550    1.4610    8.8190 f         1 VR1     -0.131900
     28 O28        -5.4900   -7.2490    7.0290 o         1 VR1     -0.626300
     29 O29        -5.3860   -6.7680    9.3760 o         1 VR1     -0.626300
     30 C30        -7.3930   -5.9570    8.0780 ca        1 VR1     -0.354500
     31 C31        -8.0920   -5.8150    6.8750 ca        1 VR1     -0.019000
     32 C32        -9.4560   -5.5280    6.8640 ca        1 VR1     -0.101000
     33 C33       -10.1250   -5.3780    8.0880 ca        1 VR1     -0.109200
     34 C34        -9.4440   -5.5190    9.3070 ca        1 VR1     -0.101000
     35 C35        -8.0820   -5.8070    9.2870 ca        1 VR1     -0.019000
     36 N36       -11.5850   -5.0650    8.0940 no        1 VR1      0.304200
     37 O37       -12.1510   -4.9300    7.0440 o         1 VR1     -0.194000
     38 O38       -12.1470   -4.9540    9.1490 o         1 VR1     -0.194000
     39 H2          1.5110    1.1600   -1.0890 ha        1 VR1      0.167000
     40 H3          2.1910    1.5100    1.5170 ha        1 VR1      0.167000
     41 H61        -2.1120   -0.4090   -1.0290 hc        1 VR1      0.065700
     42 H62        -0.8560    0.0860   -2.2450 hc        1 VR1      0.065700
     43 H71        -1.4350   -2.3480   -2.4210 hc        1 VR1      0.044367
     44 H72         0.3030   -2.1270   -1.9520 hc        1 VR1      0.044367
     45 H73        -0.9150   -2.6070   -0.7010 hc        1 VR1      0.044367
     46 H81         1.0560    0.6560    3.8970 ha        1 VR1      0.171000
     47 HN15       -4.2210   -2.6970    4.6270 hn        1 VR1      0.454800
     48 H16        -3.1930   -3.0500    7.3840 h1        1 VR1      0.110700
     49 HN19       -4.4490   -4.5450    8.5830 hn        1 VR1      0.345500
     50 H22        -6.6300   -2.1030    6.0300 ha        1 VR1      0.156000
     51 H23        -7.9410   -0.1900    6.9650 ha        1 VR1      0.157500
     52 H25        -4.5930    0.8360    9.5290 ha        1 VR1      0.157500
     53 H26        -3.2830   -1.0640    8.5770 ha        1 VR1      0.156000
     54 H31        -7.5520   -5.9290    5.9140 ha        1 VR1      0.179000
     55 H32        -9.9990   -5.4210    5.9090 ha        1 VR1      0.181500
     56 H34        -9.9800   -5.4050   10.2650 ha        1 VR1      0.181500
     57 H35        -7.5410   -5.9350   10.2430 ha        1 VR1      0.179000
@<TRIPOS>BOND
     1    1    2 2   
     2    1    5 1   
     3    1    6 1   
     4    2    3 1   
     5    2   39 1   
     6    3    4 2   
     7    3   40 1   
     8    4    5 1   
     9    4    8 1   
    10    6    7 1   
    11    6   41 1   
    12    6   42 1   
    13    7   43 1   
    14    7   44 1   
    15    7   45 1   
    16    8    9 2   
    17    8   46 1   
    18    9   10 1   
    19    9   13 1   
    20   10   11 1   
    21   10   14 2   
    22   11   12 2   
    23   12   13 1   
    24   12   15 1   
    25   15   16 1   
    26   15   47 1   
    27   16   17 1   
    28   16   21 1   
    29   16   48 1   
    30   17   18 2   
    31   17   19 1   
    32   19   20 1   
    33   19   49 1   
    34   20   28 2   
    35   20   29 2   
    36   20   30 1   
    37   21   22 ar  
    38   21   26 ar  
    39   22   23 ar  
    40   22   50 1   
    41   23   24 ar  
    42   23   51 1   
    43   24   25 ar  
    44   24   27 1   
    45   25   26 ar  
    46   25   52 1   
    47   26   53 1   
    48   30   31 ar  
    49   30   35 ar  
    50   31   32 ar  
    51   31   54 1   
    52   32   33 ar  
    53   32   55 1   
    54   33   34 ar  
    55   33   36 1   
    56   34   35 ar  
    57   34   56 1   
    58   35   57 1   
    59   36   37 1   
    60   36   38 1   
@<TRIPOS>SUBSTRUCTURE
     1 VR1         1 TEMP              0 ****  ****    0 ROOT
