@<TRIPOS>MOLECULE
VR1
   57    60     1     0     0
SMALL
bcc


@<TRIPOS>ATOM
      1 C1         -4.7900    6.4640   -3.8100 cc        1 VR1      0.288000
      2 C2         -5.3160    6.7690   -5.0560 cd        1 VR1     -0.274300
      3 C3         -4.8690    5.7440   -5.9590 cd        1 VR1     -0.196300
      4 C4         -4.0890    4.8620   -5.2180 cc        1 VR1      0.244500
      5 O5         -4.0290    5.2950   -3.8820 os        1 VR1     -0.351800
      6 C6         -4.8690    7.1110   -2.4900 c3        1 VR1     -0.120700
      7 C7         -5.8750    6.4360   -1.5860 c3        1 VR1     -0.093100
      8 C8         -3.4030    3.6740   -5.6100 ce        1 VR1     -0.084800
      9 C9         -2.6620    2.8460   -4.8530 cd        1 VR1     -0.167600
     10 C10        -2.0180    1.6280   -5.4820 c         1 VR1      0.695700
     11 N11        -1.2610    0.8630   -4.5490 nc        1 VR1     -0.706100
     12 C12        -1.3200    1.4010   -3.3380 cd        1 VR1      0.681100
     13 S13        -2.2770    2.9040   -3.1970 ss        1 VR1     -0.129800
     14 O14        -2.1340    1.3370   -6.6760 o         1 VR1     -0.508100
     15 N15        -0.7850    0.8780   -2.1830 nh        1 VR1     -0.785200
     16 C16         0.1280   -0.2470   -2.2320 c3        1 VR1      0.210800
     17 C17         0.2490   -0.8720   -0.8180 c         1 VR1      0.697100
     18 O18         0.2200   -0.1800    0.2140 o         1 VR1     -0.584100
     19 N19         0.4260   -2.2480   -0.7460 n         1 VR1     -0.663300
     20 S20         0.4610   -3.2200    0.5980 sy        1 VR1      1.507900
     21 C21         1.5190    0.0960   -2.7050 ca        1 VR1     -0.169300
     22 C22         2.4120    0.7790   -1.8710 ca        1 VR1     -0.078000
     23 C23         3.6890    1.1000   -2.3160 ca        1 VR1     -0.169500
     24 C24         4.0770    0.7380   -3.6200 ca        1 VR1      0.147900
     25 C25         3.1780    0.0640   -4.4680 ca        1 VR1     -0.169500
     26 C26         1.9040   -0.2490   -4.0050 ca        1 VR1     -0.078000
     27 F           5.3190    1.0440   -4.0610 f         1 VR1     -0.131900
     28 O28        -0.6220   -2.9530    1.4390 o         1 VR1     -0.626300
     29 O29         0.6000   -4.5350    0.1140 o         1 VR1     -0.626300
     30 C30         1.8980   -2.7680    1.3650 ca        1 VR1     -0.354500
     31 C31         1.9400   -1.6440    2.1960 ca        1 VR1     -0.019000
     32 C32         3.1070   -1.2920    2.8720 ca        1 VR1     -0.101000
     33 C33         4.2510   -2.0850    2.7060 ca        1 VR1     -0.109200
     34 C34         4.2310   -3.2200    1.8800 ca        1 VR1     -0.101000
     35 C35         3.0510   -3.5480    1.2180 ca        1 VR1     -0.019000
     36 N36         5.5100   -1.7180    3.4190 no        1 VR1      0.304200
     37 O37         5.5180   -0.7350    4.1080 o         1 VR1     -0.194000
     38 O38         6.4780   -2.4150    3.2790 o         1 VR1     -0.194000
     39 H2         -5.9450    7.6170   -5.3140 ha        1 VR1      0.167000
     40 H3         -5.1010    5.6790   -7.0190 ha        1 VR1      0.167000
     41 H61        -3.8540    7.0880   -2.0060 hc        1 VR1      0.065700
     42 H62        -5.1530    8.1880   -2.6420 hc        1 VR1      0.065700
     43 H71        -6.9000    6.4860   -2.0260 hc        1 VR1      0.044367
     44 H72        -5.8880    6.9440   -0.5920 hc        1 VR1      0.044367
     45 H73        -5.6060    5.3620   -1.4370 hc        1 VR1      0.044367
     46 H81        -3.5170    3.4280   -6.6890 ha        1 VR1      0.171000
     47 HN15       -0.6550    1.5110   -1.4200 hn        1 VR1      0.454800
     48 H16        -0.3240   -1.0100   -2.9400 h1        1 VR1      0.110700
     49 HN19        0.5170   -2.6950   -1.6350 hn        1 VR1      0.345500
     50 H22         2.1010    1.0620   -0.8520 ha        1 VR1      0.156000
     51 H23         4.3960    1.6340   -1.6640 ha        1 VR1      0.157500
     52 H25         3.4860   -0.2030   -5.4890 ha        1 VR1      0.157500
     53 H26         1.1900   -0.7530   -4.6780 ha        1 VR1      0.156000
     54 H31         1.0320   -1.0200    2.3140 ha        1 VR1      0.179000
     55 H32         3.1280   -0.4030    3.5280 ha        1 VR1      0.181500
     56 H34         5.1350   -3.8420    1.7600 ha        1 VR1      0.181500
     57 H35         3.0220   -4.4500    0.5770 ha        1 VR1      0.179000
@<TRIPOS>BOND
     1    1    2 2   
     2    1    5 1   
     3    1    6 1   
     4    2    3 1   
     5    2   39 1   
     6    3    4 2   
     7    3   40 1   
     8    4    5 1   
     9    4    8 1   
    10    6    7 1   
    11    6   41 1   
    12    6   42 1   
    13    7   43 1   
    14    7   44 1   
    15    7   45 1   
    16    8    9 2   
    17    8   46 1   
    18    9   10 1   
    19    9   13 1   
    20   10   11 1   
    21   10   14 2   
    22   11   12 2   
    23   12   13 1   
    24   12   15 1   
    25   15   16 1   
    26   15   47 1   
    27   16   17 1   
    28   16   21 1   
    29   16   48 1   
    30   17   18 2   
    31   17   19 1   
    32   19   20 1   
    33   19   49 1   
    34   20   28 2   
    35   20   29 2   
    36   20   30 1   
    37   21   22 ar  
    38   21   26 ar  
    39   22   23 ar  
    40   22   50 1   
    41   23   24 ar  
    42   23   51 1   
    43   24   25 ar  
    44   24   27 1   
    45   25   26 ar  
    46   25   52 1   
    47   26   53 1   
    48   30   31 ar  
    49   30   35 ar  
    50   31   32 ar  
    51   31   54 1   
    52   32   33 ar  
    53   32   55 1   
    54   33   34 ar  
    55   33   36 1   
    56   34   35 ar  
    57   34   56 1   
    58   35   57 1   
    59   36   37 1   
    60   36   38 1   
@<TRIPOS>SUBSTRUCTURE
     1 VR1         1 TEMP              0 ****  ****    0 ROOT
