@<TRIPOS>MOLECULE
VR1
   59    61     1     0     0
SMALL
bcc


@<TRIPOS>ATOM
      1 C1         79.5020   52.0010  -40.0670 cc        1 VR1      0.347000
      2 C2         78.6410   51.2530  -39.2680 cd        1 VR1     -0.282300
      3 C3         78.8350   51.6920  -37.9210 cd        1 VR1     -0.113300
      4 C4         79.8110   52.6930  -37.9520 cc        1 VR1      0.172500
      5 O5         80.2320   52.8910  -39.2860 os        1 VR1     -0.368800
      6 C6         79.7810   52.0320  -41.5130 c3        1 VR1     -0.133700
      7 C7         78.9390   51.0370  -42.2730 c3        1 VR1     -0.098100
      8 C8         80.3790   53.4620  -36.9110 ce        1 VR1      0.021200
      9 C9         81.3300   54.4240  -37.0020 cd        1 VR1     -0.254600
     10 C10        81.8020   55.1270  -35.7720 c         1 VR1      0.690700
     11 N11        82.8290   56.1090  -36.0810 nc        1 VR1     -0.591100
     12 C12        83.0610   56.1110  -37.3740 cd        1 VR1      0.454100
     13 S13        82.1500   55.0210  -38.3760 ss        1 VR1      0.027200
     14 O14        81.4030   54.9360  -34.6260 o         1 VR1     -0.442100
     15 N15        84.0680   56.9790  -37.9900 ny        1 VR1     -0.711000
     16 C16        83.8980   58.4540  -37.6480 c3        1 VR1      0.123800
     17 C17        83.8120   59.2790  -38.9620 c         1 VR1      0.649100
     18 O18        83.9040   58.6930  -40.0640 o         1 VR1     -0.616100
     19 N19        83.6080   60.6120  -38.8450 nt        1 VR1     -0.616000
     20 S20      -239.5910 -160.7120  123.5230 s4        1 VR1      1.660300
     21 C21        85.0270   58.9150  -36.7870 ca        1 VR1     -0.226300
     22 C22        86.2380   59.3300  -37.3600 ca        1 VR1     -0.064500
     23 C23        87.2810   59.7690  -36.5570 ca        1 VR1     -0.167500
     24 C24        87.1170   59.7920  -35.1550 ca        1 VR1      0.193900
     25 C25        85.9020   59.3690  -34.5760 ca        1 VR1     -0.167500
     26 C26        84.8680   58.9300  -35.3950 ca        1 VR1     -0.064500
     27 F          88.1240   60.2180  -34.3690 f         1 VR1     -0.102900
     28 O28      -240.0170 -161.9110  123.0790 o         1 VR1     -0.376400
     29 O29      -239.9810 -160.1650  124.6900 o         1 VR1     -0.376400
     30 C30      -238.5920 -159.9170  122.6390 ca        1 VR1     -0.611500
     31 C31      -238.1360 -160.4310  121.3940 ca        1 VR1      0.037000
     32 C32      -237.2450 -159.7280  120.6000 ca        1 VR1     -0.102000
     33 C33      -236.7810 -158.4740  121.0350 ca        1 VR1     -0.022200
     34 C34      -237.2080 -157.9300  122.2580 ca        1 VR1     -0.102000
     35 C35      -238.0990 -158.6460  123.0410 ca        1 VR1      0.037000
     36 N36      -235.8110 -157.7010  120.1750 no        1 VR1      0.303200
     37 O37      -235.4710 -158.1950  119.1420 o         1 VR1     -0.135000
     38 O38      -235.4390 -156.6390  120.5780 o         1 VR1     -0.135000
     39 H2         77.9490   50.4810  -39.6030 ha        1 VR1      0.188000
     40 H3         78.3180   51.3130  -37.0390 ha        1 VR1      0.182000
     41 H61        80.8740   51.8170  -41.6760 hc        1 VR1      0.077700
     42 H62        79.5890   53.0730  -41.8970 hc        1 VR1      0.077700
     43 H71        79.1380   49.9960  -41.9210 hc        1 VR1      0.053033
     44 H72        77.8510   51.2540  -42.1420 hc        1 VR1      0.053033
     45 H73        79.1830   51.0960  -43.3620 hc        1 VR1      0.053033
     46 H81        79.9770   53.2300  -35.8980 ha        1 VR1      0.185000
     47 HN15       85.0040   56.6800  -37.6750 hn        1 VR1      0.484300
     48 H16        82.9120   58.5710  -37.1010 hx        1 VR1      0.140700
     49 HN19       83.5380   61.1670  -39.6680 hn        1 VR1      0.345500
     50 H22        86.3660   59.3200  -38.4560 ha        1 VR1      0.158500
     51 H23        88.2340   60.1010  -36.9990 ha        1 VR1      0.178500
     52 H25        85.7840   59.3870  -33.4810 ha        1 VR1      0.178500
     53 H26        83.9230   58.5900  -34.9370 ha        1 VR1      0.158500
     54 H31      -238.5000 -161.4210  121.0490 ha        1 VR1      0.192000
     55 H32      -236.9000 -160.1470  119.6310 ha        1 VR1      0.220000
     56 H34      -236.8350 -156.9390  122.5910 ha        1 VR1      0.220000
     57 H35      -238.4350 -158.2140  124.0070 ha        1 VR1      0.192000
     58 H152       84.0090   56.8700  -39.0230 hn        1 VR1      0.484300
     59 H192       83.5950   61.0580  -37.9600 hn        1 VR1      0.345500
@<TRIPOS>BOND
     1    1    2 2   
     2    1    5 1   
     3    1    6 1   
     4    2    3 1   
     5    2   39 1   
     6    3    4 2   
     7    3   40 1   
     8    4    5 1   
     9    4    8 1   
    10    6    7 1   
    11    6   41 1   
    12    6   42 1   
    13    7   43 1   
    14    7   44 1   
    15    7   45 1   
    16    8    9 2   
    17    8   46 1   
    18    9   10 1   
    19    9   13 1   
    20   10   11 1   
    21   10   14 2   
    22   11   12 2   
    23   12   13 1   
    24   12   15 1   
    25   15   16 1   
    26   15   47 1   
    27   15   58 1   
    28   16   17 1   
    29   16   21 1   
    30   16   48 1   
    31   17   18 2   
    32   17   19 1   
    33   19   49 1   
    34   19   59 1   
    35   20   28 1   
    36   20   29 1   
    37   20   30 1   
    38   21   22 ar  
    39   21   26 ar  
    40   22   23 ar  
    41   22   50 1   
    42   23   24 ar  
    43   23   51 1   
    44   24   25 ar  
    45   24   27 1   
    46   25   26 ar  
    47   25   52 1   
    48   26   53 1   
    49   30   31 ar  
    50   30   35 ar  
    51   31   32 ar  
    52   31   54 1   
    53   32   33 ar  
    54   32   55 1   
    55   33   34 ar  
    56   33   36 1   
    57   34   35 ar  
    58   34   56 1   
    59   35   57 1   
    60   36   37 1   
    61   36   38 1   
@<TRIPOS>SUBSTRUCTURE
     1 VR1         1 TEMP              0 ****  ****    0 ROOT
