@<TRIPOS>MOLECULE
VR2
   50    52     1     0     0
SMALL
bcc


@<TRIPOS>ATOM
      1 CAJ        -0.5260   -0.0200   -0.0580 ca        1 VR2     -0.187500
      2 CAH         0.8090   -0.2950   -0.3260 ca        1 VR2     -0.062000
      3 CAU         1.6840   -0.6430    0.7070 ca        1 VR2     -0.016100
      4 IAC         3.6210   -1.0390    0.2990 i         1 VR2     -0.144900
      5 CAI         1.2150   -0.7160    2.0170 ca        1 VR2     -0.062000
      6 CAK        -0.1210   -0.4430    2.3090 ca        1 VR2     -0.187500
      7 CAV        -0.9920   -0.0950    1.2700 ca        1 VR2      0.147100
      8 OAS        -2.3290    0.1970    1.4270 os        1 VR2     -0.328900
      9 CAL        -2.8330    0.1310    2.7690 c3        1 VR2      0.128400
     10 CAM        -4.3080    0.4840    2.6650 c3        1 VR2     -0.085400
     11 CAX        -4.9690    0.4840    4.0380 c3        1 VR2     -0.058700
     12 CAA        -4.6360    1.7530    4.7950 c3        1 VR2     -0.096100
     13 CAN        -6.4730    0.3190    3.8700 c3        1 VR2     -0.112400
     14 CAO        -7.1600    0.1130    5.2200 c3        1 VR2      0.075000
     15 NAY        -8.5610   -0.2290    5.1900 n         1 VR2     -0.417800
     16 CAT        -8.9320   -1.5380    4.7360 c         1 VR2      0.781500
     17 OAB        -8.2700   -2.5660    4.9550 o         1 VR2     -0.612500
     18 CAP        -9.5150    0.7420    4.6610 c3        1 VR2      0.041000
     19 CAQ       -10.6400   -0.0960    3.9810 c3        1 VR2      0.065000
     20 NAZ       -10.1680   -1.4770    4.0210 n         1 VR2     -0.373000
     21 CAW       -11.0580   -2.5430    3.8440 ca        1 VR2      0.117600
     22 CAF       -10.7020   -3.8830    4.1290 ca        1 VR2     -0.290300
     23 CAD       -11.6370   -4.8960    3.8710 ca        1 VR2      0.415200
     24 NAR       -12.8670   -4.6850    3.3650 nb        1 VR2     -0.683000
     25 CAE       -13.1980   -3.4090    3.0950 ca        1 VR2      0.415200
     26 CAG       -12.3510   -2.3120    3.3110 ca        1 VR2     -0.290300
     27 HAJ        -1.2240    0.2540   -0.8620 ha        1 VR2      0.148000
     28 HAH         1.1690   -0.2360   -1.3660 ha        1 VR2      0.145000
     29 HAI         1.8950   -0.9900    2.8400 ha        1 VR2      0.145000
     30 HAK        -0.4710   -0.5070    3.3490 ha        1 VR2      0.148000
     31 HAL1       -2.2790    0.8650    3.4110 h1        1 VR2      0.042700
     32 HAL2       -2.6930   -0.9060    3.1710 h1        1 VR2      0.042700
     33 HAM1       -4.4190    1.4910    2.1850 hc        1 VR2      0.060700
     34 HAM2       -4.8080   -0.2630    1.9940 hc        1 VR2      0.060700
     35 HAX        -4.5810   -0.3980    4.6230 hc        1 VR2      0.055700
     36 HAA1       -5.1030    2.6400    4.3030 hc        1 VR2      0.037700
     37 HAA2       -3.5310    1.9100    4.8280 hc        1 VR2      0.037700
     38 HAA3       -5.0100    1.6910    5.8460 hc        1 VR2      0.037700
     39 HAN1       -6.8900    1.2230    3.3540 hc        1 VR2      0.050700
     40 HAN2       -6.6730   -0.5690    3.2130 hc        1 VR2      0.050700
     41 HAO1       -7.0760    1.0580    5.8290 h1        1 VR2      0.072200
     42 HAO2       -6.6360   -0.7210    5.7730 h1        1 VR2      0.072200
     43 HAP1       -9.9270    1.3390    5.5170 h1        1 VR2      0.061700
     44 HAP2       -9.0470    1.4440    3.9200 h1        1 VR2      0.061700
     45 HAQ1      -10.7870    0.2170    2.9130 h1        1 VR2      0.062700
     46 HAQ2      -11.6090    0.0260    4.5350 h1        1 VR2      0.062700
     47 HAF        -9.7150   -4.1420    4.5410 ha        1 VR2      0.160500
     48 HAG       -12.7000   -1.3040    3.0530 ha        1 VR2      0.160500
     49 HAD       -11.3800   -5.9500    4.0860 h4        1 VR2      0.023100
     50 HAE       -14.2100   -3.2530    2.6790 h4        1 VR2      0.023100
@<TRIPOS>BOND
     1    1    2 ar  
     2    1    7 ar  
     3    1   27 1   
     4    2    3 ar  
     5    2   28 1   
     6    3    4 1   
     7    3    5 ar  
     8    5    6 ar  
     9    5   29 1   
    10    6    7 ar  
    11    6   30 1   
    12    7    8 1   
    13    8    9 1   
    14    9   10 1   
    15    9   31 1   
    16    9   32 1   
    17   10   11 1   
    18   10   33 1   
    19   10   34 1   
    20   11   12 1   
    21   11   13 1   
    22   11   35 1   
    23   12   36 1   
    24   12   37 1   
    25   12   38 1   
    26   13   14 1   
    27   13   39 1   
    28   13   40 1   
    29   14   15 1   
    30   14   41 1   
    31   14   42 1   
    32   15   16 1   
    33   15   18 1   
    34   16   17 2   
    35   16   20 1   
    36   18   19 1   
    37   18   43 1   
    38   18   44 1   
    39   19   20 1   
    40   19   45 1   
    41   19   46 1   
    42   20   21 1   
    43   21   22 ar  
    44   21   26 ar  
    45   22   23 ar  
    46   22   47 1   
    47   23   24 ar  
    48   23   49 1   
    49   24   25 ar  
    50   25   26 ar  
    51   25   50 1   
    52   26   48 1   
@<TRIPOS>SUBSTRUCTURE
     1 VR2         1 TEMP              0 ****  ****    0 ROOT
