@<TRIPOS>MOLECULE
VR2
   50    52     1     0     0
SMALL
bcc


@<TRIPOS>ATOM
      1 CAJ        -0.5260   -0.0240   -0.0600 ca        1 VR2     -0.187500
      2 CAH         0.8090   -0.2950   -0.3260 ca        1 VR2     -0.062000
      3 CAU         1.6860   -0.6320    0.7100 ca        1 VR2     -0.016100
      4 IAC         3.6250   -1.0220    0.3050 i         1 VR2     -0.144900
      5 CAI         1.2170   -0.6980    2.0200 ca        1 VR2     -0.062000
      6 CAK        -0.1200   -0.4290    2.3110 ca        1 VR2     -0.187500
      7 CAV        -0.9920   -0.0920    1.2680 ca        1 VR2      0.147100
      8 OAS        -2.3310    0.1960    1.4240 os        1 VR2     -0.328900
      9 CAL        -2.8350    0.1380    2.7660 c3        1 VR2      0.128400
     10 CAM        -4.3110    0.4840    2.6600 c3        1 VR2     -0.085400
     11 CAX        -4.9720    0.4900    4.0320 c3        1 VR2     -0.058700
     12 CAA        -4.6440    1.7650    4.7810 c3        1 VR2     -0.096100
     13 CAN        -6.4760    0.3190    3.8650 c3        1 VR2     -0.112400
     14 CAO        -7.1620    0.1170    5.2160 c3        1 VR2      0.075000
     15 NAY        -8.5620   -0.2280    5.1880 n         1 VR2     -0.417800
     16 CAT        -8.9300   -1.5400    4.7390 c         1 VR2      0.781500
     17 OAB        -8.2650   -2.5660    4.9620 o         1 VR2     -0.612500
     18 CAP        -9.5190    0.7380    4.6550 c3        1 VR2      0.041000
     19 CAQ       -10.6420   -0.1050    3.9790 c3        1 VR2      0.065000
     20 NAZ       -10.1660   -1.4850    4.0250 n         1 VR2     -0.373000
     21 CAW       -11.0530   -2.5540    3.8510 ca        1 VR2      0.117600
     22 CAF       -10.6940   -3.8920    4.1410 ca        1 VR2     -0.290300
     23 CAD       -11.6260   -4.9080    3.8880 ca        1 VR2      0.415200
     24 NAR       -12.8570   -4.7030    3.3820 nb        1 VR2     -0.683000
     25 CAE       -13.1920   -3.4280    3.1070 ca        1 VR2      0.415200
     26 CAG       -12.3470   -2.3290    3.3180 ca        1 VR2     -0.290300
     27 HAJ        -1.2250    0.2420   -0.8650 ha        1 VR2      0.147500
     28 HAH         1.1700   -0.2410   -1.3650 ha        1 VR2      0.145000
     29 HAI         1.8980   -0.9640    2.8450 ha        1 VR2      0.145000
     30 HAK        -0.4700   -0.4880    3.3500 ha        1 VR2      0.147500
     31 HAL1       -2.2840    0.8780    3.4030 h1        1 VR2      0.042700
     32 HAL2       -2.6910   -0.8970    3.1750 h1        1 VR2      0.042700
     33 HAM1       -4.4260    1.4860    2.1720 hc        1 VR2      0.060700
     34 HAM2       -4.8080   -0.2700    1.9940 hc        1 VR2      0.060700
     35 HAX        -4.5810   -0.3860    4.6240 hc        1 VR2      0.055700
     36 HAA1       -3.5390    1.9260    4.8140 hc        1 VR2      0.037700
     37 HAA2       -5.0190    1.7100    5.8320 hc        1 VR2      0.037700
     38 HAA3       -5.1130    2.6470    4.2830 hc        1 VR2      0.037700
     39 HAN1       -6.6730   -0.5740    3.2130 hc        1 VR2      0.050700
     40 HAN2       -6.8960    1.2190    3.3450 hc        1 VR2      0.050700
     41 HAO1       -6.6360   -0.7130    5.7720 h1        1 VR2      0.072200
     42 HAO2       -7.0800    1.0650    5.8210 h1        1 VR2      0.072200
     43 HAP1       -9.9310    1.3370    5.5100 h1        1 VR2      0.061700
     44 HAP2       -9.0530    1.4380    3.9120 h1        1 VR2      0.061700
     45 HAQ1      -11.6110    0.0160    4.5340 h1        1 VR2      0.062700
     46 HAQ2      -10.7900    0.2030    2.9110 h1        1 VR2      0.062700
     47 HAF        -9.7060   -4.1460    4.5540 ha        1 VR2      0.160500
     48 HAG       -12.6990   -1.3230    3.0570 ha        1 VR2      0.160500
     49 HAD       -11.3670   -5.9610    4.1060 h4        1 VR2      0.023100
     50 HAE       -14.2040   -3.2760    2.6910 h4        1 VR2      0.023100
@<TRIPOS>BOND
     1    1    2 ar  
     2    1    7 ar  
     3    1   27 1   
     4    2    3 ar  
     5    2   28 1   
     6    3    4 1   
     7    3    5 ar  
     8    5    6 ar  
     9    5   29 1   
    10    6    7 ar  
    11    6   30 1   
    12    7    8 1   
    13    8    9 1   
    14    9   10 1   
    15    9   31 1   
    16    9   32 1   
    17   10   11 1   
    18   10   33 1   
    19   10   34 1   
    20   11   12 1   
    21   11   13 1   
    22   11   35 1   
    23   12   36 1   
    24   12   37 1   
    25   12   38 1   
    26   13   14 1   
    27   13   39 1   
    28   13   40 1   
    29   14   15 1   
    30   14   41 1   
    31   14   42 1   
    32   15   16 1   
    33   15   18 1   
    34   16   17 2   
    35   16   20 1   
    36   18   19 1   
    37   18   43 1   
    38   18   44 1   
    39   19   20 1   
    40   19   45 1   
    41   19   46 1   
    42   20   21 1   
    43   21   22 ar  
    44   21   26 ar  
    45   22   23 ar  
    46   22   47 1   
    47   23   24 ar  
    48   23   49 1   
    49   24   25 ar  
    50   25   26 ar  
    51   25   50 1   
    52   26   48 1   
@<TRIPOS>SUBSTRUCTURE
     1 VR2         1 TEMP              0 ****  ****    0 ROOT
