@<TRIPOS>MOLECULE
VR2
   50    52     1     0     0
SMALL
bcc


@<TRIPOS>ATOM
      1 CAJ        -0.5290   -0.0440   -0.0660 ca        1 VR2     -0.187500
      2 CAH         0.8070   -0.3140   -0.3310 ca        1 VR2     -0.062000
      3 CAU         1.6860   -0.6390    0.7070 ca        1 VR2     -0.016100
      4 IAC         3.6260   -1.0280    0.3030 i         1 VR2     -0.144900
      5 CAI         1.2190   -0.6950    2.0180 ca        1 VR2     -0.062000
      6 CAK        -0.1190   -0.4280    2.3080 ca        1 VR2     -0.187500
      7 CAV        -0.9930   -0.1020    1.2640 ca        1 VR2      0.147100
      8 OAS        -2.3320    0.1830    1.4180 os        1 VR2     -0.328900
      9 CAL        -2.8350    0.1360    2.7610 c3        1 VR2      0.128400
     10 CAM        -4.3110    0.4780    2.6540 c3        1 VR2     -0.085400
     11 CAX        -4.9720    0.4930    4.0270 c3        1 VR2     -0.058700
     12 CAA        -4.6440    1.7740    4.7670 c3        1 VR2     -0.096100
     13 CAN        -6.4750    0.3190    3.8620 c3        1 VR2     -0.112400
     14 CAO        -7.1600    0.1220    5.2150 c3        1 VR2      0.075000
     15 NAY        -8.5600   -0.2230    5.1900 n         1 VR2     -0.417800
     16 CAT        -8.9290   -1.5360    4.7440 c         1 VR2      0.781500
     17 OAB        -8.2640   -2.5610    4.9680 o         1 VR2     -0.612500
     18 CAP        -9.5180    0.7420    4.6560 c3        1 VR2      0.041000
     19 CAQ       -10.6410   -0.1020    3.9830 c3        1 VR2      0.065000
     20 NAZ       -10.1660   -1.4820    4.0310 n         1 VR2     -0.373000
     21 CAW       -11.0540   -2.5510    3.8610 ca        1 VR2      0.117600
     22 CAF       -10.6940   -3.8880    4.1530 ca        1 VR2     -0.290300
     23 CAD       -11.6270   -4.9050    3.9030 ca        1 VR2      0.415200
     24 NAR       -12.8590   -4.7000    3.3990 nb        1 VR2     -0.683000
     25 CAE       -13.1940   -3.4260    3.1220 ca        1 VR2      0.415200
     26 CAG       -12.3480   -2.3260    3.3290 ca        1 VR2     -0.290300
     27 HAJ        -1.2300    0.2130   -0.8730 ha        1 VR2      0.147500
     28 HAH         1.1670   -0.2680   -1.3710 ha        1 VR2      0.145000
     29 HAI         1.9010   -0.9520    2.8450 ha        1 VR2      0.145000
     30 HAK        -0.4680   -0.4780    3.3490 ha        1 VR2      0.147500
     31 HAL1       -2.2840    0.8830    3.3910 h1        1 VR2      0.042700
     32 HAL2       -2.6870   -0.8950    3.1800 h1        1 VR2      0.042700
     33 HAM1       -4.8070   -0.2820    1.9940 hc        1 VR2      0.060700
     34 HAM2       -4.4290    1.4760    2.1590 hc        1 VR2      0.060700
     35 HAX        -4.5790   -0.3790    4.6240 hc        1 VR2      0.055700
     36 HAA1       -5.1140    2.6520    4.2610 hc        1 VR2      0.037367
     37 HAA2       -5.0190    1.7250    5.8170 hc        1 VR2      0.037367
     38 HAA3       -3.5400    1.9350    4.7980 hc        1 VR2      0.037367
     39 HAN1       -6.6720   -0.5770    3.2140 hc        1 VR2      0.050700
     40 HAN2       -6.8970    1.2160    3.3380 hc        1 VR2      0.050700
     41 HAO1       -6.6330   -0.7060    5.7730 h1        1 VR2      0.072200
     42 HAO2       -7.0770    1.0720    5.8160 h1        1 VR2      0.072200
     43 HAP1       -9.9280    1.3430    5.5100 h1        1 VR2      0.061700
     44 HAP2       -9.0520    1.4410    3.9110 h1        1 VR2      0.061700
     45 HAQ1      -11.6100    0.0210    4.5390 h1        1 VR2      0.062700
     46 HAQ2      -10.7900    0.2040    2.9140 h1        1 VR2      0.062700
     47 HAF        -9.7060   -4.1420    4.5650 ha        1 VR2      0.160500
     48 HAG       -12.7000   -1.3210    3.0670 ha        1 VR2      0.160500
     49 HAD       -11.3680   -5.9570    4.1230 h4        1 VR2      0.023100
     50 HAE       -14.2070   -3.2740    2.7070 h4        1 VR2      0.023100
@<TRIPOS>BOND
     1    1    2 ar  
     2    1    7 ar  
     3    1   27 1   
     4    2    3 ar  
     5    2   28 1   
     6    3    4 1   
     7    3    5 ar  
     8    5    6 ar  
     9    5   29 1   
    10    6    7 ar  
    11    6   30 1   
    12    7    8 1   
    13    8    9 1   
    14    9   10 1   
    15    9   31 1   
    16    9   32 1   
    17   10   11 1   
    18   10   33 1   
    19   10   34 1   
    20   11   12 1   
    21   11   13 1   
    22   11   35 1   
    23   12   36 1   
    24   12   37 1   
    25   12   38 1   
    26   13   14 1   
    27   13   39 1   
    28   13   40 1   
    29   14   15 1   
    30   14   41 1   
    31   14   42 1   
    32   15   16 1   
    33   15   18 1   
    34   16   17 2   
    35   16   20 1   
    36   18   19 1   
    37   18   43 1   
    38   18   44 1   
    39   19   20 1   
    40   19   45 1   
    41   19   46 1   
    42   20   21 1   
    43   21   22 ar  
    44   21   26 ar  
    45   22   23 ar  
    46   22   47 1   
    47   23   24 ar  
    48   23   49 1   
    49   24   25 ar  
    50   25   26 ar  
    51   25   50 1   
    52   26   48 1   
@<TRIPOS>SUBSTRUCTURE
     1 VR2         1 TEMP              0 ****  ****    0 ROOT
