@<TRIPOS>MOLECULE
VRA
   51    53     1     0     0
SMALL
bcc


@<TRIPOS>ATOM
      1 C1          0.6430   -0.0740   -0.6240 ca        1 VRA      0.095900
      2 C2          1.8520    0.5960   -0.2790 ca        1 VRA      0.104600
      3 C3          2.2170    0.6180    1.0860 ca        1 VRA     -0.150000
      4 C4          1.4270    0.0130    2.0550 ca        1 VRA     -0.085000
      5 C5          0.2380   -0.6270    1.7030 ca        1 VRA      0.021900
      6 C6         -0.1530   -0.6700    0.3700 ca        1 VRA     -0.109000
      7 N7          2.7290    1.1160   -1.2600 nu        1 VRA     -0.608000
      8 C8          2.2230    2.0650   -2.1990 ca        1 VRA      0.036600
      9 C9          2.1010    1.6950   -3.5780 ca        1 VRA      0.215600
     10 C10         1.6630    2.6920   -4.4920 ca        1 VRA      0.057100
     11 C11         1.3340    3.9840   -4.0900 ca        1 VRA     -0.130000
     12 C12         1.4420    4.3430   -2.7420 ca        1 VRA      0.084900
     13 C13         1.8920    3.3860   -1.7990 ca        1 VRA      0.088900
     14 I14        -0.9110   -1.4910    3.1200 i         1 VRA     -0.126900
     15 F15         0.2350   -0.1600   -1.9140 f         1 VRA     -0.138900
     16 F16         2.0220    3.7600   -0.5040 f         1 VRA     -0.120900
     17 F17         1.1270    5.5940   -2.3360 f         1 VRA     -0.119900
     18 N18         2.3780    0.3890   -3.9850 nu        1 VRA     -0.757500
     19 S19         3.0790   -0.2570   -5.3220 s6        1 VRA      1.482900
     20 O20         3.2730   -1.6230   -5.0160 o         1 VRA     -0.644300
     21 O21         2.3340   -0.0080   -6.4860 o         1 VRA     -0.644300
     22 C22         4.6020    0.4960   -5.4450 cx        1 VRA     -0.386200
     23 C23         5.1710    0.6980   -6.8480 cx        1 VRA     -0.053400
     24 C24         4.7910    1.8830   -6.0410 cx        1 VRA     -0.053400
     25 C25         5.5900    0.0920   -4.3850 c3        1 VRA     -0.029400
     26 C26         5.6760    1.1020   -3.2430 c3        1 VRA      0.102100
     27 C27         5.9190    0.3950   -1.9040 c3        1 VRA      0.091400
     28 O28         5.8280    1.3210   -0.8370 oh        1 VRA     -0.615800
     29 O29         6.7710    1.9680   -3.5280 oh        1 VRA     -0.601800
     30 O30         1.6770    2.4240   -5.8530 os        1 VRA     -0.351900
     31 C31         0.4100    2.0220   -6.3850 c3        1 VRA      0.128700
     32 H3          3.1480    1.1210    1.3930 ha        1 VRA      0.151000
     33 H4          1.7500    0.0510    3.1080 ha        1 VRA      0.151000
     34 H6         -1.0840   -1.1730    0.0610 ha        1 VRA      0.163000
     35 HN7         3.5940    1.4440   -0.8590 hn        1 VRA      0.429800
     36 H11         0.9930    4.7200   -4.8350 ha        1 VRA      0.172000
     37 HN18        2.1600   -0.2740   -3.2590 hn        1 VRA      0.472800
     38 H23         6.2390    0.4640   -7.0130 hc        1 VRA      0.095700
     39 H23A        4.5340    0.4000   -7.7040 hc        1 VRA      0.095700
     40 H24         5.5830    2.5150   -5.5960 hc        1 VRA      0.095700
     41 H24A        3.8850    2.4580   -6.3180 hc        1 VRA      0.095700
     42 H25         5.3090   -0.9160   -3.9740 hc        1 VRA      0.076700
     43 H25A        6.6140   -0.0110   -4.8370 hc        1 VRA      0.076700
     44 H26         4.7290    1.7080   -3.1720 h1        1 VRA      0.051700
     45 H27         5.1100   -0.3570   -1.7030 h1        1 VRA      0.066700
     46 H27A        6.9190   -0.1120   -1.9080 h1        1 VRA      0.066700
     47 HO28        6.6270    1.8600   -0.8560 ho        1 VRA      0.404000
     48 HO29        6.6680    2.7400   -2.9590 ho        1 VRA      0.399000
     49 H31         0.6650    1.6930   -7.4250 h1        1 VRA      0.050700
     50 H31A       -0.0100    1.1680   -5.8020 h1        1 VRA      0.050700
     51 H31B       -0.2890    2.8920   -6.3800 h1        1 VRA      0.050700
@<TRIPOS>BOND
     1    1    2 ar  
     2    1    6 ar  
     3    1   15 1   
     4    2    3 ar  
     5    2    7 1   
     6    3    4 ar  
     7    3   32 1   
     8    4    5 ar  
     9    4   33 1   
    10    5    6 ar  
    11    5   14 1   
    12    6   34 1   
    13    7    8 1   
    14    7   35 1   
    15    8    9 ar  
    16    8   13 ar  
    17    9   10 ar  
    18    9   18 1   
    19   10   11 ar  
    20   10   30 1   
    21   11   12 ar  
    22   11   36 1   
    23   12   13 ar  
    24   12   17 1   
    25   13   16 1   
    26   18   19 1   
    27   18   37 1   
    28   19   20 2   
    29   19   21 2   
    30   19   22 1   
    31   22   23 1   
    32   22   24 1   
    33   22   25 1   
    34   23   24 1   
    35   23   38 1   
    36   23   39 1   
    37   24   40 1   
    38   24   41 1   
    39   25   26 1   
    40   25   42 1   
    41   25   43 1   
    42   26   27 1   
    43   26   29 1   
    44   26   44 1   
    45   27   28 1   
    46   27   45 1   
    47   27   46 1   
    48   28   47 1   
    49   29   48 1   
    50   30   31 1   
    51   31   49 1   
    52   31   50 1   
    53   31   51 1   
@<TRIPOS>SUBSTRUCTURE
     1 VRA         1 TEMP              0 ****  ****    0 ROOT
