@<TRIPOS>MOLECULE
VRA
   51    53     1     0     0
SMALL
bcc


@<TRIPOS>ATOM
      1 C1         -1.2380    0.9840    0.5300 ca        1 VRA      0.093900
      2 C2         -0.9380    0.1310   -0.5700 ca        1 VRA      0.106600
      3 C3         -1.9760   -0.1330   -1.4910 ca        1 VRA     -0.150000
      4 C4         -3.2420    0.4160   -1.3300 ca        1 VRA     -0.084000
      5 C5         -3.5250    1.2380   -0.2380 ca        1 VRA      0.020900
      6 C6         -2.5290    1.5200    0.6880 ca        1 VRA     -0.109000
      7 N7          0.3720   -0.3430   -0.8180 nh        1 VRA     -0.611000
      8 C8          1.0490   -1.0650    0.2090 ca        1 VRA      0.039600
      9 C9          2.1880   -0.4780    0.8490 ca        1 VRA      0.210600
     10 C10         2.8850   -1.2600    1.8090 ca        1 VRA      0.059100
     11 C11         2.4830   -2.5480    2.1580 ca        1 VRA     -0.130000
     12 C12         1.3620   -3.1170    1.5460 ca        1 VRA      0.087900
     13 C13         0.6500   -2.3800    0.5670 ca        1 VRA      0.090900
     14 I14        -5.3720    2.0180   -0.0040 i         1 VRA     -0.127900
     15 F15        -0.2910    1.3050    1.4460 f         1 VRA     -0.139900
     16 F16        -0.4120   -2.9590   -0.0380 f         1 VRA     -0.119900
     17 F17         0.9590   -4.3650    1.8740 f         1 VRA     -0.118900
     18 N18         2.5660    0.8340    0.5500 nh        1 VRA     -0.759500
     19 S19         4.0170    1.5760    0.3730 s6        1 VRA      1.483900
     20 O20         3.7240    2.8470   -0.1730 o         1 VRA     -0.644300
     21 O21         4.7580    1.5980    1.5640 o         1 VRA     -0.644300
     22 C22         4.8520    0.6610   -0.8010 cx        1 VRA     -0.383200
     23 C23         6.3720    0.5930   -0.6860 cx        1 VRA     -0.055400
     24 C24         5.5710   -0.6350   -0.4640 cx        1 VRA     -0.055400
     25 C25         4.2920    0.7780   -2.1920 c3        1 VRA     -0.055400
     26 C26         3.4330   -0.4190   -2.5870 c3        1 VRA      0.093100
     27 C27         2.2880    0.0020   -3.5170 c3        1 VRA      0.097400
     28 O28         1.3600   -1.0540   -3.6700 oh        1 VRA     -0.611800
     29 O29         4.1860   -1.4500   -3.2070 oh        1 VRA     -0.601800
     30 O30         4.0800   -0.7920    2.3350 os        1 VRA     -0.351900
     31 C31         3.9500   -0.1520    3.6090 c3        1 VRA      0.128700
     32 H3         -1.7810   -0.7830   -2.3600 ha        1 VRA      0.152000
     33 H4         -4.0220    0.1860   -2.0730 ha        1 VRA      0.151000
     34 H6         -2.7210    2.1710    1.5570 ha        1 VRA      0.162000
     35 HN7         0.4360   -0.8360   -1.6970 hn        1 VRA      0.432800
     36 H11         3.0530   -3.1140    2.9120 ha        1 VRA      0.172000
     37 HN18        1.7660    1.4020    0.3270 hn        1 VRA      0.473800
     38 H23         6.9680    0.7030   -1.6090 hc        1 VRA      0.096700
     39 H23A        6.8410    1.0970    0.1830 hc        1 VRA      0.096700
     40 H24         5.4660   -1.0340    0.5660 hc        1 VRA      0.096700
     41 H24A        5.5610   -1.4330   -1.2320 hc        1 VRA      0.096700
     42 H25         3.6820    1.7210   -2.2700 hc        1 VRA      0.067200
     43 H25A        5.1330    0.8800   -2.9300 hc        1 VRA      0.067200
     44 H26         3.0040   -0.9260   -1.6730 h1        1 VRA      0.093700
     45 H27         1.6970    0.8470   -3.0750 h1        1 VRA      0.057200
     46 H27A        2.6930    0.3040   -4.5190 h1        1 VRA      0.057200
     47 HO28        1.8630   -1.8400   -3.9240 ho        1 VRA      0.416000
     48 HO29        4.6560   -1.0620   -3.9560 ho        1 VRA      0.401000
     49 H31         3.7000   -0.9140    4.3860 h1        1 VRA      0.050700
     50 H31A        4.9630    0.2970    3.7710 h1        1 VRA      0.050700
     51 H31B        3.1730    0.6480    3.5720 h1        1 VRA      0.050700
@<TRIPOS>BOND
     1    1    2 ar  
     2    1    6 ar  
     3    1   15 1   
     4    2    3 ar  
     5    2    7 1   
     6    3    4 ar  
     7    3   32 1   
     8    4    5 ar  
     9    4   33 1   
    10    5    6 ar  
    11    5   14 1   
    12    6   34 1   
    13    7    8 1   
    14    7   35 1   
    15    8    9 ar  
    16    8   13 ar  
    17    9   10 ar  
    18    9   18 1   
    19   10   11 ar  
    20   10   30 1   
    21   11   12 ar  
    22   11   36 1   
    23   12   13 ar  
    24   12   17 1   
    25   13   16 1   
    26   18   19 1   
    27   18   37 1   
    28   19   20 2   
    29   19   21 2   
    30   19   22 1   
    31   22   23 1   
    32   22   24 1   
    33   22   25 1   
    34   23   24 1   
    35   23   38 1   
    36   23   39 1   
    37   24   40 1   
    38   24   41 1   
    39   25   26 1   
    40   25   42 1   
    41   25   43 1   
    42   26   27 1   
    43   26   29 1   
    44   26   44 1   
    45   27   28 1   
    46   27   45 1   
    47   27   46 1   
    48   28   47 1   
    49   29   48 1   
    50   30   31 1   
    51   31   49 1   
    52   31   50 1   
    53   31   51 1   
@<TRIPOS>SUBSTRUCTURE
     1 VRA         1 TEMP              0 ****  ****    0 ROOT
