@<TRIPOS>MOLECULE
VRA
   53    54     1     0     0
SMALL
bcc


@<TRIPOS>ATOM
      1 C1          1.0410   -0.9990   -0.5590 ca        1 VRA      0.135900
      2 C2          1.7390    0.2030   -0.2660 ca        1 VRA     -0.095400
      3 C3          1.4230    0.9110    0.9060 ca        1 VRA     -0.076000
      4 C4          0.4380    0.4310    1.7650 ca        1 VRA     -0.079000
      5 C5         -0.2460   -0.7540    1.4810 ca        1 VRA      0.084900
      6 C6          0.0550   -1.4700    0.3230 ca        1 VRA     -0.100000
      7 N7          2.8130    0.6760   -1.1470 n4        1 VRA     -0.496800
      8 C8          2.4340    1.8210   -1.9900 ca        1 VRA     -0.021400
      9 C9          1.8920    1.6530   -3.2930 ca        1 VRA      0.022600
     10 C10         1.5750    2.8240   -4.0420 ca        1 VRA      0.162100
     11 C11         1.7610    4.1070   -3.5220 ca        1 VRA     -0.165000
     12 C12         2.2970    4.2680   -2.2400 ca        1 VRA      0.195900
     13 C13         2.6490    3.1220   -1.4720 ca        1 VRA      0.089900
     14 I14        -1.6640   -1.4360    2.7430 i         1 VRA     -0.008900
     15 F15         1.3320   -1.6970   -1.6840 f         1 VRA     -0.138900
     16 F16         3.2030    3.2940   -0.2510 f         1 VRA     -0.096900
     17 F17         2.4950    5.4920   -1.7240 f         1 VRA     -0.061900
     18 N18         1.6920    0.3620   -3.8720 nh        1 VRA     -0.881200
     19 S19         3.5790   -1.0830   -4.6810 s4        1 VRA      1.675500
     20 O20         3.7540   -1.3530   -3.3620 o         1 VRA     -0.416900
     21 O21         2.6730   -1.7190   -5.4520 o         1 VRA     -0.416900
     22 C22         4.6320   -0.1500   -5.3930 cx        1 VRA     -0.650700
     23 C23         4.9330   -0.2830   -6.9190 cx        1 VRA      0.021600
     24 C24         4.2760    0.9400   -6.4480 cx        1 VRA      0.021600
     25 C25         5.8400    0.2090   -4.5450 c3        1 VRA     -0.068400
     26 C26         5.6070    1.4620   -3.6980 c3        1 VRA      0.135100
     27 C27         6.4180    1.4120   -2.3960 c3        1 VRA      0.096400
     28 O28         5.6410    0.6760   -1.4580 oh        1 VRA     -0.669800
     29 O29         5.8790    2.6350   -4.4340 oh        1 VRA     -0.587800
     30 O30         1.1110    2.5960   -5.3150 os        1 VRA     -0.351900
     31 C31         0.4750    3.6960   -5.9850 c3        1 VRA      0.108700
     32 H3          1.9500    1.8490    1.1610 ha        1 VRA      0.175000
     33 H4          0.2080    1.0040    2.6830 ha        1 VRA      0.195000
     34 H6         -0.4650   -2.4150    0.0780 ha        1 VRA      0.200000
     35 HN7         3.1550   -0.1090   -1.7260 hn        1 VRA      0.488300
     36 H11         1.4940    5.0070   -4.1060 ha        1 VRA      0.208000
     37 HN18        1.2010   -0.2430   -3.2270 hn        1 VRA      0.422800
     38 H23         4.3510   -1.0490   -7.4760 hc        1 VRA      0.131450
     39 H23A        6.0010   -0.2670   -7.2180 hc        1 VRA      0.131450
     40 H24         4.8510    1.8900   -6.3630 hc        1 VRA      0.131450
     41 H24A        3.1990    1.1130   -6.6480 hc        1 VRA      0.131450
     42 H25         6.0970   -0.6510   -3.8670 hc        1 VRA      0.094700
     43 H25A        6.7290    0.3810   -5.2110 hc        1 VRA      0.094700
     44 H26         4.5100    1.5520   -3.4390 h1        1 VRA      0.049700
     45 H27         7.4140    0.9230   -2.5590 h1        1 VRA      0.073200
     46 H27A        6.5730    2.4560   -2.0060 h1        1 VRA      0.073200
     47 HO28        6.2480    0.3670   -0.7710 ho        1 VRA      0.448000
     48 HO29        6.8380    2.7490   -4.4890 ho        1 VRA      0.433000
     49 H31        -0.3360    4.1280   -5.3510 h1        1 VRA      0.079700
     50 H31A        1.2380    4.4650   -6.2570 h1        1 VRA      0.079700
     51 H31B        0.0500    3.2100   -6.9030 h1        1 VRA      0.079700
     52 H72         3.6150    0.9770   -0.5560 hn        1 VRA      0.488300
     53 H182        1.1180    0.4500   -4.7040 hn        1 VRA      0.422800
@<TRIPOS>BOND
     1    1    2 ar  
     2    1    6 ar  
     3    1   15 1   
     4    2    3 ar  
     5    2    7 1   
     6    3    4 ar  
     7    3   32 1   
     8    4    5 ar  
     9    4   33 1   
    10    5    6 ar  
    11    5   14 1   
    12    6   34 1   
    13    7    8 1   
    14    7   35 1   
    15    7   52 1   
    16    8    9 ar  
    17    8   13 ar  
    18    9   10 ar  
    19    9   18 1   
    20   10   11 ar  
    21   10   30 1   
    22   11   12 ar  
    23   11   36 1   
    24   12   13 ar  
    25   12   17 1   
    26   13   16 1   
    27   18   37 1   
    28   18   53 1   
    29   19   20 1   
    30   19   21 1   
    31   19   22 1   
    32   22   23 1   
    33   22   24 1   
    34   22   25 1   
    35   23   24 1   
    36   23   38 1   
    37   23   39 1   
    38   24   40 1   
    39   24   41 1   
    40   25   26 1   
    41   25   42 1   
    42   25   43 1   
    43   26   27 1   
    44   26   29 1   
    45   26   44 1   
    46   27   28 1   
    47   27   45 1   
    48   27   46 1   
    49   28   47 1   
    50   29   48 1   
    51   30   31 1   
    52   31   49 1   
    53   31   50 1   
    54   31   51 1   
@<TRIPOS>SUBSTRUCTURE
     1 VRA         1 TEMP              0 ****  ****    0 ROOT
