@<TRIPOS>MOLECULE
VRA
   51    53     1     0     0
SMALL
bcc


@<TRIPOS>ATOM
      1 C1          0.6530   -0.0720   -0.6130 ca        1 VRA      0.095900
      2 C2          1.8630    0.5980   -0.2740 ca        1 VRA      0.104600
      3 C3          2.2350    0.6200    1.0890 ca        1 VRA     -0.150000
      4 C4          1.4490    0.0160    2.0620 ca        1 VRA     -0.085000
      5 C5          0.2590   -0.6240    1.7160 ca        1 VRA      0.021900
      6 C6         -0.1390   -0.6670    0.3850 ca        1 VRA     -0.109000
      7 N7          2.7360    1.1170   -1.2600 nh        1 VRA     -0.608000
      8 C8          2.2270    2.0650   -2.1960 ca        1 VRA      0.036600
      9 C9          2.0990    1.6950   -3.5740 ca        1 VRA      0.215600
     10 C10         1.6570    2.6910   -4.4870 ca        1 VRA      0.057100
     11 C11         1.3300    3.9840   -4.0840 ca        1 VRA     -0.130000
     12 C12         1.4440    4.3430   -2.7370 ca        1 VRA      0.084900
     13 C13         1.8980    3.3870   -1.7960 ca        1 VRA      0.088900
     14 I14        -0.8840   -1.4860    3.1390 i         1 VRA     -0.126900
     15 F15         0.2390   -0.1580   -1.9010 f         1 VRA     -0.138900
     16 F16         2.0340    3.7620   -0.5020 f         1 VRA     -0.120900
     17 F17         1.1320    5.5950   -2.3300 f         1 VRA     -0.119900
     18 N18         2.3730    0.3880   -3.9820 nh        1 VRA     -0.757500
     19 S19         3.0680   -0.2580   -5.3220 s6        1 VRA      1.482900
     20 O20         3.2630   -1.6240   -5.0160 o         1 VRA     -0.644300
     21 O21         2.3190   -0.0100   -6.4820 o         1 VRA     -0.644300
     22 C22         4.5910    0.4950   -5.4520 cx        1 VRA     -0.386200
     23 C23         5.1540    0.6950   -6.8570 cx        1 VRA     -0.053400
     24 C24         4.7770    1.8800   -6.0490 cx        1 VRA     -0.053400
     25 C25         5.5830    0.0900   -4.3960 c3        1 VRA     -0.029400
     26 C26         5.6750    1.1010   -3.2550 c3        1 VRA      0.102100
     27 C27         5.9230    0.3940   -1.9160 c3        1 VRA      0.091400
     28 O28         5.8370    1.3210   -0.8490 oh        1 VRA     -0.615800
     29 O29         6.7690    1.9660   -3.5450 oh        1 VRA     -0.601800
     30 O30         1.6640    2.4220   -5.8480 os        1 VRA     -0.351900
     31 C31         0.3950    2.0200   -6.3740 c3        1 VRA      0.128700
     32 H3          3.1680    1.1240    1.3920 ha        1 VRA      0.151000
     33 H4          1.7760    0.0550    3.1140 ha        1 VRA      0.151000
     34 H6         -1.0710   -1.1700    0.0810 ha        1 VRA      0.163000
     35 HN7         3.6030    1.4450   -0.8620 hn        1 VRA      0.429800
     36 H11         0.9860    4.7190   -4.8280 ha        1 VRA      0.172000
     37 HN18        2.1580   -0.2740   -3.2550 hn        1 VRA      0.472800
     38 H23         4.5130    0.3970   -7.7110 hc        1 VRA      0.095700
     39 H23A        6.2210    0.4610   -7.0260 hc        1 VRA      0.095700
     40 H24         5.5720    2.5130   -5.6080 hc        1 VRA      0.095700
     41 H24A        3.8710    2.4560   -6.3220 hc        1 VRA      0.095700
     42 H25         5.3030   -0.9180   -3.9830 hc        1 VRA      0.076700
     43 H25A        6.6050   -0.0140   -4.8530 hc        1 VRA      0.076700
     44 H26         4.7290    1.7080   -3.1800 h1        1 VRA      0.051700
     45 H27         5.1140   -0.3570   -1.7120 h1        1 VRA      0.066700
     46 H27A        6.9230   -0.1130   -1.9250 h1        1 VRA      0.066700
     47 HO28        6.6370    1.8600   -0.8730 ho        1 VRA      0.404000
     48 HO29        6.6690    2.7380   -2.9760 ho        1 VRA      0.399000
     49 H31         0.6450    1.6910   -7.4150 h1        1 VRA      0.050700
     50 H31A       -0.3050    2.8900   -6.3660 h1        1 VRA      0.050700
     51 H31B       -0.0220    1.1670   -5.7880 h1        1 VRA      0.050700
@<TRIPOS>BOND
     1    1    2 ar  
     2    1    6 ar  
     3    1   15 1   
     4    2    3 ar  
     5    2    7 1   
     6    3    4 ar  
     7    3   32 1   
     8    4    5 ar  
     9    4   33 1   
    10    5    6 ar  
    11    5   14 1   
    12    6   34 1   
    13    7    8 1   
    14    7   35 1   
    15    8    9 ar  
    16    8   13 ar  
    17    9   10 ar  
    18    9   18 1   
    19   10   11 ar  
    20   10   30 1   
    21   11   12 ar  
    22   11   36 1   
    23   12   13 ar  
    24   12   17 1   
    25   13   16 1   
    26   18   19 1   
    27   18   37 1   
    28   19   20 2   
    29   19   21 2   
    30   19   22 1   
    31   22   23 1   
    32   22   24 1   
    33   22   25 1   
    34   23   24 1   
    35   23   38 1   
    36   23   39 1   
    37   24   40 1   
    38   24   41 1   
    39   25   26 1   
    40   25   42 1   
    41   25   43 1   
    42   26   27 1   
    43   26   29 1   
    44   26   44 1   
    45   27   28 1   
    46   27   45 1   
    47   27   46 1   
    48   28   47 1   
    49   29   48 1   
    50   30   31 1   
    51   31   49 1   
    52   31   50 1   
    53   31   51 1   
@<TRIPOS>SUBSTRUCTURE
     1 VRA         1 TEMP              0 ****  ****    0 ROOT
