@<TRIPOS>MOLECULE
VRB
   83    86     1     0     0
SMALL
bcc


@<TRIPOS>ATOM
      1 C01        -0.1740   -0.5290    0.3840 c3        1 VRB     -0.089100
      2 C02         1.2430   -0.0040    0.3870 c3        1 VRB     -0.034200
      3 C03         1.9340   -0.2740    1.6590 c2        1 VRB     -0.088400
      4 C04         2.4430   -1.4420    2.1200 ce        1 VRB     -0.198400
      5 C05         2.4180   -2.7800    1.5280 c3        1 VRB     -0.030900
      6 C06         3.0870   -1.1880    3.4620 c         1 VRB      0.680700
      7 O07         3.6520   -2.0280    4.1800 o         1 VRB     -0.638500
      8 N08         3.0190    0.1940    3.7170 n         1 VRB     -0.523900
      9 C09         2.2380    0.8480    2.6580 c3        1 VRB      0.098900
     10 C10         0.9680    1.5680    3.1230 c3        1 VRB     -0.018100
     11 C11         1.2730    2.9200    3.6410 cc        1 VRB     -0.148600
     12 C12         1.7690    4.0480    2.9430 cd        1 VRB     -0.172300
     13 C13         2.1460    4.1070    1.5310 c3        1 VRB     -0.002800
     14 C14         1.8300    5.1320    3.8800 cd        1 VRB     -0.132300
     15 C15         1.3700    4.6250    5.1190 cc        1 VRB     -0.117600
     16 C16         1.2510    5.3450    6.4090 c3        1 VRB      0.056200
     17 C17        -0.0900    5.9560    6.6090 cc        1 VRB     -0.083600
     18 C18        -1.3380    5.3450    6.8960 cd        1 VRB     -0.136300
     19 C19        -1.6750    3.9100    6.9090 c3        1 VRB      0.000900
     20 C20        -0.9290    3.0620    7.9160 c3        1 VRB     -0.191400
     21 C21        -0.9640    1.5830    7.5110 c         1 VRB      0.907600
     22 O22        -1.6110    0.7670    8.2230 o         1 VRB     -0.858800
     23 O23        -0.3200    1.2250    6.4710 o         1 VRB     -0.858800
     24 C24        -2.2890    6.4050    7.0380 cd        1 VRB     -0.145300
     25 C25        -1.6010    7.6330    6.8120 cc        1 VRB     -0.121100
     26 N26        -0.2610    7.3350    6.5740 na        1 VRB     -0.134100
     27 C27        -2.1960    8.9330    6.8440 ce        1 VRB     -0.053200
     28 C28        -1.6370   10.1640    6.8870 cd        1 VRB     -0.024400
     29 N29        -0.2660   10.5420    6.9570 n         1 VRB     -0.444100
     30 C30        -0.1960   11.9480    7.0850 c         1 VRB      0.686700
     31 O31         0.8410   12.6170    7.2010 o         1 VRB     -0.630500
     32 C32        -1.6130   12.4720    7.1510 cc        1 VRB     -0.215400
     33 C33        -2.4550   11.4100    7.0130 cd        1 VRB     -0.047200
     34 C34        -3.9210   11.3910    6.9960 c3        1 VRB     -0.045900
     35 C35        -1.9000   13.9060    7.2920 c3        1 VRB     -0.005200
     36 C36        -1.4280   14.4540    8.6200 c3        1 VRB     -0.091100
     37 C37        -3.7090    6.2480    7.3580 c3        1 VRB     -0.009800
     38 N38         1.0540    3.2810    4.9640 na        1 VRB     -0.138100
     39 C39         2.2830    6.5100    3.6270 c3        1 VRB      0.006900
     40 C40         1.1460    7.4570    3.2910 c3        1 VRB     -0.186400
     41 C41         1.4190    8.8740    3.7980 c         1 VRB      0.913600
     42 O42         1.5250    9.0600    5.0590 o         1 VRB     -0.865300
     43 O43         1.5170    9.8200    2.9710 o         1 VRB     -0.865300
     44 H1         -0.7770   -0.0380    1.1870 hc        1 VRB      0.037700
     45 H2         -0.1820   -1.6320    0.5630 hc        1 VRB      0.037700
     46 H3         -0.6560   -0.3220   -0.6020 hc        1 VRB      0.037700
     47 H4          1.2310    1.1050    0.1930 hc        1 VRB      0.048200
     48 H5          1.8180   -0.4860   -0.4520 hc        1 VRB      0.048200
     49 H6          1.4020   -3.2370    1.6430 hc        1 VRB      0.041033
     50 H7          2.6570   -2.7350    0.4360 hc        1 VRB      0.041033
     51 H8          3.1620   -3.4430    2.0380 hc        1 VRB      0.041033
     52 H9          2.9010    0.5230    4.6490 hn        1 VRB      0.333500
     53 H10         2.9150    1.6040    2.1570 h1        1 VRB      0.087700
     54 H11         0.2880    1.6760    2.2340 hc        1 VRB      0.075700
     55 H12         0.4230    0.9570    3.8980 hc        1 VRB      0.075700
     56 H13         1.9250    5.1210    1.1120 hc        1 VRB      0.020700
     57 H14         1.5870    3.3430    0.9340 hc        1 VRB      0.020700
     58 H15         3.2420    3.9110    1.4040 hc        1 VRB      0.020700
     59 H16         1.4580    4.6510    7.2700 hc        1 VRB      0.065200
     60 H17         2.0490    6.1420    6.4260 hc        1 VRB      0.065200
     61 H18        -1.4910    3.4940    5.8780 hc        1 VRB      0.042700
     62 H19        -2.7780    3.7970    7.1010 hc        1 VRB      0.042700
     63 H20         0.1420    3.3780    7.9840 hc        1 VRB      0.028200
     64 H21        -1.3850    3.1810    8.9310 hc        1 VRB      0.028200
     65 H23         0.4260    7.9670    6.1980 hn        1 VRB      0.356700
     66 H26        -4.3420   12.4240    7.0720 hc        1 VRB      0.042033
     67 H27        -4.2900   10.9260    6.0470 hc        1 VRB      0.042033
     68 H28        -4.3110   10.7870    7.8550 hc        1 VRB      0.042033
     69 H29        -1.3740   14.4570    6.4630 hc        1 VRB      0.038200
     70 H30        -3.0010   14.0960    7.1760 hc        1 VRB      0.038200
     71 H31        -1.9740   13.9710    9.4650 hc        1 VRB      0.033367
     72 H32        -1.6040   15.5550    8.6650 hc        1 VRB      0.033367
     73 H33        -0.3340   14.2550    8.7430 hc        1 VRB      0.033367
     74 H34        -4.1430    7.1890    7.7770 hc        1 VRB      0.025033
     75 H35        -3.8530    5.4330    8.1130 hc        1 VRB      0.025033
     76 H36        -4.2880    5.9730    6.4400 hc        1 VRB      0.025033
     77 H37         0.6070    2.6940    5.6540 hn        1 VRB      0.360700
     78 H38         2.8150    6.8990    4.5410 hc        1 VRB      0.037700
     79 H39         3.0270    6.5080    2.7850 hc        1 VRB      0.037700
     80 H40         0.1960    7.1000    3.7650 hc        1 VRB      0.035200
     81 H41         0.9870    7.4830    2.1830 hc        1 VRB      0.035200
     82 H24        -3.3030    8.8960    6.8520 ha        1 VRB      0.123000
     83 H421        0.4360   10.0550    6.4240 hn        1 VRB      0.388500
@<TRIPOS>BOND
     1    1    2 1   
     2    1   44 1   
     3    1   45 1   
     4    1   46 1   
     5    2    3 1   
     6    2   47 1   
     7    2   48 1   
     8    3    4 2   
     9    3    9 1   
    10    4    5 1   
    11    4    6 1   
    12    5   49 1   
    13    5   50 1   
    14    5   51 1   
    15    6    7 2   
    16    6    8 1   
    17    8    9 1   
    18    8   52 1   
    19    9   10 1   
    20    9   53 1   
    21   10   11 1   
    22   10   54 1   
    23   10   55 1   
    24   11   12 2   
    25   11   38 1   
    26   12   13 1   
    27   12   14 1   
    28   13   56 1   
    29   13   57 1   
    30   13   58 1   
    31   14   15 2   
    32   14   39 1   
    33   15   16 1   
    34   15   38 1   
    35   16   17 1   
    36   16   59 1   
    37   16   60 1   
    38   17   18 2   
    39   17   26 1   
    40   18   19 1   
    41   18   24 1   
    42   19   20 1   
    43   19   61 1   
    44   19   62 1   
    45   20   21 1   
    46   20   63 1   
    47   20   64 1   
    48   21   22 1   
    49   21   23 1   
    50   24   25 2   
    51   24   37 1   
    52   25   26 1   
    53   25   27 1   
    54   26   65 1   
    55   27   28 2   
    56   27   82 1   
    57   28   29 1   
    58   28   33 1   
    59   29   30 1   
    60   29   83 1   
    61   30   31 2   
    62   30   32 1   
    63   32   33 2   
    64   32   35 1   
    65   33   34 1   
    66   34   66 1   
    67   34   67 1   
    68   34   68 1   
    69   35   36 1   
    70   35   69 1   
    71   35   70 1   
    72   36   71 1   
    73   36   72 1   
    74   36   73 1   
    75   37   74 1   
    76   37   75 1   
    77   37   76 1   
    78   38   77 1   
    79   39   40 1   
    80   39   78 1   
    81   39   79 1   
    82   40   41 1   
    83   40   80 1   
    84   40   81 1   
    85   41   42 1   
    86   41   43 1   
@<TRIPOS>SUBSTRUCTURE
     1 VRB         1 TEMP              0 ****  ****    0 ROOT
