@<TRIPOS>MOLECULE
VRB
   83    86     1     0     0
SMALL
bcc


@<TRIPOS>ATOM
      1 C01        -0.2000   -0.5340    0.3880 c3        1 VRB     -0.089100
      2 C02         1.2160   -0.0050    0.3780 c3        1 VRB     -0.034200
      3 C03         1.9180   -0.2730    1.6440 c2        1 VRB     -0.088400
      4 C04         2.4350   -1.4400    2.1020 ce        1 VRB     -0.198400
      5 C05         2.4080   -2.7780    1.5120 c3        1 VRB     -0.030900
      6 C06         3.0900   -1.1820    3.4380 c         1 VRB      0.680700
      7 O07         3.6620   -2.0210    4.1520 o         1 VRB     -0.638500
      8 N08         3.0210    0.2000    3.6930 ns        1 VRB     -0.523900
      9 C09         2.2280    0.8510    2.6400 c3        1 VRB      0.098900
     10 C10         0.9610    1.5680    3.1160 c3        1 VRB     -0.018100
     11 C11         1.2680    2.9200    3.6300 cc        1 VRB     -0.148600
     12 C12         1.7550    4.0500    2.9280 cd        1 VRB     -0.172300
     13 C13         2.1200    4.1090    1.5130 c3        1 VRB     -0.002800
     14 C14         1.8220    5.1340    3.8640 cd        1 VRB     -0.132300
     15 C15         1.3740    4.6260    5.1070 cc        1 VRB     -0.117600
     16 C16         1.2650    5.3460    6.3980 c3        1 VRB      0.056200
     17 C17        -0.0760    5.9550    6.6090 cc        1 VRB     -0.083600
     18 C18        -1.3210    5.3420    6.9070 cd        1 VRB     -0.136300
     19 C19        -1.6550    3.9070    6.9230 c3        1 VRB      0.000900
     20 C20        -0.8990    3.0600    7.9240 c3        1 VRB     -0.191400
     21 C21        -0.9350    1.5810    7.5190 c         1 VRB      0.907600
     22 O22        -1.5750    0.7640    8.2360 o         1 VRB     -0.858800
     23 O23        -0.2980    1.2240    6.4740 o         1 VRB     -0.858800
     24 C24        -2.2720    6.4010    7.0560 cd        1 VRB     -0.145300
     25 C25        -1.5890    7.6300    6.8250 cc        1 VRB     -0.121100
     26 N26        -0.2500    7.3330    6.5760 na        1 VRB     -0.134100
     27 C27        -2.1850    8.9280    6.8620 ce        1 VRB     -0.053200
     28 C28        -1.6270   10.1610    6.9010 cd        1 VRB     -0.024400
     29 N29        -0.2570   10.5410    6.9580 ns        1 VRB     -0.444100
     30 C30        -0.1890   11.9470    7.0860 c         1 VRB      0.686700
     31 O31         0.8490   12.6170    7.1930 o         1 VRB     -0.630500
     32 C32        -1.6060   12.4690    7.1640 cc        1 VRB     -0.215400
     33 C33        -2.4470   11.4050    7.0330 cd        1 VRB     -0.047200
     34 C34        -3.9130   11.3830    7.0290 c3        1 VRB     -0.046900
     35 C35        -1.8940   13.9020    7.3080 c3        1 VRB     -0.005200
     36 C36        -1.4110   14.4500    8.6310 c3        1 VRB     -0.091100
     37 C37        -3.6890    6.2400    7.3890 c3        1 VRB     -0.009800
     38 N38         1.0590    3.2820    4.9550 na        1 VRB     -0.138100
     39 C39         2.2710    6.5130    3.6070 c3        1 VRB      0.006900
     40 C40         1.1280    7.4580    3.2800 c3        1 VRB     -0.186400
     41 C41         1.4030    8.8750    3.7850 c         1 VRB      0.913600
     42 O42         1.5200    9.0620    5.0440 o         1 VRB     -0.865300
     43 O43         1.4920    9.8210    2.9570 o         1 VRB     -0.865300
     44 H1         -0.2040   -1.6360    0.5690 hc        1 VRB      0.037700
     45 H2         -0.6920   -0.3290   -0.5930 hc        1 VRB      0.037700
     46 H3         -0.7970   -0.0430    1.1960 hc        1 VRB      0.037700
     47 H4          1.2000    1.1030    0.1830 hc        1 VRB      0.048200
     48 H5          1.7840   -0.4870   -0.4650 hc        1 VRB      0.048200
     49 H6          3.1570   -3.4390    2.0150 hc        1 VRB      0.041033
     50 H7          2.6360   -2.7330    0.4170 hc        1 VRB      0.041033
     51 H8          1.3930   -3.2370    1.6360 hc        1 VRB      0.041033
     52 H9          2.9100    0.5290    4.6250 hn        1 VRB      0.333500
     53 H10         2.9000    1.6080    2.1330 h1        1 VRB      0.087700
     54 H11         0.2740    1.6740    2.2320 hc        1 VRB      0.075700
     55 H12         0.4240    0.9560    3.8950 hc        1 VRB      0.075700
     56 H13         1.8940    5.1230    1.0950 hc        1 VRB      0.020700
     57 H14         1.5580    3.3430    0.9200 hc        1 VRB      0.020700
     58 H15         3.2160    3.9160    1.3760 hc        1 VRB      0.020700
     59 H16         2.0610    6.1450    6.4080 hc        1 VRB      0.065200
     60 H17         1.4800    4.6530    7.2580 hc        1 VRB      0.065200
     61 H18        -2.7560    3.7920    7.1240 hc        1 VRB      0.042700
     62 H19        -1.4790    3.4900    5.8900 hc        1 VRB      0.042700
     63 H20        -1.3470    3.1790    8.9420 hc        1 VRB      0.028200
     64 H21         0.1720    3.3780    7.9820 hc        1 VRB      0.028200
     65 H23         0.4330    7.9670    6.1930 hn        1 VRB      0.356700
     66 H26        -4.2950   10.7790    7.8910 hc        1 VRB      0.042033
     67 H27        -4.3350   12.4160    7.1080 hc        1 VRB      0.042033
     68 H28        -4.2900   10.9180    6.0830 hc        1 VRB      0.042033
     69 H29        -2.9960   14.0900    7.2020 hc        1 VRB      0.038200
     70 H30        -1.3760   14.4540    6.4740 hc        1 VRB      0.038200
     71 H31        -1.5880   15.5520    8.6790 hc        1 VRB      0.033367
     72 H32        -0.3160   14.2540    8.7450 hc        1 VRB      0.033367
     73 H33        -1.9490   13.9670    9.4810 hc        1 VRB      0.033367
     74 H34        -3.8250    5.4260    8.1450 hc        1 VRB      0.025033
     75 H35        -4.2760    5.9650    6.4750 hc        1 VRB      0.025033
     76 H36        -4.1210    7.1810    7.8110 hc        1 VRB      0.025033
     77 H37         0.6190    2.6940    5.6490 hn        1 VRB      0.360700
     78 H38         2.8090    6.9030    4.5160 hc        1 VRB      0.037700
     79 H39         3.0070    6.5130    2.7590 hc        1 VRB      0.037700
     80 H40         0.1830    7.0990    3.7620 hc        1 VRB      0.035200
     81 H41         0.9600    7.4830    2.1740 hc        1 VRB      0.035200
     82 H24        -3.2920    8.8900    6.8790 ha        1 VRB      0.123000
     83 H421        0.4410   10.0550    6.4200 hn        1 VRB      0.388500
@<TRIPOS>BOND
     1    1    2 1   
     2    1   44 1   
     3    1   45 1   
     4    1   46 1   
     5    2    3 1   
     6    2   47 1   
     7    2   48 1   
     8    3    4 2   
     9    3    9 1   
    10    4    5 1   
    11    4    6 1   
    12    5   49 1   
    13    5   50 1   
    14    5   51 1   
    15    6    7 2   
    16    6    8 1   
    17    8    9 1   
    18    8   52 1   
    19    9   10 1   
    20    9   53 1   
    21   10   11 1   
    22   10   54 1   
    23   10   55 1   
    24   11   12 2   
    25   11   38 1   
    26   12   13 1   
    27   12   14 1   
    28   13   56 1   
    29   13   57 1   
    30   13   58 1   
    31   14   15 2   
    32   14   39 1   
    33   15   16 1   
    34   15   38 1   
    35   16   17 1   
    36   16   59 1   
    37   16   60 1   
    38   17   18 2   
    39   17   26 1   
    40   18   19 1   
    41   18   24 1   
    42   19   20 1   
    43   19   61 1   
    44   19   62 1   
    45   20   21 1   
    46   20   63 1   
    47   20   64 1   
    48   21   22 1   
    49   21   23 1   
    50   24   25 2   
    51   24   37 1   
    52   25   26 1   
    53   25   27 1   
    54   26   65 1   
    55   27   28 2   
    56   27   82 1   
    57   28   29 1   
    58   28   33 1   
    59   29   30 1   
    60   29   83 1   
    61   30   31 2   
    62   30   32 1   
    63   32   33 2   
    64   32   35 1   
    65   33   34 1   
    66   34   66 1   
    67   34   67 1   
    68   34   68 1   
    69   35   36 1   
    70   35   69 1   
    71   35   70 1   
    72   36   71 1   
    73   36   72 1   
    74   36   73 1   
    75   37   74 1   
    76   37   75 1   
    77   37   76 1   
    78   38   77 1   
    79   39   40 1   
    80   39   78 1   
    81   39   79 1   
    82   40   41 1   
    83   40   80 1   
    84   40   81 1   
    85   41   42 1   
    86   41   43 1   
@<TRIPOS>SUBSTRUCTURE
     1 VRB         1 TEMP              0 ****  ****    0 ROOT
