@<TRIPOS>MOLECULE
VRB
   83    76     1     0     0
SMALL
bcc


@<TRIPOS>ATOM
      1 C01        -3.1230   -4.3220   -1.0880 c3        1 VRB     -0.235000
      2 C02        -2.3790   -4.3550    0.2450 c3        1 VRB     -0.122000
      3 C03        -1.0600   -5.1490    0.0820 c2        1 VRB     -0.057000
      4 C04        -1.0300   -6.4490    0.3430 c1        1 VRB     -0.183000
      5 C05        -2.1410   -7.3770   -0.2070 c2        1 VRB     -0.171667
      6 C06         0.1810   -6.9400    0.6160 c2        1 VRB      0.323000
      7 O07         0.4680   -8.0950    0.8840 o         1 VRB     -0.380000
      8 N08         1.1500   -5.7640    0.4100 n         1 VRB     -0.364000
      9 C09         0.2200   -4.4600    0.2090 c3        1 VRB      0.019000
     10 C10         0.2700   -3.5330    1.3290 c3        1 VRB     -0.097000
     11 C11         1.3130   -2.4270    1.0340 c2        1 VRB     -0.131000
     12 C12         2.5320   -2.2450    1.7100 c1        1 VRB     -0.105000
     13 C13         3.0500   -3.1100    2.9010 c2        1 VRB     -0.171667
     14 C14         3.0970   -1.1170    1.2510 c1        1 VRB     -0.097000
     15 C15         2.2470   -0.5720    0.2850 c1        1 VRB     -0.108000
     16 C16         2.5560    0.6580   -0.6070 c2        1 VRB     -0.040000
     17 C17         1.1960    1.3440   -1.0630 c2        1 VRB     -0.060000
     18 C18         0.9780    1.9940   -2.2780 c1        1 VRB     -0.126000
     19 C19         1.9550    2.0770   -3.4240 c2        1 VRB     -0.096000
     20 C20         2.7210    3.3950   -3.3450 c3        1 VRB     -0.220000
     21 C21         3.9360    3.3560   -4.3320 c2        1 VRB      0.324000
     22 O22         4.3800    4.4330   -4.8320 o         1 VRB     -0.590250
     23 O23         4.4370    2.2350   -4.6840 o         1 VRB     -0.590250
     24 C24        -0.2780    2.5560   -2.2410 c1        1 VRB     -0.051000
     25 C25        -0.8470    2.2540   -0.9940 c1        1 VRB     -0.132000
     26 N26         0.0660    1.5100   -0.2790 n2        1 VRB     -0.162000
     27 C27        -2.3230    2.5380   -0.5720 c1        1 VRB     -0.036000
     28 C28        -2.6170    3.6270    0.2000 c1        1 VRB     -0.065000
     29 N29        -1.6200    4.7080    0.7650 n         1 VRB     -0.306000
     30 C30        -2.5510    5.7070    1.5710 c2        1 VRB      0.323000
     31 O31        -2.2910    6.8520    1.8540 o         1 VRB     -0.353000
     32 C32        -3.8780    5.1470    1.4130 c2        1 VRB     -0.187000
     33 C33        -3.9070    4.0400    0.6790 c1        1 VRB     -0.015000
     34 C34        -4.9690    3.0320    0.9030 c3        1 VRB     -0.176000
     35 C35        -4.9170    5.3670    2.4760 c3        1 VRB     -0.098000
     36 C36        -5.2970    6.8410    2.5180 c3        1 VRB     -0.205000
     37 C37        -1.0360    3.2310   -3.4710 c2        1 VRB     -0.171667
     38 N38         1.1540   -1.3980    0.1690 n2        1 VRB     -0.167000
     39 C39         4.5310   -0.6010    1.6110 c2        1 VRB     -0.096000
     40 C40         5.5830   -1.5570    1.0350 c3        1 VRB     -0.220000
     41 C41         6.9050   -0.8230    0.8890 c2        1 VRB      0.324000
     42 O42         7.3250   -0.4910   -0.2650 o         1 VRB     -0.590250
     43 O43         7.5550   -0.4910    1.9160 o         1 VRB     -0.590250
     44 H1         -2.7120   -4.9460   -1.7020 hc        1 VRB      0.100000
     45 H2         -3.0780   -3.4180   -1.4650 hc        1 VRB      0.100000
     46 H3         -4.0730   -4.5740   -0.9450 hc        1 VRB      0.100000
     47 H4         -2.9290   -4.7790    0.9100 hc        1 VRB      0.091500
     48 H5         -2.1740   -3.4400    0.5260 hc        1 VRB      0.091500
     49 H6         -2.4970   -7.0030   -1.0380 ha        1 VRB      0.091000
     50 H7         -2.8640   -7.4490    0.4550 ha        1 VRB      0.091000
     51 H8         -1.7620   -8.2780   -0.3860 ha        1 VRB      0.091000
     52 H9          2.0370   -5.7770    0.5180 hn        1 VRB      0.234000
     53 H10         0.4670   -3.8800   -0.5650 h1        1 VRB      0.139000
     54 H11         0.5240   -4.0100    2.1340 hc        1 VRB      0.097000
     55 H12        -0.6190   -3.1230    1.4580 hc        1 VRB      0.097000
     56 H13         3.8730   -2.6900    3.2870 ha        1 VRB      0.091000
     57 H14         3.2600   -4.0050    2.5830 ha        1 VRB      0.091000
     58 H15         2.3500   -3.1640    3.5960 ha        1 VRB      0.091000
     59 H16         3.0990    1.3110   -0.0940 ha        1 VRB      0.109500
     60 H17         3.0680    0.3630   -1.4150 ha        1 VRB      0.109500
     61 H18         2.5840    1.3300   -3.3710 ha        1 VRB      0.086000
     62 H19         1.4780    2.0340   -4.2540 ha        1 VRB      0.086000
     63 H20         3.0490    3.5300   -2.4220 hc        1 VRB      0.070000
     64 H21         2.1250    4.1350   -3.5920 hc        1 VRB      0.070000
     65 H23        -0.0530    1.1810    0.5690 DU        1 VRB      0.249500
     66 H26        -5.8290    3.4820    1.0060 hc        1 VRB      0.089667
     67 H27        -5.0090    2.4210    0.1310 hc        1 VRB      0.089667
     68 H28        -4.7660    2.5190    1.7160 hc        1 VRB      0.089667
     69 H29        -5.7050    4.8350    2.2730 hc        1 VRB      0.091500
     70 H30        -4.5510    5.0930    3.3610 hc        1 VRB      0.091500
     71 H31        -6.2740    6.9310    2.4310 hc        1 VRB      0.070000
     72 H32        -4.8560    7.3160    1.7730 hc        1 VRB      0.070000
     73 H33        -5.0100    7.2270    3.3640 hc        1 VRB      0.070000
     74 H34        -1.9580    3.4480   -3.2080 ha        1 VRB      0.091000
     75 H35        -1.0510    2.5970   -4.2410 ha        1 VRB      0.091000
     76 H36        -0.5620    4.0660   -3.7370 ha        1 VRB      0.091000
     77 H37         0.4530   -1.2960   -0.4340 DU        1 VRB      0.249500
     78 H38         4.6270   -0.5620    2.5780 ha        1 VRB      0.086000
     79 H39         4.6600    0.2890    1.2350 ha        1 VRB      0.086000
     80 H40         5.6980   -2.3250    1.6450 hc        1 VRB      0.070000
     81 H41         5.2920   -1.8750    0.1680 hc        1 VRB      0.070000
     82 H24        -3.0450    1.9700   -0.9110 ha        1 VRB      0.144000
     83 H421       -0.8140    4.8880    0.4490 hn        1 VRB      0.241000
@<TRIPOS>BOND
     1    1    2 1   
     2    1   44 1   
     3    1   45 1   
     4    1   46 1   
     5    2    3 1   
     6    2   47 1   
     7    2   48 1   
     8    3    4 1   
     9    3    9 1   
    10    4    6 1   
    11    5   49 1   
    12    5   50 1   
    13    5   51 1   
    14    6    7 1   
    15    6    8 1   
    16    8    9 1   
    17    8   52 1   
    18    9   10 1   
    19    9   53 1   
    20   10   11 1   
    21   10   54 1   
    22   10   55 1   
    23   11   12 1   
    24   11   38 1   
    25   12   14 1   
    26   13   56 1   
    27   13   57 1   
    28   13   58 1   
    29   14   15 1   
    30   15   38 1   
    31   16   17 1   
    32   16   59 1   
    33   16   60 1   
    34   17   18 1   
    35   17   26 1   
    36   18   24 1   
    37   19   20 1   
    38   19   61 1   
    39   19   62 1   
    40   20   21 1   
    41   20   63 1   
    42   20   64 1   
    43   21   22 1   
    44   21   23 1   
    45   24   25 1   
    46   25   26 1   
    47   27   28 1   
    48   27   82 1   
    49   28   29 1   
    50   29   30 1   
    51   29   83 1   
    52   30   31 1   
    53   30   32 1   
    54   32   33 1   
    55   32   35 1   
    56   33   34 1   
    57   34   66 1   
    58   34   67 1   
    59   34   68 1   
    60   35   36 1   
    61   35   69 1   
    62   35   70 1   
    63   36   71 1   
    64   36   72 1   
    65   36   73 1   
    66   37   74 1   
    67   37   75 1   
    68   37   76 1   
    69   39   40 1   
    70   39   78 1   
    71   39   79 1   
    72   40   41 1   
    73   40   80 1   
    74   40   81 1   
    75   41   42 1   
    76   41   43 1   
@<TRIPOS>SUBSTRUCTURE
     1 VRB         1 TEMP              0 ****  ****    0 ROOT
