@<TRIPOS>MOLECULE
VRB
   83    86     1     0     0
SMALL
bcc


@<TRIPOS>ATOM
      1 C01        -0.1840   -0.5370    0.3940 c3        1 VRB     -0.089100
      2 C02         1.2330   -0.0100    0.3900 c3        1 VRB     -0.034200
      3 C03         1.9290   -0.2770    1.6600 c2        1 VRB     -0.088400
      4 C04         2.4430   -1.4440    2.1210 ce        1 VRB     -0.198400
      5 C05         2.4170   -2.7830    1.5310 c3        1 VRB     -0.030900
      6 C06         3.0920   -1.1870    3.4600 c         1 VRB      0.680700
      7 O07         3.6600   -2.0250    4.1760 o         1 VRB     -0.638500
      8 N08         3.0230    0.1960    3.7130 n         1 VRB     -0.523900
      9 C09         2.2360    0.8460    2.6560 c3        1 VRB      0.098900
     10 C10         0.9670    1.5660    3.1250 c3        1 VRB     -0.018100
     11 C11         1.2730    2.9180    3.6400 cc        1 VRB     -0.148600
     12 C12         1.7660    4.0460    2.9390 cd        1 VRB     -0.172300
     13 C13         2.1390    4.1040    1.5260 c3        1 VRB     -0.003800
     14 C14         1.8280    5.1310    3.8750 cd        1 VRB     -0.132300
     15 C15         1.3730    4.6250    5.1160 cc        1 VRB     -0.117600
     16 C16         1.2570    5.3470    6.4050 c3        1 VRB      0.056200
     17 C17        -0.0840    5.9570    6.6080 cc        1 VRB     -0.083600
     18 C18        -1.3310    5.3450    6.9000 cd        1 VRB     -0.136300
     19 C19        -1.6660    3.9100    6.9150 c3        1 VRB      0.000900
     20 C20        -0.9170    3.0640    7.9210 c3        1 VRB     -0.191400
     21 C21        -0.9520    1.5840    7.5180 c         1 VRB      0.907600
     22 O22        -1.5960    0.7680    8.2330 o         1 VRB     -0.858800
     23 O23        -0.3100    1.2260    6.4770 o         1 VRB     -0.858800
     24 C24        -2.2820    6.4050    7.0430 cd        1 VRB     -0.145300
     25 C25        -1.5960    7.6330    6.8130 cc        1 VRB     -0.121100
     26 N26        -0.2570    7.3350    6.5720 na        1 VRB     -0.134100
     27 C27        -2.1920    8.9320    6.8460 ce        1 VRB     -0.053200
     28 C28        -1.6340   10.1640    6.8860 cd        1 VRB     -0.024400
     29 N29        -0.2630   10.5430    6.9510 n         1 VRB     -0.444100
     30 C30        -0.1940   11.9490    7.0780 c         1 VRB      0.686700
     31 O31         0.8430   12.6190    7.1900 o         1 VRB     -0.630500
     32 C32        -1.6110   12.4720    7.1470 cc        1 VRB     -0.215400
     33 C33        -2.4530   11.4090    7.0130 cd        1 VRB     -0.047200
     34 C34        -3.9190   11.3890    7.0000 c3        1 VRB     -0.046900
     35 C35        -1.8990   13.9060    7.2880 c3        1 VRB     -0.005200
     36 C36        -1.4240   14.4550    8.6130 c3        1 VRB     -0.091100
     37 C37        -3.7010    6.2460    7.3680 c3        1 VRB     -0.009800
     38 N38         1.0570    3.2810    4.9630 na        1 VRB     -0.138100
     39 C39         2.2800    6.5090    3.6190 c3        1 VRB      0.006900
     40 C40         1.1400    7.4550    3.2840 c3        1 VRB     -0.186400
     41 C41         1.4140    8.8730    3.7890 c         1 VRB      0.913600
     42 O42         1.5240    9.0600    5.0490 o         1 VRB     -0.865300
     43 O43         1.5080    9.8180    2.9610 o         1 VRB     -0.865300
     44 H1         -0.1900   -1.6400    0.5750 hc        1 VRB      0.037700
     45 H2         -0.7830   -0.0460    1.1990 hc        1 VRB      0.037700
     46 H3         -0.6700   -0.3320   -0.5890 hc        1 VRB      0.037700
     47 H4          1.2190    1.0970    0.1940 hc        1 VRB      0.048200
     48 H5          1.8040   -0.4930   -0.4500 hc        1 VRB      0.048200
     49 H6          1.4010   -3.2410    1.6520 hc        1 VRB      0.041033
     50 H7          2.6500   -2.7400    0.4380 hc        1 VRB      0.041033
     51 H8          3.1630   -3.4450    2.0390 hc        1 VRB      0.041033
     52 H9          2.9090    0.5260    4.6440 hn        1 VRB      0.333500
     53 H10         2.9110    1.6030    2.1510 h1        1 VRB      0.087700
     54 H11         0.2840    1.6720    2.2380 hc        1 VRB      0.075700
     55 H12         0.4260    0.9550    3.9020 hc        1 VRB      0.075700
     56 H13         3.2340    3.9080    1.3960 hc        1 VRB      0.020700
     57 H14         1.5780    3.3390    0.9310 hc        1 VRB      0.020700
     58 H15         1.9160    5.1180    1.1060 hc        1 VRB      0.020700
     59 H16         1.4670    4.6540    7.2670 hc        1 VRB      0.065200
     60 H17         2.0550    6.1440    6.4190 hc        1 VRB      0.065200
     61 H18        -1.4850    3.4930    5.8850 hc        1 VRB      0.042700
     62 H19        -2.7690    3.7960    7.1110 hc        1 VRB      0.042700
     63 H20        -1.3700    3.1840    8.9370 hc        1 VRB      0.028200
     64 H21         0.1540    3.3810    7.9860 hc        1 VRB      0.028200
     65 H23         0.4290    7.9670    6.1930 hn        1 VRB      0.356700
     66 H26        -4.2900   10.9230    6.0520 hc        1 VRB      0.042033
     67 H27        -4.3400   12.4210    7.0750 hc        1 VRB      0.042033
     68 H28        -4.3060   10.7860    7.8600 hc        1 VRB      0.042033
     69 H29        -3.0010   14.0950    7.1740 hc        1 VRB      0.038200
     70 H30        -1.3760   14.4560    6.4570 hc        1 VRB      0.038200
     71 H31        -1.6010   15.5570    8.6590 hc        1 VRB      0.033367
     72 H32        -0.3300   14.2580    8.7340 hc        1 VRB      0.033367
     73 H33        -1.9680   13.9730    9.4600 hc        1 VRB      0.033367
     74 H34        -3.8420    5.4330    8.1240 hc        1 VRB      0.025033
     75 H35        -4.1350    7.1880    7.7850 hc        1 VRB      0.025033
     76 H36        -4.2830    5.9690    6.4510 hc        1 VRB      0.025033
     77 H37         0.6130    2.6940    5.6560 hn        1 VRB      0.360700
     78 H38         3.0210    6.5080    2.7750 hc        1 VRB      0.037700
     79 H39         2.8140    6.9000    4.5300 hc        1 VRB      0.037700
     80 H40         0.9780    7.4790    2.1780 hc        1 VRB      0.035200
     81 H41         0.1920    7.0980    3.7620 hc        1 VRB      0.035200
     82 H24        -3.2990    8.8950    6.8570 ha        1 VRB      0.123000
     83 H421        0.4380   10.0560    6.4170 hn        1 VRB      0.388500
@<TRIPOS>BOND
     1    1    2 1   
     2    1   44 1   
     3    1   45 1   
     4    1   46 1   
     5    2    3 1   
     6    2   47 1   
     7    2   48 1   
     8    3    4 2   
     9    3    9 1   
    10    4    5 1   
    11    4    6 1   
    12    5   49 1   
    13    5   50 1   
    14    5   51 1   
    15    6    7 2   
    16    6    8 1   
    17    8    9 1   
    18    8   52 1   
    19    9   10 1   
    20    9   53 1   
    21   10   11 1   
    22   10   54 1   
    23   10   55 1   
    24   11   12 2   
    25   11   38 1   
    26   12   13 1   
    27   12   14 1   
    28   13   56 1   
    29   13   57 1   
    30   13   58 1   
    31   14   15 2   
    32   14   39 1   
    33   15   16 1   
    34   15   38 1   
    35   16   17 1   
    36   16   59 1   
    37   16   60 1   
    38   17   18 2   
    39   17   26 1   
    40   18   19 1   
    41   18   24 1   
    42   19   20 1   
    43   19   61 1   
    44   19   62 1   
    45   20   21 1   
    46   20   63 1   
    47   20   64 1   
    48   21   22 1   
    49   21   23 1   
    50   24   25 2   
    51   24   37 1   
    52   25   26 1   
    53   25   27 1   
    54   26   65 1   
    55   27   28 2   
    56   27   82 1   
    57   28   29 1   
    58   28   33 1   
    59   29   30 1   
    60   29   83 1   
    61   30   31 2   
    62   30   32 1   
    63   32   33 2   
    64   32   35 1   
    65   33   34 1   
    66   34   66 1   
    67   34   67 1   
    68   34   68 1   
    69   35   36 1   
    70   35   69 1   
    71   35   70 1   
    72   36   71 1   
    73   36   72 1   
    74   36   73 1   
    75   37   74 1   
    76   37   75 1   
    77   37   76 1   
    78   38   77 1   
    79   39   40 1   
    80   39   78 1   
    81   39   79 1   
    82   40   41 1   
    83   40   80 1   
    84   40   81 1   
    85   41   42 1   
    86   41   43 1   
@<TRIPOS>SUBSTRUCTURE
     1 VRB         1 TEMP              0 ****  ****    0 ROOT
