@<TRIPOS>MOLECULE
VRB
   83    86     1     0     0
SMALL
bcc


@<TRIPOS>ATOM
      1 C01         6.8600   -3.0990    0.3670 c3        1 VRB     -0.085100
      2 C02         6.2510   -2.0100   -0.4860 c3        1 VRB     -0.043200
      3 C03         6.4380   -0.6670    0.0860 c2        1 VRB     -0.084400
      4 C04         7.5800    0.0180    0.3460 ce        1 VRB     -0.212400
      5 C05         8.9780   -0.3700    0.1580 c3        1 VRB     -0.025900
      6 C06         7.2080    1.3800    0.8870 c         1 VRB      0.678700
      7 O07         8.0080    2.2840    1.1920 o         1 VRB     -0.664500
      8 N08         5.8200    1.4190    1.0400 n         1 VRB     -0.522900
      9 C09         5.2310    0.2040    0.4510 c3        1 VRB      0.101900
     10 C10         4.2740   -0.5340    1.4010 c3        1 VRB      0.009900
     11 C11         3.0150   -0.9410    0.7360 cc        1 VRB     -0.145600
     12 C12         2.3780   -2.2060    0.7460 cd        1 VRB     -0.173300
     13 C13         2.8940   -3.4150    1.3870 c3        1 VRB     -0.002800
     14 C14         1.1450   -2.0630    0.0250 cd        1 VRB     -0.133300
     15 C15         1.0830   -0.7180   -0.4140 cc        1 VRB     -0.120600
     16 C16         0.0400   -0.0750   -1.2460 c3        1 VRB      0.053200
     17 C17        -0.9300    0.7280   -0.4530 cc        1 VRB     -0.080600
     18 C18        -0.7800    1.9790    0.2010 cd        1 VRB     -0.140300
     19 C19         0.4400    2.7780    0.4140 c3        1 VRB      0.002900
     20 C20         1.1930    3.1930   -0.8320 c3        1 VRB     -0.189400
     21 C21         2.6500    3.5360   -0.5020 c         1 VRB      0.910600
     22 O22         3.0330    4.7360   -0.5560 o         1 VRB     -0.864300
     23 O23         3.4430    2.5810   -0.2000 o         1 VRB     -0.864300
     24 C24        -2.0550    2.2940    0.7740 cd        1 VRB     -0.144300
     25 C25        -2.9420    1.2220    0.4670 cc        1 VRB     -0.123100
     26 N26        -2.2390    0.2920   -0.2950 na        1 VRB     -0.136100
     27 C27        -4.3110    1.1290    0.8700 ce        1 VRB     -0.054200
     28 C28        -5.3120    0.3370    0.4200 cd        1 VRB     -0.022400
     29 N29        -5.3200   -0.6160   -0.6350 n         1 VRB     -0.447100
     30 C30        -6.6350   -1.1110   -0.7850 c         1 VRB      0.687700
     31 O31        -7.0100   -1.9360   -1.6310 o         1 VRB     -0.627500
     32 C32        -7.5110   -0.3840    0.2100 cc        1 VRB     -0.213400
     33 C33        -6.7150    0.4570    0.9290 cd        1 VRB     -0.048200
     34 C34        -7.0790    1.3690    2.0170 c3        1 VRB     -0.046900
     35 C35        -8.9500   -0.6580    0.3160 c3        1 VRB     -0.006200
     36 C36        -9.7000   -0.2580   -0.9340 c3        1 VRB     -0.091100
     37 C37        -2.3730    3.5070    1.5290 c3        1 VRB     -0.009800
     38 N38         2.2170   -0.0510    0.0300 na        1 VRB     -0.140100
     39 C39         0.1130   -3.0830   -0.2270 c3        1 VRB      0.010900
     40 C40        -1.0690   -2.9730    0.7220 c3        1 VRB     -0.186400
     41 C41        -2.3800   -3.3570    0.0350 c         1 VRB      0.914600
     42 O42        -2.9450   -2.4960   -0.7220 o         1 VRB     -0.865300
     43 O43        -2.8760   -4.4980    0.2370 o         1 VRB     -0.865300
     44 H1          6.3490   -3.1490    1.3590 hc        1 VRB      0.029700
     45 H2          6.7470   -4.0880   -0.1390 hc        1 VRB      0.029700
     46 H3          7.9470   -2.9040    0.5370 hc        1 VRB      0.029700
     47 H4          6.7160   -2.0360   -1.5100 hc        1 VRB      0.062200
     48 H5          5.1490   -2.2110   -0.6080 hc        1 VRB      0.062200
     49 H6          9.0990   -0.9930   -0.7630 hc        1 VRB      0.036033
     50 H7          9.6220    0.5420    0.0710 hc        1 VRB      0.036033
     51 H8          9.3380   -0.9690    1.0340 hc        1 VRB      0.036033
     52 H9          5.2930    2.2670    0.9290 hn        1 VRB      0.373500
     53 H10         4.6910    0.4980   -0.4990 h1        1 VRB      0.110700
     54 H11         4.7760   -1.4530    1.8050 hc        1 VRB      0.055700
     55 H12         4.0210    0.1250    2.2770 hc        1 VRB      0.055700
     56 H13         2.3260   -4.3180    1.0510 hc        1 VRB      0.020700
     57 H14         3.9770   -3.5660    1.1400 hc        1 VRB      0.020700
     58 H15         2.8040   -3.3430    2.5010 hc        1 VRB      0.020700
     59 H16         0.5110    0.5940   -2.0180 hc        1 VRB      0.067700
     60 H17        -0.5000   -0.8950   -1.8030 hc        1 VRB      0.067700
     61 H18         0.1660    3.7100    0.9830 hc        1 VRB      0.042700
     62 H19         1.1330    2.1970    1.0850 hc        1 VRB      0.042700
     63 H20         1.1940    2.3690   -1.5870 hc        1 VRB      0.031200
     64 H21         0.7000    4.0820   -1.2970 hc        1 VRB      0.031200
     65 H23        -2.5410   -0.6420   -0.5210 hn        1 VRB      0.359700
     66 H26        -6.8660    2.4280    1.7230 hc        1 VRB      0.042033
     67 H27        -8.1650    1.2850    2.2710 hc        1 VRB      0.042033
     68 H28        -6.4820    1.1350    2.9340 hc        1 VRB      0.042033
     69 H29        -9.0900   -1.7620    0.4870 hc        1 VRB      0.038700
     70 H30        -9.3840   -0.1230    1.2040 hc        1 VRB      0.038700
     71 H31        -9.6330    0.8430   -1.1010 hc        1 VRB      0.033700
     72 H32        -9.2620   -0.7800   -1.8210 hc        1 VRB      0.033700
     73 H33       -10.7770   -0.5390   -0.8430 hc        1 VRB      0.033700
     74 H34        -2.0010    4.4140    0.9880 hc        1 VRB      0.025033
     75 H35        -3.4740    3.6220    1.6830 hc        1 VRB      0.025033
     76 H36        -1.8790    3.4810    2.5340 hc        1 VRB      0.025033
     77 H37         2.4290    0.9220   -0.1170 hn        1 VRB      0.356700
     78 H38        -0.2610   -2.9750   -1.2840 hc        1 VRB      0.035200
     79 H39         0.5600   -4.1100   -0.1440 hc        1 VRB      0.035200
     80 H40        -0.9080   -3.6400    1.6060 hc        1 VRB      0.034200
     81 H41        -1.1610   -1.9220    1.0970 hc        1 VRB      0.034200
     82 H24        -4.5750    1.8460    1.6710 ha        1 VRB      0.124000
     83 H421       -4.5330   -1.2120   -0.8190 hn        1 VRB      0.389500
@<TRIPOS>BOND
     1    1    2 1   
     2    1   44 1   
     3    1   45 1   
     4    1   46 1   
     5    2    3 1   
     6    2   47 1   
     7    2   48 1   
     8    3    4 2   
     9    3    9 1   
    10    4    5 1   
    11    4    6 1   
    12    5   49 1   
    13    5   50 1   
    14    5   51 1   
    15    6    7 2   
    16    6    8 1   
    17    8    9 1   
    18    8   52 1   
    19    9   10 1   
    20    9   53 1   
    21   10   11 1   
    22   10   54 1   
    23   10   55 1   
    24   11   12 2   
    25   11   38 1   
    26   12   13 1   
    27   12   14 1   
    28   13   56 1   
    29   13   57 1   
    30   13   58 1   
    31   14   15 2   
    32   14   39 1   
    33   15   16 1   
    34   15   38 1   
    35   16   17 1   
    36   16   59 1   
    37   16   60 1   
    38   17   18 2   
    39   17   26 1   
    40   18   19 1   
    41   18   24 1   
    42   19   20 1   
    43   19   61 1   
    44   19   62 1   
    45   20   21 1   
    46   20   63 1   
    47   20   64 1   
    48   21   22 1   
    49   21   23 1   
    50   24   25 2   
    51   24   37 1   
    52   25   26 1   
    53   25   27 1   
    54   26   65 1   
    55   27   28 2   
    56   27   82 1   
    57   28   29 1   
    58   28   33 1   
    59   29   30 1   
    60   29   83 1   
    61   30   31 2   
    62   30   32 1   
    63   32   33 2   
    64   32   35 1   
    65   33   34 1   
    66   34   66 1   
    67   34   67 1   
    68   34   68 1   
    69   35   36 1   
    70   35   69 1   
    71   35   70 1   
    72   36   71 1   
    73   36   72 1   
    74   36   73 1   
    75   37   74 1   
    76   37   75 1   
    77   37   76 1   
    78   38   77 1   
    79   39   40 1   
    80   39   78 1   
    81   39   79 1   
    82   40   41 1   
    83   40   80 1   
    84   40   81 1   
    85   41   42 1   
    86   41   43 1   
@<TRIPOS>SUBSTRUCTURE
     1 VRB         1 TEMP              0 ****  ****    0 ROOT
