@<TRIPOS>MOLECULE
VRG
   72    72     1     0     0
SMALL
bcc


@<TRIPOS>ATOM
      1 CBB         2.5650   -4.5570    0.0510 c         1 VRG      0.649100
      2 OAE         2.9710   -4.3440    1.2120 o         1 VRG     -0.623100
      3 CAB         2.7740   -5.9060   -0.6020 c3        1 VRG     -0.176100
      4 CAA         9.6230    2.2030    1.6430 c3        1 VRG      0.075300
      5 NAD         5.1970    2.9240   -2.1110 n2        1 VRG     -0.894100
      6 OAH         7.1970    1.1610    0.9100 o         1 VRG     -0.624100
      7 CAS         3.8870    0.4740   -1.2000 c3        1 VRG      0.173800
      8 CAT         1.9910   -1.0950   -0.8850 c3        1 VRG     -0.098400
      9 NAW         8.9070    2.6480    0.4870 n         1 VRG     -0.556900
     10 NAX         5.3240    0.6620   -1.1680 nh        1 VRG     -0.834200
     11 NAY         7.2160    2.2000   -1.1850 n         1 VRG     -0.469400
     12 NAZ         1.9760   -3.5770   -0.7240 n         1 VRG     -0.536900
     13 CBD         5.8130    1.9600   -1.4720 c2        1 VRG      0.648800
     14 CBF         7.7320    1.9630    0.1090 c         1 VRG      0.747100
     15 CBH        -0.0900   -2.2740   -0.3100 c         1 VRG      0.634100
     16 CBK         1.4590   -2.3460   -0.1620 c3        1 VRG      0.017700
     17 NBM        -0.8260   -1.6030    0.6460 n         1 VRG     -0.403800
     18 CBL        -2.1070   -1.0080    0.2460 c3        1 VRG      0.009700
     19 CBG        -1.9160    0.5070   -0.1090 c         1 VRG      0.663100
     20 OAI        -0.7630    0.9220   -0.3680 o         1 VRG     -0.662100
     21 CAV        -3.1660   -1.2000    1.3550 c3        1 VRG     -0.057100
     22 CBI        -4.3310   -1.9940    0.8740 ca        1 VRG     -0.077300
     23 CAQ        -5.4950   -1.3660    0.4140 ca        1 VRG     -0.120500
     24 CAO        -6.5830   -2.1350   -0.0040 ca        1 VRG     -0.145500
     25 CAM        -6.5240   -3.5270    0.0370 ca        1 VRG     -0.159000
     26 CAN        -5.3660   -4.1570    0.4950 ca        1 VRG     -0.145500
     27 CAP        -4.2770   -3.3940    0.9090 ca        1 VRG     -0.120500
     28 N          -3.0440    1.2850   -0.2610 n         1 VRG     -0.490900
     29 CA         -3.0670    2.6140    0.3400 c3        1 VRG     -0.013300
     30 C          -2.3860    2.6660    1.7500 c         1 VRG      0.902600
     31 O          -2.1920    1.5810    2.3840 o         1 VRG     -0.860800
     32 CB         -4.4910    3.1590    0.5040 c3        1 VRG     -0.181400
     33 CG         -5.4910    2.7690   -0.5840 c         1 VRG      0.910600
     34 OD1        -5.9260    1.5710   -0.6150 o         1 VRG     -0.876300
     35 OD2        -5.9100    3.6520   -1.3880 o         1 VRG     -0.876300
     36 OXT        -2.0630    3.7970    2.2050 o         1 VRG     -0.860800
     37 HAB         3.3670   -5.8030   -1.5420 hc        1 VRG      0.057367
     38 HABA        3.3280   -6.5670    0.1070 hc        1 VRG      0.057367
     39 HABB        1.7890   -6.3730   -0.8420 hc        1 VRG      0.057367
     40 HAA        10.3420    1.3730    1.4020 h1        1 VRG      0.043367
     41 HAAA       10.1990    3.0720    2.0570 h1        1 VRG      0.043367
     42 HAAB        8.9000    1.8320    2.4190 h1        1 VRG      0.043367
     43 HNAD        4.2510    2.7480   -2.3650 hn        1 VRG      0.418400
     44 HAR         4.0700   -1.6980   -0.9960 hc        1 VRG      0.049200
     45 HARA        3.6160   -0.8320    0.5260 hc        1 VRG      0.049200
     46 HAS         3.3420    1.3060   -0.6640 h1        1 VRG      0.052200
     47 HASA        3.5650    0.4970   -2.2810 h1        1 VRG      0.052200
     48 HAT         1.3740   -0.2090   -0.5560 hc        1 VRG      0.084200
     49 HATA        1.8390   -1.2040   -1.9910 hc        1 VRG      0.084200
     50 HNAW        9.4630    3.0520   -0.2320 hn        1 VRG      0.291500
     51 HNAX        5.7740    0.2030   -0.4000 hn        1 VRG      0.431800
     52 HNAY        7.5730    3.0030   -1.6640 hn        1 VRG      0.313500
     53 HNAZ        1.5200   -3.8650   -1.5630 hn        1 VRG      0.315500
     54 HBK         1.7610   -2.3080    0.9270 h1        1 VRG      0.101700
     55 HAC         0.7210   -0.3480    1.4220 h1        1 VRG      0.063367
     56 HACA       -0.8890   -0.2140    2.2390 h1        1 VRG      0.063367
     57 HACB        0.1520   -1.7180    2.4980 h1        1 VRG      0.063367
     58 HBL        -2.4540   -1.5260   -0.6960 h1        1 VRG      0.093700
     59 HAV        -2.7150   -1.7350    2.2360 hc        1 VRG      0.088200
     60 HAVA       -3.4860   -0.1950    1.7560 hc        1 VRG      0.088200
     61 HAQ        -5.5680   -0.2560    0.3590 ha        1 VRG      0.170500
     62 HAO        -7.4840   -1.6270   -0.3750 ha        1 VRG      0.117000
     63 HAM        -7.3820   -4.1270   -0.2930 ha        1 VRG      0.100000
     64 HAN        -5.3100   -5.2530    0.5240 ha        1 VRG      0.117000
     65 HAP        -3.3610   -3.8910    1.2610 ha        1 VRG      0.170500
     66 HN         -3.9250    0.8090   -0.1850 hn        1 VRG      0.315500
     67 HA         -2.4810    3.2910   -0.3440 h1        1 VRG      0.054700
     68 HB         -4.9020    2.7980    1.4820 hc        1 VRG      0.038700
     69 HBA        -4.4090    4.2740    0.5520 hc        1 VRG      0.038700
     70 CAR         3.4530   -0.8580   -0.5840 c3        1 VRG     -0.079400
     71 CAC        -0.1720   -0.9440    1.7530 c3        1 VRG      0.032300
     72 OAJ        -0.6240   -2.8580   -1.2820 o         1 VRG     -0.649100
@<TRIPOS>BOND
     1    1    2 2   
     2    1    3 1   
     3    1   12 1   
     4    3   37 1   
     5    3   38 1   
     6    3   39 1   
     7    4    9 1   
     8    4   40 1   
     9    4   41 1   
    10    4   42 1   
    11    5   13 2   
    12    5   43 1   
    13    6   14 2   
    14    7   10 1   
    15    7   46 1   
    16    7   47 1   
    17    7   70 1   
    18    8   16 1   
    19    8   48 1   
    20    8   49 1   
    21    8   70 1   
    22    9   14 1   
    23    9   50 1   
    24   10   13 1   
    25   10   51 1   
    26   11   13 1   
    27   11   14 1   
    28   11   52 1   
    29   12   16 1   
    30   12   53 1   
    31   15   16 1   
    32   15   17 1   
    33   15   72 2   
    34   16   54 1   
    35   17   18 1   
    36   17   71 1   
    37   18   19 1   
    38   18   21 1   
    39   18   58 1   
    40   19   20 2   
    41   19   28 1   
    42   21   22 1   
    43   21   59 1   
    44   21   60 1   
    45   22   23 ar  
    46   22   27 ar  
    47   23   24 ar  
    48   23   61 1   
    49   24   25 ar  
    50   24   62 1   
    51   25   26 ar  
    52   25   63 1   
    53   26   27 ar  
    54   26   64 1   
    55   27   65 1   
    56   28   29 1   
    57   28   66 1   
    58   29   30 1   
    59   29   32 1   
    60   29   67 1   
    61   30   31 1   
    62   30   36 1   
    63   32   33 1   
    64   32   68 1   
    65   32   69 1   
    66   33   34 1   
    67   33   35 1   
    68   44   70 1   
    69   45   70 1   
    70   55   71 1   
    71   56   71 1   
    72   57   71 1   
@<TRIPOS>SUBSTRUCTURE
     1 VRG         1 TEMP              0 ****  ****    0 ROOT
