@<TRIPOS>MOLECULE
VRO
   34    28     1     0     0
SMALL
bcc


@<TRIPOS>ATOM
      1 OAB        -1.8690   -1.2370   -3.2230 o         1 VRO     -0.528000
      2 CAO        -2.2780   -0.1150   -2.8050 c1        1 VRO      0.372000
      3 OAE        -3.4530   -0.0050   -2.3280 o         1 VRO     -0.528000
      4 CAR        -1.4180    1.1300   -3.0050 c1        1 VRO      0.060000
      5 NAL        -1.4940    1.8540   -4.2190 n3        1 VRO     -0.280000
      6 CAT        -0.7120    3.0770   -4.3930 c1        1 VRO      0.381000
      7 OAC        -0.7620    3.6860   -5.4500 o         1 VRO     -0.421000
      8 NAM         0.1150    3.5830   -3.2960 n2        1 VRO     -0.372000
      9 CAU         0.2550    2.8260   -2.1050 c1        1 VRO      0.355000
     10 OAD         1.0080    3.2010   -1.2330 o         1 VRO     -0.394000
     11 CAS        -0.5020    1.5790   -1.9370 c1        1 VRO     -0.268000
     12 CAK        -0.4520    0.8270   -0.6040 c2        1 VRO     -0.074000
     13 CAJ         0.7500   -0.1530   -0.6110 c3        1 VRO     -0.121000
     14 CAP         0.8280   -0.8490    0.6850 c2        1 VRO     -0.079000
     15 CAF         1.8160   -0.4880    1.6180 c2        1 VRO     -0.110000
     16 CAH         1.9050   -1.1570    2.8290 c1        1 VRO     -0.214000
     17 CAQ         1.0070   -2.1940    3.1230 c1        1 VRO      0.050000
     18 OAN         1.1670   -2.9600    4.3250 o         1 VRO     -0.220000
     19 CAA         0.4460   -2.4340    5.4530 c3        1 VRO     -0.070000
     20 CAI         0.0250   -2.5520    2.1930 c1        1 VRO     -0.160000
     21 CAG        -0.0610   -1.8770    0.9750 c1        1 VRO     -0.090000
     22 H2          0.5670    4.3790   -3.3910 hn        1 VRO      0.244000
     23 H4         -1.2730    0.3310   -0.4820 ha        1 VRO      0.097000
     24 H5         -0.3450    1.4790    0.1410 ha        1 VRO      0.097000
     25 H6          1.5860    0.3530   -0.7650 hc        1 VRO      0.097000
     26 H7          0.6280   -0.8200   -1.3370 hc        1 VRO      0.097000
     27 H8          2.4350    0.2310    1.4140 ha        1 VRO      0.127000
     28 H9          2.5900   -0.9060    3.4750 ha        1 VRO      0.120000
     29 H10         1.0300   -1.8040    5.9550 h1        1 VRO      0.072667
     30 H11         0.1750   -3.1770    6.0490 h1        1 VRO      0.072667
     31 H12        -0.3530   -1.9590    5.1380 h1        1 VRO      0.072667
     32 H13        -0.5460   -3.3090    2.3640 ha        1 VRO      0.140000
     33 H14        -0.7820   -2.1010    0.3360 ha        1 VRO      0.193000
     34 H15        -2.0330    1.5600   -4.8910 hn        1 VRO      0.280000
@<TRIPOS>BOND
     1    1    2 1   
     2    2    3 1   
     3    4    5 1   
     4    4   11 1   
     5    5    6 1   
     6    5   34 1   
     7    6    7 1   
     8    8    9 1   
     9    8   22 1   
    10    9   10 1   
    11   12   13 1   
    12   12   23 1   
    13   12   24 1   
    14   13   14 1   
    15   13   25 1   
    16   13   26 1   
    17   14   15 1   
    18   14   21 1   
    19   15   16 1   
    20   15   27 1   
    21   16   28 1   
    22   17   20 1   
    23   18   19 1   
    24   19   29 1   
    25   19   30 1   
    26   19   31 1   
    27   20   32 1   
    28   21   33 1   
@<TRIPOS>SUBSTRUCTURE
     1 VRO         1 TEMP              0 ****  ****    0 ROOT
