@<TRIPOS>MOLECULE
VRO
   34    35     1     0     0
SMALL
bcc


@<TRIPOS>ATOM
      1 OAB         0.6440    2.2800   -0.3990 o         1 VRO     -0.793300
      2 CAO         1.8210    2.1840    0.0210 c         1 VRO      0.921800
      3 OAE         2.5520    3.1250    0.4250 o         1 VRO     -0.793300
      4 CAR         2.4740    0.7670    0.0260 cc        1 VRO      0.043400
      5 NAL         3.8300    0.7450   -0.2610 n         1 VRO     -0.436100
      6 CAT         4.5780   -0.4390   -0.2320 c         1 VRO      0.790500
      7 OAC         5.8140   -0.4400   -0.4600 o         1 VRO     -0.696500
      8 NAM         3.9010   -1.6370    0.0410 n         1 VRO     -0.592500
      9 CAU         2.5210   -1.6770    0.3290 c         1 VRO      0.716700
     10 OAD         2.0290   -2.7960    0.5840 o         1 VRO     -0.669500
     11 CAS         1.8020   -0.3990    0.3050 cd        1 VRO     -0.291400
     12 CAK         0.3480   -0.4390    0.5990 c3        1 VRO      0.008800
     13 CAJ        -0.4710   -0.6230   -0.6720 c3        1 VRO     -0.035100
     14 CAP        -1.9180   -0.3790   -0.4260 ca        1 VRO     -0.086300
     15 CAF        -2.3640    0.9380   -0.2180 ca        1 VRO     -0.100000
     16 CAH        -3.7090    1.2010    0.0010 ca        1 VRO     -0.187000
     17 CAQ        -4.6260    0.1330    0.0120 ca        1 VRO      0.095100
     18 OAN        -5.9470    0.5020    0.2320 os        1 VRO     -0.336900
     19 CAA        -6.8820   -0.5620    0.3020 c3        1 VRO      0.119700
     20 CAI        -4.1980   -1.1800   -0.1920 ca        1 VRO     -0.187000
     21 CAG        -2.8400   -1.4260   -0.4100 ca        1 VRO     -0.100000
     22 H2          4.4360   -2.4750    0.0500 hn        1 VRO      0.330500
     23 H4          0.1330   -1.2810    1.3100 hc        1 VRO      0.057700
     24 H5          0.0430    0.5280    1.0860 hc        1 VRO      0.057700
     25 H6         -0.1050    0.1220   -1.4330 hc        1 VRO      0.057700
     26 H7         -0.3070   -1.6540   -1.0780 hc        1 VRO      0.057700
     27 H8         -1.6180    1.7570   -0.2310 ha        1 VRO      0.160000
     28 H9         -4.0680    2.2260    0.1660 ha        1 VRO      0.130000
     29 H10        -6.6250   -1.2650    1.1320 h1        1 VRO      0.033367
     30 H11        -7.8550   -0.0490    0.5090 h1        1 VRO      0.033367
     31 H12        -6.9300   -1.1130   -0.6690 h1        1 VRO      0.033367
     32 H13        -4.9060   -2.0190   -0.1840 ha        1 VRO      0.130000
     33 H14        -2.4970   -2.4590   -0.5680 ha        1 VRO      0.160000
     34 H15         4.3140    1.6160   -0.3410 hn        1 VRO      0.366500
@<TRIPOS>BOND
     1    1    2 1   
     2    2    3 1   
     3    2    4 1   
     4    4    5 1   
     5    4   11 2   
     6    5    6 1   
     7    5   34 1   
     8    6    7 2   
     9    6    8 1   
    10    8    9 1   
    11    8   22 1   
    12    9   10 2   
    13    9   11 1   
    14   11   12 1   
    15   12   13 1   
    16   12   23 1   
    17   12   24 1   
    18   13   14 1   
    19   13   25 1   
    20   13   26 1   
    21   14   15 ar  
    22   14   21 ar  
    23   15   16 ar  
    24   15   27 1   
    25   16   17 ar  
    26   16   28 1   
    27   17   18 1   
    28   17   20 ar  
    29   18   19 1   
    30   19   29 1   
    31   19   30 1   
    32   19   31 1   
    33   20   21 ar  
    34   20   32 1   
    35   21   33 1   
@<TRIPOS>SUBSTRUCTURE
     1 VRO         1 TEMP              0 ****  ****    0 ROOT
