@<TRIPOS>MOLECULE
VRO
   34    35     1     0     0
SMALL
bcc


@<TRIPOS>ATOM
      1 OAB        -0.0870    0.6860    0.0450 o         1 VRO     -0.793300
      2 CAO         1.0570    0.1760    0.0930 c         1 VRO      0.921800
      3 OAE         1.6370   -0.2730    1.1150 o         1 VRO     -0.793300
      4 CAR         1.8710    0.1040   -1.2360 cc        1 VRO      0.043400
      5 NAL         3.2400    0.2850   -1.0970 n         1 VRO     -0.436100
      6 CAT         4.1180    0.1840   -2.1820 c         1 VRO      0.790500
      7 OAC         5.3590    0.3170   -2.0360 o         1 VRO     -0.696500
      8 NAM         3.5700   -0.0500   -3.4520 n         1 VRO     -0.592500
      9 CAU         2.1860   -0.2310   -3.6560 c         1 VRO      0.716700
     10 OAD         1.8130   -0.4610   -4.8250 o         1 VRO     -0.669500
     11 CAS         1.3240   -0.1370   -2.4730 cd        1 VRO     -0.291400
     12 CAK        -0.1330   -0.3190   -2.6870 c3        1 VRO      0.008800
     13 CAJ        -0.8230    1.0090   -2.9700 c3        1 VRO     -0.035100
     14 CAP        -2.3040    0.8780   -2.9010 ca        1 VRO     -0.086300
     15 CAF        -2.9180    0.7200   -1.6460 ca        1 VRO     -0.100000
     16 CAH        -4.2980    0.6090   -1.5450 ca        1 VRO     -0.187000
     17 CAQ        -5.0790    0.6550   -2.7150 ca        1 VRO      0.095100
     18 OAN        -6.4470    0.5420   -2.5070 os        1 VRO     -0.336900
     19 CAA        -7.2520    0.5320   -3.6750 c3        1 VRO      0.119700
     20 CAI        -4.4830    0.8110   -3.9690 ca        1 VRO     -0.187000
     21 CAG        -3.0930    0.9210   -4.0500 ca        1 VRO     -0.100000
     22 H2          4.1980   -0.1100   -4.2200 hn        1 VRO      0.330500
     23 H4         -0.3010   -1.0210   -3.5460 hc        1 VRO      0.057700
     24 H5         -0.5880   -0.7690   -1.7620 hc        1 VRO      0.057700
     25 H6         -0.5070    1.3900   -3.9760 hc        1 VRO      0.057700
     26 H7         -0.4900    1.7490   -2.1890 hc        1 VRO      0.057700
     27 H8         -2.2760    0.6850   -0.7430 ha        1 VRO      0.160000
     28 H9         -4.7880    0.4840   -0.5700 ha        1 VRO      0.130000
     29 H10        -6.9790   -0.3230   -4.3400 h1        1 VRO      0.033367
     30 H11        -7.1590    1.4980   -4.2300 h1        1 VRO      0.033367
     31 H12        -8.2920    0.4060   -3.2810 h1        1 VRO      0.033367
     32 H13        -5.0850    0.8470   -4.8860 ha        1 VRO      0.130000
     33 H14        -2.6180    1.0400   -5.0360 ha        1 VRO      0.160000
     34 H15         3.6210    0.3380   -0.1740 hn        1 VRO      0.366500
@<TRIPOS>BOND
     1    1    2 1   
     2    2    3 1   
     3    2    4 1   
     4    4    5 1   
     5    4   11 2   
     6    5    6 1   
     7    5   34 1   
     8    6    7 2   
     9    6    8 1   
    10    8    9 1   
    11    8   22 1   
    12    9   10 2   
    13    9   11 1   
    14   11   12 1   
    15   12   13 1   
    16   12   23 1   
    17   12   24 1   
    18   13   14 1   
    19   13   25 1   
    20   13   26 1   
    21   14   15 ar  
    22   14   21 ar  
    23   15   16 ar  
    24   15   27 1   
    25   16   17 ar  
    26   16   28 1   
    27   17   18 1   
    28   17   20 ar  
    29   18   19 1   
    30   19   29 1   
    31   19   30 1   
    32   19   31 1   
    33   20   21 ar  
    34   20   32 1   
    35   21   33 1   
@<TRIPOS>SUBSTRUCTURE
     1 VRO         1 TEMP              0 ****  ****    0 ROOT
