@<TRIPOS>MOLECULE
VRO
   34    35     1     0     0
SMALL
bcc


@<TRIPOS>ATOM
      1 OAB        -0.0880    0.6840    0.0460 o         1 VRO     -0.793300
      2 CAO         1.0560    0.1730    0.0940 c         1 VRO      0.921800
      3 OAE         1.6350   -0.2760    1.1160 o         1 VRO     -0.793300
      4 CAR         1.8710    0.1030   -1.2350 cc        1 VRO      0.043400
      5 NAL         3.2390    0.2840   -1.0950 ns        1 VRO     -0.436100
      6 CAT         4.1180    0.1840   -2.1790 c         1 VRO      0.790500
      7 OAC         5.3590    0.3170   -2.0320 o         1 VRO     -0.696500
      8 NAM         3.5700   -0.0490   -3.4490 ns        1 VRO     -0.592500
      9 CAU         2.1870   -0.2290   -3.6550 c         1 VRO      0.716700
     10 OAD         1.8140   -0.4580   -4.8240 o         1 VRO     -0.669500
     11 CAS         1.3240   -0.1370   -2.4720 cd        1 VRO     -0.291400
     12 CAK        -0.1330   -0.3180   -2.6870 c3        1 VRO      0.008800
     13 CAJ        -0.8230    1.0100   -2.9690 c3        1 VRO     -0.035100
     14 CAP        -2.3040    0.8790   -2.9010 ca        1 VRO     -0.086300
     15 CAF        -2.9190    0.7200   -1.6470 ca        1 VRO     -0.100000
     16 CAH        -4.2980    0.6080   -1.5470 ca        1 VRO     -0.187000
     17 CAQ        -5.0790    0.6560   -2.7170 ca        1 VRO      0.095100
     18 OAN        -6.4480    0.5420   -2.5090 os        1 VRO     -0.336900
     19 CAA        -7.2520    0.5310   -3.6780 c3        1 VRO      0.119700
     20 CAI        -4.4820    0.8120   -3.9700 ca        1 VRO     -0.187000
     21 CAG        -3.0920    0.9220   -4.0510 ca        1 VRO     -0.100000
     22 H2          4.1990   -0.1070   -4.2170 hn        1 VRO      0.330500
     23 H4         -0.3000   -1.0190   -3.5470 hc        1 VRO      0.057700
     24 H5         -0.5880   -0.7700   -1.7620 hc        1 VRO      0.057700
     25 H6         -0.5060    1.3910   -3.9740 hc        1 VRO      0.057700
     26 H7         -0.4910    1.7490   -2.1870 hc        1 VRO      0.057700
     27 H8         -2.2770    0.6840   -0.7440 ha        1 VRO      0.160000
     28 H9         -4.7890    0.4830   -0.5720 ha        1 VRO      0.130000
     29 H10        -6.9770   -0.3240   -4.3430 h1        1 VRO      0.033367
     30 H11        -7.1580    1.4970   -4.2330 h1        1 VRO      0.033367
     31 H12        -8.2920    0.4050   -3.2850 h1        1 VRO      0.033367
     32 H13        -5.0830    0.8490   -4.8870 ha        1 VRO      0.130000
     33 H14        -2.6170    1.0420   -5.0360 ha        1 VRO      0.160000
     34 H15         3.6190    0.3360   -0.1720 hn        1 VRO      0.366500
@<TRIPOS>BOND
     1    1    2 1   
     2    2    3 1   
     3    2    4 1   
     4    4    5 1   
     5    4   11 2   
     6    5    6 1   
     7    5   34 1   
     8    6    7 2   
     9    6    8 1   
    10    8    9 1   
    11    8   22 1   
    12    9   10 2   
    13    9   11 1   
    14   11   12 1   
    15   12   13 1   
    16   12   23 1   
    17   12   24 1   
    18   13   14 1   
    19   13   25 1   
    20   13   26 1   
    21   14   15 ar  
    22   14   21 ar  
    23   15   16 ar  
    24   15   27 1   
    25   16   17 ar  
    26   16   28 1   
    27   17   18 1   
    28   17   20 ar  
    29   18   19 1   
    30   19   29 1   
    31   19   30 1   
    32   19   31 1   
    33   20   21 ar  
    34   20   32 1   
    35   21   33 1   
@<TRIPOS>SUBSTRUCTURE
     1 VRO         1 TEMP              0 ****  ****    0 ROOT
