@<TRIPOS>MOLECULE
VRO
   34    35     1     0     0
SMALL
bcc


@<TRIPOS>ATOM
      1 OAB        -0.0890    0.6780    0.0470 o         1 VRO     -0.793300
      2 CAO         1.0550    0.1670    0.0940 c         1 VRO      0.921800
      3 OAE         1.6340   -0.2860    1.1140 o         1 VRO     -0.793300
      4 CAR         1.8710    0.1000   -1.2350 cc        1 VRO      0.043400
      5 NAL         3.2390    0.2810   -1.0940 n         1 VRO     -0.436100
      6 CAT         4.1180    0.1850   -2.1790 c         1 VRO      0.790500
      7 OAC         5.3590    0.3180   -2.0310 o         1 VRO     -0.696500
      8 NAM         3.5710   -0.0440   -3.4500 n         1 VRO     -0.592500
      9 CAU         2.1870   -0.2250   -3.6560 c         1 VRO      0.716700
     10 OAD         1.8150   -0.4500   -4.8260 o         1 VRO     -0.669500
     11 CAS         1.3240   -0.1360   -2.4730 cd        1 VRO     -0.291400
     12 CAK        -0.1330   -0.3170   -2.6890 c3        1 VRO      0.008800
     13 CAJ        -0.8230    1.0110   -2.9670 c3        1 VRO     -0.035100
     14 CAP        -2.3040    0.8790   -2.9000 ca        1 VRO     -0.086300
     15 CAF        -2.9190    0.7170   -1.6460 ca        1 VRO     -0.100000
     16 CAH        -4.2990    0.6040   -1.5470 ca        1 VRO     -0.187000
     17 CAQ        -5.0790    0.6550   -2.7170 ca        1 VRO      0.095100
     18 OAN        -6.4480    0.5400   -2.5100 os        1 VRO     -0.336900
     19 CAA        -7.2510    0.5320   -3.6790 c3        1 VRO      0.119700
     20 CAI        -4.4820    0.8150   -3.9690 ca        1 VRO     -0.187000
     21 CAG        -3.0920    0.9260   -4.0500 ca        1 VRO     -0.100000
     22 H2          4.2000   -0.1010   -4.2180 hn        1 VRO      0.330500
     23 H4         -0.2990   -1.0160   -3.5510 hc        1 VRO      0.057700
     24 H5         -0.5880   -0.7720   -1.7660 hc        1 VRO      0.057700
     25 H6         -0.4910    1.7480   -2.1830 hc        1 VRO      0.057700
     26 H7         -0.5060    1.3960   -3.9710 hc        1 VRO      0.057700
     27 H8         -2.2780    0.6790   -0.7430 ha        1 VRO      0.160000
     28 H9         -4.7900    0.4760   -0.5730 ha        1 VRO      0.130000
     29 H10        -6.9760   -0.3210   -4.3460 h1        1 VRO      0.033367
     30 H11        -7.1590    1.4990   -4.2310 h1        1 VRO      0.033367
     31 H12        -8.2920    0.4040   -3.2860 h1        1 VRO      0.033367
     32 H13        -5.0830    0.8530   -4.8860 ha        1 VRO      0.130000
     33 H14        -2.6170    1.0480   -5.0350 ha        1 VRO      0.160000
     34 H15         3.6190    0.3310   -0.1710 hn        1 VRO      0.366500
@<TRIPOS>BOND
     1    1    2 1   
     2    2    3 1   
     3    2    4 1   
     4    4    5 1   
     5    4   11 2   
     6    5    6 1   
     7    5   34 1   
     8    6    7 2   
     9    6    8 1   
    10    8    9 1   
    11    8   22 1   
    12    9   10 2   
    13    9   11 1   
    14   11   12 1   
    15   12   13 1   
    16   12   23 1   
    17   12   24 1   
    18   13   14 1   
    19   13   25 1   
    20   13   26 1   
    21   14   15 ar  
    22   14   21 ar  
    23   15   16 ar  
    24   15   27 1   
    25   16   17 ar  
    26   16   28 1   
    27   17   18 1   
    28   17   20 ar  
    29   18   19 1   
    30   19   29 1   
    31   19   30 1   
    32   19   31 1   
    33   20   21 ar  
    34   20   32 1   
    35   21   33 1   
@<TRIPOS>SUBSTRUCTURE
     1 VRO         1 TEMP              0 ****  ****    0 ROOT
