@<TRIPOS>MOLECULE
VRV
   34    25     1     0     0
SMALL
bcc


@<TRIPOS>ATOM
      1 C1         -2.3950    1.1300   -4.3320 c1        1 VRV     -0.044000
      2 C2         -1.0050    1.1140   -4.3330 c1        1 VRV     -0.215000
      3 C3         -0.3080    1.1300   -3.1280 c1        1 VRV      0.117000
      4 C4         -1.0030    1.1640   -1.9220 c1        1 VRV     -0.020667
      5 C5         -2.3920    1.1810   -1.9220 c1        1 VRV     -0.135000
      6 C6         -3.0900    1.1640   -3.1280 c1        1 VRV     -0.208000
      7 C7         -0.2880    1.1610   -0.6870 c1        1 VRV      0.150000
      8 N8          0.1680    2.3370   -0.1590 n2        1 VRV     -0.265000
      9 C9          0.8370    2.3380    1.0400 c1        1 VRV      0.342000
     10 C10         1.0520    1.1410    1.7200 c1        1 VRV     -0.126000
     11 C11         0.5950   -0.0380    1.1910 c1        1 VRV     -0.020667
     12 C12        -0.0740   -0.0380   -0.0080 c1        1 VRV     -0.135000
     13 C13         0.8060   -1.2660    1.8930 c1        1 VRV     -0.020667
     14 C14         1.9600   -2.0060    1.6680 c1        1 VRV     -0.117500
     15 C15         2.1690   -3.1950    2.3560 c1        1 VRV     -0.117500
     16 C16         1.2220   -3.6450    3.2720 c1        1 VRV     -0.117500
     17 C17         0.0690   -2.9070    3.4980 c1        1 VRV     -0.117500
     18 C18        -0.1400   -1.7170    2.8090 c1        1 VRV     -0.135000
     19 C19         1.8470    1.1360    3.0310 c1        1 VRV     -0.073000
     20 N20         2.4400    1.1320    4.0090 n1        1 VRV     -0.036000
     21 O21         1.2430    3.3860    1.5110 o         1 VRV     -0.344000
     22 O22         1.0940    1.0780   -3.1290 oh        1 VRV     -0.252000
     23 BR23       -4.9990    1.2780   -3.1300 br        1 VRV      0.073000
     24 H1         -2.8840    1.1190   -5.1780 ha        1 VRV      0.156000
     25 H2         -0.5200    1.0900   -5.1750 ha        1 VRV      0.148000
     26 H5         -2.8770    1.2040   -1.0810 ha        1 VRV      0.152333
     27 HN8         0.0260    3.1290   -0.6080 hn        1 VRV      0.262000
     28 H12        -0.4000   -0.8800   -0.3860 ha        1 VRV      0.152333
     29 H14         2.6240   -1.6910    1.0250 ha        1 VRV      0.139500
     30 H15         2.9850   -3.7180    2.1960 ha        1 VRV      0.139500
     31 H16         1.3700   -4.4850    3.7580 ha        1 VRV      0.139500
     32 H17        -0.5940   -3.2220    4.1400 ha        1 VRV      0.139500
     33 H18        -0.9500   -1.1980    2.9680 ha        1 VRV      0.152333
     34 HO22        1.4100    1.5950   -3.7820 ho        1 VRV      0.236000
@<TRIPOS>BOND
     1    1    6 1   
     2    1   24 1   
     3    2    3 1   
     4    2   25 1   
     5    3   22 1   
     6    4    5 1   
     7    5   26 1   
     8    6   23 1   
     9    7    8 1   
    10    8   27 1   
    11    9   10 1   
    12    9   21 1   
    13   10   19 1   
    14   11   12 1   
    15   12   28 1   
    16   13   18 1   
    17   14   15 1   
    18   14   29 1   
    19   15   30 1   
    20   16   17 1   
    21   16   31 1   
    22   17   32 1   
    23   18   33 1   
    24   19   20 1   
    25   22   34 1   
@<TRIPOS>SUBSTRUCTURE
     1 VRV         1 TEMP              0 ****  ****    0 ROOT
