@<TRIPOS>MOLECULE
VRV
   34    36     1     0     0
SMALL
bcc


@<TRIPOS>ATOM
      1 C1          2.0450   -2.1580   -3.9130 ca        1 VRV     -0.051000
      2 C2          0.6960   -1.9890   -3.6420 ca        1 VRV     -0.161000
      3 C3          0.2490   -1.9590   -2.3060 ca        1 VRV      0.176100
      4 C4          1.1670   -2.0980   -1.2480 ca        1 VRV     -0.183800
      5 C5          2.5260   -2.2750   -1.5440 ca        1 VRV     -0.046000
      6 C6          2.9660   -2.3030   -2.8650 ca        1 VRV     -0.067900
      7 C7          0.7350   -2.0460    0.1600 cc        1 VRV      0.144400
      8 N8          1.0840   -3.0870    0.9910 n         1 VRV     -0.433100
      9 C9          0.7240   -3.1070    2.3550 c         1 VRV      0.702700
     10 C10        -0.0630   -1.9660    2.8470 cc        1 VRV     -0.104900
     11 C11        -0.4000   -0.9270    2.0090 cd        1 VRV      0.131800
     12 C12         0.0030   -0.9760    0.6370 cd        1 VRV     -0.267000
     13 C13        -1.1620    0.2400    2.4540 ca        1 VRV     -0.090800
     14 C14        -2.2400    0.7040    1.6840 ca        1 VRV     -0.098500
     15 C15        -2.9670    1.8180    2.0970 ca        1 VRV     -0.130000
     16 C16        -2.6190    2.4850    3.2720 ca        1 VRV     -0.109000
     17 C17        -1.5440    2.0340    4.0360 ca        1 VRV     -0.130000
     18 C18        -0.8180    0.9140    3.6330 ca        1 VRV     -0.098500
     19 C19        -0.4520   -2.0210    4.2070 cg        1 VRV      0.214500
     20 N20        -0.7700   -2.0890    5.3250 n1        1 VRV     -0.352800
     21 O21         1.0940   -4.0820    3.0320 o         1 VRV     -0.609500
     22 O22        -1.1000   -1.7920   -2.1410 oh        1 VRV     -0.487100
     23 BR23        4.7820   -2.5330   -3.2440 br        1 VRV     -0.068100
     24 H1          2.3880   -2.1790   -4.9610 ha        1 VRV      0.157000
     25 H2         -0.0400   -1.8770   -4.4530 ha        1 VRV      0.164000
     26 H5          3.2480   -2.3770   -0.7160 ha        1 VRV      0.156000
     27 HN8         1.6160   -3.8510    0.6300 hn        1 VRV      0.343500
     28 H12        -0.2420   -0.1340   -0.0260 ha        1 VRV      0.167000
     29 H14        -2.5160    0.1790    0.7570 ha        1 VRV      0.140000
     30 H15        -3.8170    2.1710    1.4940 ha        1 VRV      0.139500
     31 H16        -3.1940    3.3650    3.5960 ha        1 VRV      0.138000
     32 H17        -1.2680    2.5570    4.9640 ha        1 VRV      0.139500
     33 H18         0.0300    0.5590    4.2400 ha        1 VRV      0.140000
     34 HO22       -1.3120   -1.8490   -1.1950 ho        1 VRV      0.435000
@<TRIPOS>BOND
     1    1    2 ar  
     2    1    6 ar  
     3    1   24 1   
     4    2    3 ar  
     5    2   25 1   
     6    3    4 ar  
     7    3   22 1   
     8    4    5 ar  
     9    4    7 1   
    10    5    6 ar  
    11    5   26 1   
    12    6   23 1   
    13    7    8 1   
    14    7   12 2   
    15    8    9 1   
    16    8   27 1   
    17    9   10 1   
    18    9   21 2   
    19   10   11 2   
    20   10   19 1   
    21   11   12 1   
    22   11   13 1   
    23   12   28 1   
    24   13   14 ar  
    25   13   18 ar  
    26   14   15 ar  
    27   14   29 1   
    28   15   16 ar  
    29   15   30 1   
    30   16   17 ar  
    31   16   31 1   
    32   17   18 ar  
    33   17   32 1   
    34   18   33 1   
    35   19   20 3   
    36   22   34 1   
@<TRIPOS>SUBSTRUCTURE
     1 VRV         1 TEMP              0 ****  ****    0 ROOT
