@<TRIPOS>MOLECULE
VRV
   34    36     1     0     0
SMALL
bcc


@<TRIPOS>ATOM
      1 C1         -0.2550   -0.1020    0.1970 ca        1 VRV     -0.044000
      2 C2          0.9660    0.5500    0.0870 ca        1 VRV     -0.215000
      3 C3          1.8330    0.6070    1.1910 ca        1 VRV      0.162100
      4 C4          1.4810   -0.0060    2.4120 ca        1 VRV     -0.118800
      5 C5          0.2400   -0.6520    2.5010 ca        1 VRV     -0.042000
      6 C6         -0.6240   -0.7030    1.4060 ca        1 VRV     -0.067900
      7 C7          2.3640   -0.0100    3.5920 cc        1 VRV      0.164400
      8 N8          3.0310    1.1410    3.9420 ns        1 VRV     -0.421100
      9 C9          3.8870    1.2000    5.0610 c         1 VRV      0.703700
     10 C10         4.0050   -0.0220    5.8680 cc        1 VRV     -0.111900
     11 C11         3.3320   -1.1700    5.5090 cd        1 VRV      0.131800
     12 C12         2.4920   -1.1580    4.3540 cd        1 VRV     -0.258000
     13 C13         3.4360   -2.4200    6.2640 ca        1 VRV     -0.086800
     14 C14         4.6860   -2.9280    6.6410 ca        1 VRV     -0.100000
     15 C15         4.7710   -4.1270    7.3470 ca        1 VRV     -0.131500
     16 C16         3.6120   -4.8240    7.6870 ca        1 VRV     -0.112000
     17 C17         2.3640   -4.3220    7.3150 ca        1 VRV     -0.131500
     18 C18         2.2740   -3.1280    6.6030 ca        1 VRV     -0.100000
     19 C19         4.8310    0.0640    7.0140 cg        1 VRV      0.219500
     20 N20         5.5070    0.1550    7.9570 n1        1 VRV     -0.361800
     21 O21         4.4690    2.2770    5.2830 o         1 VRV     -0.619500
     22 O22         3.0410    1.2560    1.1220 oh        1 VRV     -0.498100
     23 Br23       -2.2720   -1.5730    1.5560 br        1 VRV     -0.067100
     24 H1         -0.9300   -0.1400   -0.6740 ha        1 VRV      0.156000
     25 H2          1.2570    1.0230   -0.8620 ha        1 VRV      0.148000
     26 H5         -0.0480   -1.1200    3.4580 ha        1 VRV      0.161000
     27 HN8         2.9840    1.9390    3.3410 hn        1 VRV      0.348500
     28 H12         1.9670   -2.0790    4.0650 ha        1 VRV      0.161000
     29 H14         5.6030   -2.3780    6.3770 ha        1 VRV      0.140500
     30 H15         5.7560   -4.5190    7.6390 ha        1 VRV      0.138000
     31 H16         3.6810   -5.7670    8.2480 ha        1 VRV      0.136000
     32 H17         1.4480   -4.8680    7.5860 ha        1 VRV      0.138000
     33 H18         1.2880   -2.7330    6.3130 ha        1 VRV      0.140500
     34 HO22        3.1720    1.5630    0.2110 ho        1 VRV      0.437000
@<TRIPOS>BOND
     1    1    2 ar  
     2    1    6 ar  
     3    1   24 1   
     4    2    3 ar  
     5    2   25 1   
     6    3    4 ar  
     7    3   22 1   
     8    4    5 ar  
     9    4    7 1   
    10    5    6 ar  
    11    5   26 1   
    12    6   23 1   
    13    7    8 1   
    14    7   12 2   
    15    8    9 1   
    16    8   27 1   
    17    9   10 1   
    18    9   21 2   
    19   10   11 2   
    20   10   19 1   
    21   11   12 1   
    22   11   13 1   
    23   12   28 1   
    24   13   14 ar  
    25   13   18 ar  
    26   14   15 ar  
    27   14   29 1   
    28   15   16 ar  
    29   15   30 1   
    30   16   17 ar  
    31   16   31 1   
    32   17   18 ar  
    33   17   32 1   
    34   18   33 1   
    35   19   20 3   
    36   22   34 1   
@<TRIPOS>SUBSTRUCTURE
     1 VRV         1 TEMP              0 ****  ****    0 ROOT
