@<TRIPOS>MOLECULE
VRV
   34    36     1     0     0
SMALL
bcc


@<TRIPOS>ATOM
      1 C1         -0.2370   -0.1340    0.1760 ca        1 VRV     -0.044000
      2 C2          0.9640    0.5590    0.0920 ca        1 VRV     -0.215000
      3 C3          1.8150    0.6280    1.2070 ca        1 VRV      0.162100
      4 C4          1.4680   -0.0130    2.4150 ca        1 VRV     -0.118800
      5 C5          0.2480   -0.7000    2.4780 ca        1 VRV     -0.042000
      6 C6         -0.6000   -0.7630    1.3720 ca        1 VRV     -0.067900
      7 C7          2.3360   -0.0060    3.6060 cc        1 VRV      0.164400
      8 N8          2.9610    1.1610    3.9800 n         1 VRV     -0.421100
      9 C9          3.8000    1.2320    5.1110 c         1 VRV      0.703700
     10 C10         3.9480    0.0030    5.9020 cc        1 VRV     -0.111900
     11 C11         3.3170   -1.1610    5.5190 cd        1 VRV      0.131800
     12 C12         2.4920   -1.1600    4.3530 cd        1 VRV     -0.258000
     13 C13         3.4530   -2.4170    6.2580 ca        1 VRV     -0.086800
     14 C14         4.7140   -2.8900    6.6430 ca        1 VRV     -0.100000
     15 C15         4.8290   -4.0950    7.3330 ca        1 VRV     -0.131500
     16 C16         3.6890   -4.8340    7.6490 ca        1 VRV     -0.112000
     17 C17         2.4300   -4.3680    7.2690 ca        1 VRV     -0.131500
     18 C18         2.3100   -3.1680    6.5720 ca        1 VRV     -0.100000
     19 C19         4.7570    0.0990    7.0600 cg        1 VRV      0.219500
     20 N20         5.4170    0.1990    8.0130 n1        1 VRV     -0.361800
     21 O21         4.3440    2.3250    5.3560 o         1 VRV     -0.619500
     22 O22         3.0020    1.3170    1.1630 oh        1 VRV     -0.498100
     23 BR23       -2.2210   -1.6880    1.4880 br        1 VRV     -0.067100
     24 H1         -0.8990   -0.1810   -0.7040 ha        1 VRV      0.156000
     25 H2          1.2520    1.0550   -0.8480 ha        1 VRV      0.148000
     26 H5         -0.0360   -1.1910    3.4250 ha        1 VRV      0.161000
     27 HN8         2.8960    1.9660    3.3900 hn        1 VRV      0.348500
     28 H12         2.0010   -2.0920    4.0450 ha        1 VRV      0.161000
     29 H14         5.6160   -2.3070    6.3990 ha        1 VRV      0.140500
     30 H15         5.8230   -4.4590    7.6330 ha        1 VRV      0.138000
     31 H16         3.7820   -5.7830    8.1980 ha        1 VRV      0.136000
     32 H17         1.5300   -4.9470    7.5200 ha        1 VRV      0.138000
     33 H18         1.3160   -2.8000    6.2750 ha        1 VRV      0.140500
     34 HO22        3.1350    1.6410    0.2580 ho        1 VRV      0.437000
@<TRIPOS>BOND
     1    1    2 ar  
     2    1    6 ar  
     3    1   24 1   
     4    2    3 ar  
     5    2   25 1   
     6    3    4 ar  
     7    3   22 1   
     8    4    5 ar  
     9    4    7 1   
    10    5    6 ar  
    11    5   26 1   
    12    6   23 1   
    13    7    8 1   
    14    7   12 2   
    15    8    9 1   
    16    8   27 1   
    17    9   10 1   
    18    9   21 2   
    19   10   11 2   
    20   10   19 1   
    21   11   12 1   
    22   11   13 1   
    23   12   28 1   
    24   13   14 ar  
    25   13   18 ar  
    26   14   15 ar  
    27   14   29 1   
    28   15   16 ar  
    29   15   30 1   
    30   16   17 ar  
    31   16   31 1   
    32   17   18 ar  
    33   17   32 1   
    34   18   33 1   
    35   19   20 3   
    36   22   34 1   
@<TRIPOS>SUBSTRUCTURE
     1 VRV         1 TEMP              0 ****  ****    0 ROOT
