@<TRIPOS>MOLECULE
VRX
   41    43     1     0     0
SMALL
bcc


@<TRIPOS>ATOM
      1 C1         -0.2410    0.5500    0.1880 ca        1 VRX     -0.077500
      2 C2          0.4460   -0.0530   -0.8580 ca        1 VRX     -0.172500
      3 C3          0.9500   -1.3580   -0.6910 ca        1 VRX      0.146900
      4 C4          0.7540   -2.0420    0.5220 ca        1 VRX     -0.172500
      5 C5          0.0700   -1.4200    1.5620 ca        1 VRX     -0.077500
      6 C6         -0.4280   -0.1210    1.4060 ca        1 VRX     -0.141300
      7 F           1.6200   -1.9540   -1.7050 f         1 VRX     -0.134900
      8 C8         -1.1940    0.5430    2.5010 c3        1 VRX      0.009800
      9 C9         -1.3800   -0.3780    3.8050 c         1 VRX      0.930600
     10 O10        -0.7630    0.0240    4.8290 o         1 VRX     -0.750800
     11 O11        -2.1310   -1.3550    3.6660 o         1 VRX     -0.750800
     12 N12        -0.4910    1.8220    2.9290 ny        1 VRX     -0.722000
     13 C13        -1.3430    2.9990    2.8370 cc        1 VRX      0.497100
     14 S14        -2.6300    3.2230    3.9950 ss        1 VRX      0.049200
     15 C15        -3.0710    4.6880    3.2460 cc        1 VRX     -0.234600
     16 C16        -2.1700    4.9620    2.0780 c         1 VRX      0.687700
     17 N17        -1.1830    3.9190    1.9090 nd        1 VRX     -0.613100
     18 O18        -2.2400    5.9450    1.3400 o         1 VRX     -0.468100
     19 C19        -4.0590    5.5550    3.5550 cf        1 VRX     -0.025800
     20 C20        -5.0060    5.4550    4.6100 cd        1 VRX      0.205500
     21 C21        -6.0510    6.2960    4.9900 cc        1 VRX     -0.157300
     22 C22        -6.6850    5.6920    6.1260 cc        1 VRX     -0.285300
     23 C23        -6.0010    4.5110    6.3890 cd        1 VRX      0.324000
     24 O24        -4.9650    4.3420    5.4740 os        1 VRX     -0.355800
     25 C25        -6.1430    3.4440    7.3950 c3        1 VRX     -0.131700
     26 C26        -7.2920    3.7030    8.3370 c3        1 VRX     -0.094100
     27 H261       -7.3620    2.8710    9.0790 hc        1 VRX      0.046367
     28 H262       -7.1450    4.6620    8.8900 hc        1 VRX      0.046367
     29 H263       -8.2580    3.7630    7.7780 hc        1 VRX      0.046367
     30 H251       -5.1800    3.3600    7.9730 hc        1 VRX      0.079200
     31 H252       -6.2910    2.4630    6.8640 hc        1 VRX      0.079200
     32 H22        -7.5380    6.0870    6.6720 ha        1 VRX      0.174000
     33 H21        -6.3380    7.2340    4.5190 ha        1 VRX      0.171000
     34 H19        -4.1730    6.4650    2.9250 ha        1 VRX      0.174000
     35 H12        -0.2310    1.6660    3.9440 hn        1 VRX      0.479300
     36 H8         -2.2280    0.8030    2.1350 hx        1 VRX      0.106700
     37 H5         -0.1030   -1.9670    2.5070 ha        1 VRX      0.161000
     38 H4          1.1390   -3.0660    0.6400 ha        1 VRX      0.156500
     39 H2          0.5940    0.4710   -1.8130 ha        1 VRX      0.156500
     40 H1         -0.6520    1.5620    0.0440 ha        1 VRX      0.161000
     41 H122        0.3650    1.9470    2.3760 hn        1 VRX      0.479300
@<TRIPOS>BOND
     1    1    2 ar  
     2    1    6 ar  
     3    1   40 1   
     4    2    3 ar  
     5    2   39 1   
     6    3    4 ar  
     7    3    7 1   
     8    4    5 ar  
     9    4   38 1   
    10    5    6 ar  
    11    5   37 1   
    12    6    8 1   
    13    8    9 1   
    14    8   12 1   
    15    8   36 1   
    16    9   10 1   
    17    9   11 1   
    18   12   13 1   
    19   12   35 1   
    20   12   41 1   
    21   13   14 1   
    22   13   17 2   
    23   14   15 1   
    24   15   16 1   
    25   15   19 2   
    26   16   17 1   
    27   16   18 2   
    28   19   20 1   
    29   19   34 1   
    30   20   21 2   
    31   20   24 1   
    32   21   22 1   
    33   21   33 1   
    34   22   23 2   
    35   22   32 1   
    36   23   24 1   
    37   23   25 1   
    38   25   26 1   
    39   25   30 1   
    40   25   31 1   
    41   26   27 1   
    42   26   28 1   
    43   26   29 1   
@<TRIPOS>SUBSTRUCTURE
     1 VRX         1 TEMP              0 ****  ****    0 ROOT
