@<TRIPOS>MOLECULE
VRX
   40    42     1     0     0
SMALL
bcc


@<TRIPOS>ATOM
      1 C1          3.9660   -1.8450   -4.1630 ca        1 VRX     -0.083500
      2 C2          5.0170   -2.1060   -5.0380 ca        1 VRX     -0.182000
      3 C3          6.3380   -1.8620   -4.6230 ca        1 VRX      0.102900
      4 C4          6.5960   -1.3610   -3.3340 ca        1 VRX     -0.182000
      5 C5          5.5330   -1.1080   -2.4730 ca        1 VRX     -0.083500
      6 C6          4.2140   -1.3480   -2.8790 ca        1 VRX     -0.080300
      7 F           7.3690   -2.1110   -5.4700 f         1 VRX     -0.164900
      8 C8          3.0710   -1.0900   -1.9350 c3        1 VRX      0.100800
      9 C9          3.4870   -1.5110   -0.4580 c         1 VRX      0.924600
     10 O10         3.1850   -2.6750   -0.1160 o         1 VRX     -0.806800
     11 O11         4.0710   -0.6380    0.2420 o         1 VRX     -0.806800
     12 N12         2.6620    0.3050   -1.9310 nh        1 VRX     -0.736200
     13 C13         1.8880    0.8940   -2.8520 cc        1 VRX      0.736100
     14 S14         1.5020    2.6600   -2.6120 ss        1 VRX     -0.217800
     15 C15         0.5610    2.6810   -4.0130 cc        1 VRX     -0.115600
     16 C16         0.5650    1.2890   -4.6530 c         1 VRX      0.697700
     17 N17         1.3300    0.3530   -3.9440 nd        1 VRX     -0.740100
     18 O18        -0.0590    1.0560   -5.6980 o         1 VRX     -0.560100
     19 C19        -0.1360    3.6670   -4.6000 cf        1 VRX     -0.162800
     20 C20        -0.2830    5.0280   -4.1860 cd        1 VRX      0.296500
     21 C21        -0.9970    6.0750   -4.7570 cc        1 VRX     -0.248300
     22 C22        -0.7960    7.2270   -3.9180 cc        1 VRX     -0.270300
     23 C23         0.0290    6.8280   -2.8800 cd        1 VRX      0.256000
     24 O24         0.3600    5.4780   -3.0230 os        1 VRX     -0.343800
     25 C25         0.6070    7.5210   -1.7170 c3        1 VRX     -0.111700
     26 C26        -0.0460    7.1000   -0.4210 c3        1 VRX     -0.093100
     27 H261       -1.1320    7.3590   -0.4220 hc        1 VRX      0.041700
     28 H262        0.4450    7.6190    0.4370 hc        1 VRX      0.041700
     29 H263        0.0530    5.9970   -0.2780 hc        1 VRX      0.041700
     30 H251        1.7080    7.2990   -1.6690 hc        1 VRX      0.057700
     31 H252        0.4840    8.6270   -1.8680 hc        1 VRX      0.057700
     32 H22        -1.2160    8.2150   -4.0810 ha        1 VRX      0.153000
     33 H21        -1.5960    6.0390   -5.6620 ha        1 VRX      0.158000
     34 H19        -0.6850    3.4290   -5.5350 ha        1 VRX      0.164000
     35 H12         3.0200    0.8430   -1.1620 hn        1 VRX      0.478800
     36 H8          2.1890   -1.7260   -2.2370 h1        1 VRX      0.084700
     37 H5          5.7160   -0.7320   -1.4490 ha        1 VRX      0.165000
     38 H4          7.6310   -1.1790   -3.0170 ha        1 VRX      0.133000
     39 H2          4.8250   -2.4950   -6.0460 ha        1 VRX      0.133000
     40 H1          2.9280   -2.0220   -4.4870 ha        1 VRX      0.165000
@<TRIPOS>BOND
     1    1    2 ar  
     2    1    6 ar  
     3    1   40 1   
     4    2    3 ar  
     5    2   39 1   
     6    3    4 ar  
     7    3    7 1   
     8    4    5 ar  
     9    4   38 1   
    10    5    6 ar  
    11    5   37 1   
    12    6    8 1   
    13    8    9 1   
    14    8   12 1   
    15    8   36 1   
    16    9   10 1   
    17    9   11 1   
    18   12   13 1   
    19   12   35 1   
    20   13   14 1   
    21   13   17 2   
    22   14   15 1   
    23   15   16 1   
    24   15   19 2   
    25   16   17 1   
    26   16   18 2   
    27   19   20 1   
    28   19   34 1   
    29   20   21 2   
    30   20   24 1   
    31   21   22 1   
    32   21   33 1   
    33   22   23 2   
    34   22   32 1   
    35   23   24 1   
    36   23   25 1   
    37   25   26 1   
    38   25   30 1   
    39   25   31 1   
    40   26   27 1   
    41   26   28 1   
    42   26   29 1   
@<TRIPOS>SUBSTRUCTURE
     1 VRX         1 TEMP              0 ****  ****    0 ROOT
