@<TRIPOS>MOLECULE
VRX
   41    43     1     0     0
SMALL
bcc


@<TRIPOS>ATOM
      1 C1         -0.1640    0.5780    0.2310 ca        1 VRX     -0.077500
      2 C2          0.5460   -0.0110   -0.8070 ca        1 VRX     -0.172500
      3 C3          1.0010   -1.3380   -0.6650 ca        1 VRX      0.146900
      4 C4          0.7340   -2.0550    0.5150 ca        1 VRX     -0.172500
      5 C5          0.0260   -1.4450    1.5470 ca        1 VRX     -0.077500
      6 C6         -0.4230   -0.1260    1.4160 ca        1 VRX     -0.141300
      7 F           1.6940   -1.9210   -1.6700 f         1 VRX     -0.134900
      8 C8         -1.2130    0.5260    2.5010 c3        1 VRX      0.009800
      9 C9         -1.4830   -0.4310    3.7640 c         1 VRX      0.930600
     10 O10        -0.8960   -0.0850    4.8260 o         1 VRX     -0.750800
     11 O11        -2.2580   -1.3780    3.5610 o         1 VRX     -0.750800
     12 N12        -0.4880    1.7660    3.0020 n4        1 VRX     -0.722000
     13 C13        -1.2980    2.9730    2.9170 cc        1 VRX      0.497100
     14 S14        -2.6230    3.2000    4.0300 ss        1 VRX      0.049200
     15 C15        -2.9870    4.7040    3.3160 cc        1 VRX     -0.234600
     16 C16        -2.0300    4.9860    2.1940 c         1 VRX      0.687700
     17 N17        -1.0710    3.9170    2.0290 nd        1 VRX     -0.613100
     18 O18        -2.0390    5.9940    1.4870 o         1 VRX     -0.468100
     19 C19        -3.9590    5.5920    3.6150 cf        1 VRX     -0.025800
     20 C20        -4.9500    5.4890    4.6280 cd        1 VRX      0.205500
     21 C21        -5.9820    6.3510    4.9950 cc        1 VRX     -0.157300
     22 C22        -6.6800    5.7310    6.0830 cc        1 VRX     -0.285300
     23 C23        -6.0450    4.5200    6.3330 cd        1 VRX      0.324000
     24 O24        -4.9790    4.3480    5.4540 os        1 VRX     -0.355800
     25 C25        -6.2610    3.4260    7.2950 c3        1 VRX     -0.131700
     26 C26        -7.4380    3.6920    8.2010 c3        1 VRX     -0.094100
     27 H261       -8.3780    3.8040    7.6080 hc        1 VRX      0.046367
     28 H262       -7.5630    2.8390    8.9110 hc        1 VRX      0.046367
     29 H263       -7.2810    4.6270    8.7920 hc        1 VRX      0.046367
     30 H251       -5.3250    3.2910    7.9070 hc        1 VRX      0.079200
     31 H252       -6.4210    2.4680    6.7260 hc        1 VRX      0.079200
     32 H22        -7.5420    6.1350    6.6090 ha        1 VRX      0.174000
     33 H21        -6.2200    7.3130    4.5440 ha        1 VRX      0.171000
     34 H19        -4.0180    6.5250    3.0120 ha        1 VRX      0.174000
     35 H12         0.3930    1.8810    2.4890 hn        1 VRX      0.479300
     36 H8         -2.2210    0.8320    2.1030 hx        1 VRX      0.106700
     37 H5         -0.2030   -2.0180    2.4650 ha        1 VRX      0.161000
     38 H4          1.0810   -3.0940    0.6130 ha        1 VRX      0.156500
     39 H2          0.7510    0.5390   -1.7360 ha        1 VRX      0.156500
     40 H1         -0.5370    1.6080    0.1050 ha        1 VRX      0.161000
     41 H122       -0.2760    1.5670    4.0200 hn        1 VRX      0.479300
@<TRIPOS>BOND
     1    1    2 ar  
     2    1    6 ar  
     3    1   40 1   
     4    2    3 ar  
     5    2   39 1   
     6    3    4 ar  
     7    3    7 1   
     8    4    5 ar  
     9    4   38 1   
    10    5    6 ar  
    11    5   37 1   
    12    6    8 1   
    13    8    9 1   
    14    8   12 1   
    15    8   36 1   
    16    9   10 1   
    17    9   11 1   
    18   12   13 1   
    19   12   35 1   
    20   12   41 1   
    21   13   14 1   
    22   13   17 2   
    23   14   15 1   
    24   15   16 1   
    25   15   19 2   
    26   16   17 1   
    27   16   18 2   
    28   19   20 1   
    29   19   34 1   
    30   20   21 2   
    31   20   24 1   
    32   21   22 1   
    33   21   33 1   
    34   22   23 2   
    35   22   32 1   
    36   23   24 1   
    37   23   25 1   
    38   25   26 1   
    39   25   30 1   
    40   25   31 1   
    41   26   27 1   
    42   26   28 1   
    43   26   29 1   
@<TRIPOS>SUBSTRUCTURE
     1 VRX         1 TEMP              0 ****  ****    0 ROOT
