@<TRIPOS>MOLECULE
VRZ
   58    62     1     0     0
SMALL
bcc


@<TRIPOS>ATOM
      1 CAP        -5.3360   -2.9500    0.8100 c3        1 VRZ     -0.094400
      2 CAN        -5.9340   -4.1410    0.0800 c3        1 VRZ     -0.080400
      3 CAO        -6.1460   -3.7380   -1.3740 c3        1 VRZ     -0.080400
      4 CAQ        -5.6790   -2.3000   -1.5300 c3        1 VRZ     -0.094400
      5 CBE        -5.5780   -1.7240   -0.0990 c3        1 VRZ      0.048000
      6 NBF        -4.5990   -0.6770    0.0480 na        1 VRZ     -0.154100
      7 CAM        -3.2240   -0.8040   -0.1910 cc        1 VRZ     -0.107100
      8 C4         -4.8510    0.6460    0.4370 ca        1 VRZ      0.473800
      9 N3         -6.0450    1.2300    0.7800 nb        1 VRZ     -0.741000
     10 C2         -5.9180    2.5250    1.1330 ca        1 VRZ      0.677900
     11 N1         -4.8050    3.3070    1.2010 nb        1 VRZ     -0.793000
     12 C6         -3.6130    2.7310    0.8420 ca        1 VRZ      0.725200
     13 NAA        -2.4540    3.4870    0.8200 nh        1 VRZ     -0.946500
     14 C5         -3.5820    1.3580    0.4380 ca        1 VRZ     -0.361400
     15 CBB        -2.5720    0.4130    0.0300 cd        1 VRZ     -0.056400
     16 CAZ        -1.1540    0.6410   -0.1370 ca        1 VRZ     -0.052800
     17 CAK        -0.6820    1.6240   -1.0180 ca        1 VRZ     -0.101500
     18 CAI         0.6800    1.8300   -1.1910 ca        1 VRZ     -0.163000
     19 CAJ        -0.2230   -0.1410    0.5580 ca        1 VRZ     -0.101500
     20 CAH         1.1450    0.0480    0.3930 ca        1 VRZ     -0.163000
     21 CAY         1.6230    1.0410   -0.4880 ca        1 VRZ      0.064600
     22 NAV         2.9930    1.2330   -0.7480 n         1 VRZ     -0.460100
     23 CAW         4.0070    1.0150    0.2100 c         1 VRZ      0.747100
     24 OAB         3.7870    0.4090    1.2840 o         1 VRZ     -0.623100
     25 NAU         5.2930    1.5390   -0.0720 n         1 VRZ     -0.527900
     26 CAR         6.4030    1.0910    0.7370 c3        1 VRZ      0.117300
     27 CAX         7.0770   -0.1670    0.2680 ca        1 VRZ     -0.137300
     28 CAF         6.4730   -1.4060    0.5060 ca        1 VRZ     -0.115000
     29 CAD         7.1030   -2.5800    0.0950 ca        1 VRZ     -0.133500
     30 CAC         8.3370   -2.5210   -0.5530 ca        1 VRZ     -0.121000
     31 CAE         8.9410   -1.2860   -0.7910 ca        1 VRZ     -0.133500
     32 CAG         8.3120   -0.1100   -0.3830 ca        1 VRZ     -0.115000
     33 H1         -5.8190   -2.7940    1.8050 hc        1 VRZ      0.054200
     34 H2         -4.2420   -3.1120    0.9870 hc        1 VRZ      0.054200
     35 H3         -5.2540   -5.0260    0.1520 hc        1 VRZ      0.045700
     36 H4         -6.9090   -4.4340    0.5460 hc        1 VRZ      0.045700
     37 H5         -5.5750   -4.4110   -2.0610 hc        1 VRZ      0.045700
     38 H6         -7.2280   -3.8280   -1.6470 hc        1 VRZ      0.045700
     39 H7         -4.6880   -2.2670   -2.0490 hc        1 VRZ      0.054200
     40 H8         -6.3990   -1.6990   -2.1380 hc        1 VRZ      0.054200
     41 H9         -6.5830   -1.2810    0.1710 h1        1 VRZ      0.095700
     42 H10        -2.8050   -1.7600   -0.5110 h4        1 VRZ      0.174000
     43 H11        -6.8620    3.0370    1.4200 h5        1 VRZ      0.048100
     44 H12        -2.4580    4.3670    1.2800 hn        1 VRZ      0.428800
     45 H13        -1.6000    2.9790    0.8240 hn        1 VRZ      0.428800
     46 H14        -1.4010    2.2390   -1.5830 ha        1 VRZ      0.144000
     47 H15         1.0150    2.6110   -1.8910 ha        1 VRZ      0.151000
     48 H16        -0.5780   -0.9190    1.2520 ha        1 VRZ      0.144000
     49 H17         1.8500   -0.5770    0.9650 ha        1 VRZ      0.151000
     50 H18         3.1840    1.8880   -1.4750 hn        1 VRZ      0.309500
     51 H19         7.1490    1.9390    0.7410 h1        1 VRZ      0.077200
     52 H20         5.4980   -1.4420    1.0210 ha        1 VRZ      0.142500
     53 H21         6.6270   -3.5530    0.2850 ha        1 VRZ      0.133500
     54 H22         8.8350   -3.4470   -0.8750 ha        1 VRZ      0.132000
     55 H23         9.9150   -1.2390   -1.2990 ha        1 VRZ      0.133500
     56 H24         8.7940    0.8620   -0.5690 ha        1 VRZ      0.142500
     57 H25         5.5200    1.6600   -1.0360 hn        1 VRZ      0.289500
     58 H26         6.0370    0.9370    1.7950 h1        1 VRZ      0.077200
@<TRIPOS>BOND
     1    1    2 1   
     2    1    5 1   
     3    1   33 1   
     4    1   34 1   
     5    2    3 1   
     6    2   35 1   
     7    2   36 1   
     8    3    4 1   
     9    3   37 1   
    10    3   38 1   
    11    4    5 1   
    12    4   39 1   
    13    4   40 1   
    14    5    6 1   
    15    5   41 1   
    16    6    7 1   
    17    6    8 1   
    18    7   15 2   
    19    7   42 1   
    20    8    9 ar  
    21    8   14 ar  
    22    9   10 ar  
    23   10   11 ar  
    24   10   43 1   
    25   11   12 ar  
    26   12   13 1   
    27   12   14 ar  
    28   13   44 1   
    29   13   45 1   
    30   14   15 1   
    31   15   16 1   
    32   16   17 ar  
    33   16   19 ar  
    34   17   18 ar  
    35   17   46 1   
    36   18   21 ar  
    37   18   47 1   
    38   19   20 ar  
    39   19   48 1   
    40   20   21 ar  
    41   20   49 1   
    42   21   22 1   
    43   22   23 1   
    44   22   50 1   
    45   23   24 2   
    46   23   25 1   
    47   25   26 1   
    48   25   57 1   
    49   26   27 1   
    50   26   51 1   
    51   26   58 1   
    52   27   28 ar  
    53   27   32 ar  
    54   28   29 ar  
    55   28   52 1   
    56   29   30 ar  
    57   29   53 1   
    58   30   31 ar  
    59   30   54 1   
    60   31   32 ar  
    61   31   55 1   
    62   32   56 1   
@<TRIPOS>SUBSTRUCTURE
     1 VRZ         1 TEMP              0 ****  ****    0 ROOT
