@<TRIPOS>MOLECULE
VRZ
   58    48     1     0     0
SMALL
bcc


@<TRIPOS>ATOM
      1 CAP         0.0820    6.4350    1.6550 c3        1 VRZ     -0.172500
      2 CAN        -0.2950    7.7000    1.3490 c3        1 VRZ     -0.159000
      3 CAO         0.0080    7.8580   -0.2080 c3        1 VRZ     -0.159000
      4 CAQ         0.8910    6.5880   -0.6040 c3        1 VRZ     -0.172500
      5 CBE         1.2540    6.0300    0.5740 c3        1 VRZ      0.028000
      6 NBF         1.3310    4.6020    0.4410 n3        1 VRZ     -0.138000
      7 CAM         0.4430    3.5970    0.1890 c1        1 VRZ     -0.083000
      8 C4          2.5590    4.0240    0.7630 c1        1 VRZ      0.084000
      9 N3          3.7690    4.5670    1.0810 n1        1 VRZ     -0.219000
     10 C2          4.8390    3.7530    1.3420 c1        1 VRZ      0.017000
     11 N1          4.6950    2.3890    1.2850 n1        1 VRZ     -0.271000
     12 C6          3.5010    1.8490    0.9720 c1        1 VRZ      0.213000
     13 NAA         4.1640    0.5870    1.1210 n2        1 VRZ     -0.352000
     14 C5          2.4160    2.6720    0.7070 c1        1 VRZ     -0.223000
     15 CBB         1.1020    2.3960    0.3500 c1        1 VRZ     -0.080000
     16 CAZ         0.5160    1.0430   -0.0670 c1        1 VRZ      0.016000
     17 CAK        -0.0090    0.1860    0.8960 c1        1 VRZ     -0.124167
     18 CAI        -0.4590   -1.0800    0.5310 c1        1 VRZ     -0.124167
     19 CAJ         0.5900    0.6330   -1.3960 c1        1 VRZ     -0.141000
     20 CAH         0.1400   -0.6320   -1.7600 c1        1 VRZ     -0.141000
     21 CAY        -0.3850   -1.4890   -0.7970 c1        1 VRZ      0.016000
     22 NAV        -0.8960   -2.7760   -1.1820 n2        1 VRZ     -0.314000
     23 CAW        -1.3560   -3.6930   -0.1810 c1        1 VRZ      0.373000
     24 OAB        -1.3130   -3.3820    0.9940 o         1 VRZ     -0.384000
     25 NAU        -1.9420   -4.9430   -0.5710 n2        1 VRZ     -0.337000
     26 CAR        -1.5720   -6.1520    0.1090 c3        1 VRZ     -0.006000
     27 CAX        -2.3530   -7.3270   -0.4810 c1        1 VRZ     -0.130000
     28 CAF        -3.6890   -7.5150   -0.1410 c1        1 VRZ     -0.124167
     29 CAD        -4.4100   -8.5600   -0.7080 c1        1 VRZ     -0.124167
     30 CAC        -3.7960   -9.4170   -1.6150 c1        1 VRZ     -0.124167
     31 CAE        -2.4600   -9.2300   -1.9540 c1        1 VRZ     -0.124167
     32 CAG        -1.7390   -8.1850   -1.3870 c1        1 VRZ     -0.119000
     33 H1          0.4410    6.4010    2.5710 hc        1 VRZ      0.093500
     34 H2         -0.6830    5.8240    1.5680 hc        1 VRZ      0.093500
     35 H3         -1.2550    7.8220    1.5240 hc        1 VRZ      0.084750
     36 H4          0.2330    8.3490    1.8670 hc        1 VRZ      0.084750
     37 H5         -0.8320    7.8610   -0.7190 hc        1 VRZ      0.084750
     38 H6          0.5110    8.6870   -0.3740 hc        1 VRZ      0.084750
     39 H7          1.6870    6.8700   -1.1080 hc        1 VRZ      0.093500
     40 H8          0.3580    5.9540   -1.1330 hc        1 VRZ      0.093500
     41 H9          2.1210    6.3900    0.8650 h1        1 VRZ      0.135000
     42 H10        -0.4910    3.7090   -0.0910 DU        1 VRZ      0.173000
     43 H11         5.7100    4.1450    1.5710 ha        1 VRZ      0.184000
     44 H12         5.0760    0.5560    1.2170 hn        1 VRZ      0.231000
     45 H13         3.6770   -0.1900    1.1210 hn        1 VRZ      0.231000
     46 H14        -0.0620    0.4740    1.8320 ha        1 VRZ      0.145833
     47 H15        -0.8290   -1.6830    1.2100 ha        1 VRZ      0.145833
     48 H16         0.9600    1.2370   -2.0750 ha        1 VRZ      0.133500
     49 H17         0.1930   -0.9210   -2.6970 ha        1 VRZ      0.133500
     50 H18        -0.8870   -3.0270   -2.0640 hn        1 VRZ      0.222000
     51 H19        -1.7810   -6.0670    1.0660 h1        1 VRZ      0.116500
     52 H20        -4.1230   -6.9100    0.4980 ha        1 VRZ      0.145833
     53 H21        -5.3530   -8.6920   -0.4690 ha        1 VRZ      0.145833
     54 H22        -4.3050  -10.1540   -2.0150 ha        1 VRZ      0.145833
     55 H23        -2.0270   -9.8350   -2.5940 ha        1 VRZ      0.145833
     56 H24        -0.7970   -8.0530   -1.6260 ha        1 VRZ      0.129000
     57 H25        -2.5620   -4.9670   -1.2460 hn        1 VRZ      0.203000
     58 H26        -0.6090   -6.3090   -0.0030 h1        1 VRZ      0.116500
@<TRIPOS>BOND
     1    1    2 1   
     2    1    5 1   
     3    1   33 1   
     4    1   34 1   
     5    2    3 1   
     6    2   35 1   
     7    2   36 1   
     8    3    4 1   
     9    3   37 1   
    10    3   38 1   
    11    4    5 1   
    12    4   39 1   
    13    4   40 1   
    14    5    6 1   
    15    5   41 1   
    16    6    7 1   
    17    6    8 1   
    18    7   15 1   
    19    8   14 1   
    20    9   10 1   
    21   10   43 1   
    22   11   12 1   
    23   12   14 1   
    24   13   44 1   
    25   13   45 1   
    26   16   19 1   
    27   17   18 1   
    28   17   46 1   
    29   18   47 1   
    30   19   48 1   
    31   20   21 1   
    32   20   49 1   
    33   22   23 1   
    34   22   50 1   
    35   23   24 1   
    36   25   26 1   
    37   25   57 1   
    38   26   27 1   
    39   26   51 1   
    40   26   58 1   
    41   27   32 1   
    42   28   29 1   
    43   28   52 1   
    44   29   53 1   
    45   30   31 1   
    46   30   54 1   
    47   31   55 1   
    48   32   56 1   
@<TRIPOS>SUBSTRUCTURE
     1 VRZ         1 TEMP              0 ****  ****    0 ROOT
