@<TRIPOS>MOLECULE
VRZ
   61    65     1     0     0
SMALL
bcc


@<TRIPOS>ATOM
      1 CAP        -0.1370   -0.0350   -0.2360 c3        1 VRZ     -0.088900
      2 CAN         1.3740   -0.0470   -0.4180 c3        1 VRZ     -0.086400
      3 CAO         1.9940   -0.6520    0.8340 c3        1 VRZ     -0.086400
      4 CAQ         0.8660   -1.0100    1.7910 c3        1 VRZ     -0.088900
      5 CBE        -0.3740   -0.2470    1.2760 c3        1 VRZ      0.012000
      6 NBF        -1.6400   -0.9070    1.5830 na        1 VRZ     -0.096100
      7 CAM        -2.0250   -2.1580    1.1730 cc        1 VRZ      0.037900
      8 C4         -2.6750   -0.3680    2.3750 ca        1 VRZ      0.474800
      9 N3         -2.7270    0.8440    2.9800 nb        1 VRZ     -0.600000
     10 C2         -3.8800    1.0990    3.6460 ca        1 VRZ      0.693900
     11 N1         -4.9730    0.2920    3.7380 nb        1 VRZ     -0.667000
     12 C6         -4.9070   -0.9150    3.1210 ca        1 VRZ      0.500200
     13 NAA        -6.1400   -1.7310    3.1780 n4        1 VRZ     -0.825300
     14 C5         -3.7650   -1.3730    2.4380 ca        1 VRZ     -0.252400
     15 CBB        -3.3060   -2.5120    1.6870 cd        1 VRZ     -0.214400
     16 CAZ        -3.8500   -3.8220    1.4780 ca        1 VRZ      0.106200
     17 CAK        -4.4580   -4.5680    2.5080 ca        1 VRZ     -0.145000
     18 CAI        -4.8360   -5.8910    2.3180 ca        1 VRZ     -0.053000
     19 CAJ        -3.6840   -4.4440    0.2180 ca        1 VRZ     -0.145000
     20 CAH        -4.0590   -5.7600    0.0030 ca        1 VRZ     -0.053000
     21 CAY        -4.6090   -6.5050    1.0700 ca        1 VRZ     -0.119400
     22 NAV        -4.8750   -7.9370    0.8930 n4        1 VRZ     -0.491200
     23 CAW        -6.2700   -8.2340    0.3890 c         1 VRZ      0.461100
     24 OAB        -7.1040   -7.3470    0.3060 o         1 VRZ     -0.298100
     25 NAU        -6.5860   -9.6220   -0.0290 n4        1 VRZ     -0.681800
     26 CAR        -6.1000   -9.9650   -1.4640 c3        1 VRZ      0.220100
     27 CAX        -6.6350  -11.2810   -1.8270 ca        1 VRZ     -0.245300
     28 CAF        -5.8800  -12.4460   -1.5860 ca        1 VRZ     -0.074000
     29 CAD        -6.3540  -13.6810   -2.0100 ca        1 VRZ     -0.115500
     30 CAC        -7.5860  -13.7720   -2.6710 ca        1 VRZ     -0.011000
     31 CAE        -8.3440  -12.6190   -2.9060 ca        1 VRZ     -0.115500
     32 CAG        -7.8770  -11.3790   -2.4860 ca        1 VRZ     -0.074000
     33 H1         -0.6090   -0.8490   -0.8420 hc        1 VRZ      0.058450
     34 H2         -0.5800    0.9380   -0.5660 hc        1 VRZ      0.058450
     35 H3          1.7540    0.9960   -0.5750 hc        1 VRZ      0.073700
     36 H4          1.6510   -0.6370   -1.3280 hc        1 VRZ      0.073700
     37 H5          2.6920    0.0820    1.3150 hc        1 VRZ      0.073700
     38 H6          2.5960   -1.5620    0.5840 hc        1 VRZ      0.073700
     39 H7          1.1060   -0.7000    2.8380 hc        1 VRZ      0.058450
     40 H8          0.6940   -2.1160    1.7930 hc        1 VRZ      0.058450
     41 H9         -0.4030    0.7670    1.7780 h1        1 VRZ      0.124700
     42 H10        -1.3600   -2.7710    0.5470 h4        1 VRZ      0.208000
     43 H11        -3.9520    2.0850    4.1700 h5        1 VRZ      0.124100
     44 H12        -5.9840   -2.6120    2.6830 hn        1 VRZ      0.473800
     45 H13        -6.3940   -1.9130    4.1590 hn        1 VRZ      0.473800
     46 H14        -4.5530   -4.1330    3.5180 ha        1 VRZ      0.177500
     47 H15        -5.2730   -6.4490    3.1650 ha        1 VRZ      0.166000
     48 H16        -3.2400   -3.8680   -0.6150 ha        1 VRZ      0.177500
     49 H17        -3.9040   -6.2050   -0.9960 ha        1 VRZ      0.166000
     50 H18        -4.7480   -8.4030    1.8080 hn        1 VRZ      0.490300
     51 H19        -4.9760   -9.9510   -1.4290 hx        1 VRZ      0.107200
     52 H20        -4.8990  -12.3810   -1.0900 ha        1 VRZ      0.143000
     53 H21        -5.7560  -14.5940   -1.8370 ha        1 VRZ      0.187000
     54 H22        -7.9570  -14.7560   -3.0140 ha        1 VRZ      0.192000
     55 H23        -9.3100  -12.6940   -3.4360 ha        1 VRZ      0.187000
     56 H24        -8.4680  -10.4730   -2.6970 ha        1 VRZ      0.143000
     57 H25        -7.6220   -9.7230   -0.0290 hn        1 VRZ      0.490800
     58 H26        -6.4930   -9.1440   -2.1310 hx        1 VRZ      0.107200
     59 HAA3       -6.9130   -1.2120    2.7340 hn        1 VRZ      0.473800
     60 HAV2       -4.1810   -8.3110    0.2250 hn        1 VRZ      0.490300
     61 HAU2       -6.2120  -10.3230    0.6260 hn        1 VRZ      0.490800
@<TRIPOS>BOND
     1    1    2 1   
     2    1    5 1   
     3    1   33 1   
     4    1   34 1   
     5    2    3 1   
     6    2   35 1   
     7    2   36 1   
     8    3    4 1   
     9    3   37 1   
    10    3   38 1   
    11    4    5 1   
    12    4   39 1   
    13    4   40 1   
    14    5    6 1   
    15    5   41 1   
    16    6    7 1   
    17    6    8 1   
    18    7   15 2   
    19    7   42 1   
    20    8    9 ar  
    21    8   14 ar  
    22    9   10 ar  
    23   10   11 ar  
    24   10   43 1   
    25   11   12 ar  
    26   12   13 1   
    27   12   14 ar  
    28   13   44 1   
    29   13   45 1   
    30   13   59 1   
    31   14   15 1   
    32   15   16 1   
    33   16   17 ar  
    34   16   19 ar  
    35   17   18 ar  
    36   17   46 1   
    37   18   21 ar  
    38   18   47 1   
    39   19   20 ar  
    40   19   48 1   
    41   20   21 ar  
    42   20   49 1   
    43   21   22 1   
    44   22   23 1   
    45   22   50 1   
    46   22   60 1   
    47   23   24 2   
    48   23   25 1   
    49   25   26 1   
    50   25   57 1   
    51   25   61 1   
    52   26   27 1   
    53   26   51 1   
    54   26   58 1   
    55   27   28 ar  
    56   27   32 ar  
    57   28   29 ar  
    58   28   52 1   
    59   29   30 ar  
    60   29   53 1   
    61   30   31 ar  
    62   30   54 1   
    63   31   32 ar  
    64   31   55 1   
    65   32   56 1   
@<TRIPOS>SUBSTRUCTURE
     1 VRZ         1 TEMP              0 ****  ****    0 ROOT
