@<TRIPOS>MOLECULE
VRZ
   59    63     1     0     0
SMALL
bcc


@<TRIPOS>ATOM
      1 CAP         0.2090    0.0950    0.2000 c3        1 VRZ     -0.092900
      2 CAN         1.7230    0.1530    0.3350 c3        1 VRZ     -0.082400
      3 CAO         2.0930   -0.4180    1.6980 c3        1 VRZ     -0.082400
      4 CAQ         0.8060   -0.8240    2.3980 c3        1 VRZ     -0.092900
      5 CBE        -0.3370   -0.1220    1.6290 c3        1 VRZ      0.039000
      6 NBF        -1.5990   -0.8230    1.6770 na        1 VRZ     -0.142100
      7 CAM        -1.8350   -2.1130    1.2040 cc        1 VRZ     -0.074100
      8 C4         -2.7950   -0.3380    2.2320 ca        1 VRZ      0.474800
      9 N3         -3.0360    0.8780    2.8160 nb        1 VRZ     -0.719000
     10 C2         -4.3120    1.0300    3.2240 ca        1 VRZ      0.681900
     11 N1         -5.3650    0.1710    3.1130 nb        1 VRZ     -0.770000
     12 C6         -5.1260   -1.0470    2.5380 ca        1 VRZ      0.703200
     13 NAA        -6.1500   -1.9880    2.4460 nh        1 VRZ     -0.934500
     14 C5         -3.8090   -1.3730    2.0840 ca        1 VRZ     -0.348400
     15 CBB        -3.1650   -2.4920    1.4420 cd        1 VRZ     -0.110400
     16 CAZ        -3.7150   -3.7870    1.1270 ca        1 VRZ      0.028200
     17 CAK        -4.4180   -4.5260    2.0940 ca        1 VRZ     -0.109000
     18 CAI        -4.9180   -5.7880    1.8030 ca        1 VRZ     -0.125000
     19 CAJ        -3.5170   -4.3520   -0.1420 ca        1 VRZ     -0.109000
     20 CAH        -4.0140   -5.6130   -0.4540 ca        1 VRZ     -0.125000
     21 CAY        -4.7250   -6.3400    0.5180 ca        1 VRZ     -0.025400
     22 NAV        -5.3040   -7.6130    0.2370 n         1 VRZ     -0.399100
     23 CAW        -4.7100   -8.5090   -0.6080 c         1 VRZ      0.633100
     24 OAB        -3.7880   -8.3480   -1.4140 o         1 VRZ     -0.488100
     25 NAU        -5.3060   -9.9260   -0.6660 n4        1 VRZ     -0.676800
     26 CAR        -6.6900   -9.9390   -1.2440 c3        1 VRZ      0.177100
     27 CAX        -7.1590  -11.3340   -1.4680 ca        1 VRZ     -0.195300
     28 CAF        -6.7890  -12.0130   -2.6360 ca        1 VRZ     -0.099500
     29 CAD        -7.2560  -13.3050   -2.8640 ca        1 VRZ     -0.117500
     30 CAC        -8.0930  -13.9220   -1.9310 ca        1 VRZ     -0.075000
     31 CAE        -8.4640  -13.2450   -0.7680 ca        1 VRZ     -0.117500
     32 CAG        -7.9980  -11.9520   -0.5330 ca        1 VRZ     -0.099500
     33 H1         -0.0880   -0.7430   -0.4790 hc        1 VRZ      0.054200
     34 H2         -0.2010    1.0410   -0.2300 hc        1 VRZ      0.054200
     35 H3          2.0800    1.2110    0.2480 hc        1 VRZ      0.052200
     36 H4          2.2110   -0.4280   -0.4870 hc        1 VRZ      0.052200
     37 H5          2.6400    0.3480    2.3040 hc        1 VRZ      0.052200
     38 H6          2.7730   -1.3000    1.5880 hc        1 VRZ      0.052200
     39 H7          0.8030   -0.5060    3.4690 hc        1 VRZ      0.054200
     40 H8          0.6850   -1.9370    2.3740 hc        1 VRZ      0.054200
     41 H9         -0.5040    0.8930    2.1000 h1        1 VRZ      0.104700
     42 H10        -1.0310   -2.6880    0.7370 h4        1 VRZ      0.177000
     43 H11        -4.5510    2.0020    3.7100 h5        1 VRZ      0.062100
     44 H12        -6.0560   -2.6220    1.6860 hn        1 VRZ      0.414300
     45 H13        -7.0750   -1.6560    2.6090 hn        1 VRZ      0.414300
     46 H14        -4.5600   -4.1040    3.1040 ha        1 VRZ      0.167000
     47 H15        -5.4610   -6.3410    2.5860 ha        1 VRZ      0.149500
     48 H16        -2.9610   -3.7860   -0.9070 ha        1 VRZ      0.167000
     49 H17        -3.8370   -6.0300   -1.4590 ha        1 VRZ      0.149500
     50 H18        -6.0010   -7.9180    0.8830 hn        1 VRZ      0.340500
     51 H19        -6.6500   -9.3690   -2.2190 hx        1 VRZ      0.107700
     52 H20        -6.1460  -11.5230   -3.3830 ha        1 VRZ      0.139000
     53 H21        -6.9700  -13.8380   -3.7860 ha        1 VRZ      0.161500
     54 H22        -8.4650  -14.9430   -2.1160 ha        1 VRZ      0.162000
     55 H23        -9.1310  -13.7290   -0.0370 ha        1 VRZ      0.161500
     56 H24        -8.3070  -11.4180    0.3780 ha        1 VRZ      0.139000
     57 H25        -4.6860  -10.4800   -1.2760 hn        1 VRZ      0.461300
     58 H26        -7.3730   -9.3930   -0.5320 hx        1 VRZ      0.107700
     59 HAU2       -5.3110  -10.3610    0.2600 hn        1 VRZ      0.461300
@<TRIPOS>BOND
     1    1    2 1   
     2    1    5 1   
     3    1   33 1   
     4    1   34 1   
     5    2    3 1   
     6    2   35 1   
     7    2   36 1   
     8    3    4 1   
     9    3   37 1   
    10    3   38 1   
    11    4    5 1   
    12    4   39 1   
    13    4   40 1   
    14    5    6 1   
    15    5   41 1   
    16    6    7 1   
    17    6    8 1   
    18    7   15 2   
    19    7   42 1   
    20    8    9 ar  
    21    8   14 ar  
    22    9   10 ar  
    23   10   11 ar  
    24   10   43 1   
    25   11   12 ar  
    26   12   13 1   
    27   12   14 ar  
    28   13   44 1   
    29   13   45 1   
    30   14   15 1   
    31   15   16 1   
    32   16   17 ar  
    33   16   19 ar  
    34   17   18 ar  
    35   17   46 1   
    36   18   21 ar  
    37   18   47 1   
    38   19   20 ar  
    39   19   48 1   
    40   20   21 ar  
    41   20   49 1   
    42   21   22 1   
    43   22   23 1   
    44   22   50 1   
    45   23   24 2   
    46   23   25 1   
    47   25   26 1   
    48   25   57 1   
    49   25   59 1   
    50   26   27 1   
    51   26   51 1   
    52   26   58 1   
    53   27   28 ar  
    54   27   32 ar  
    55   28   29 ar  
    56   28   52 1   
    57   29   30 ar  
    58   29   53 1   
    59   30   31 ar  
    60   30   54 1   
    61   31   32 ar  
    62   31   55 1   
    63   32   56 1   
@<TRIPOS>SUBSTRUCTURE
     1 VRZ         1 TEMP              0 ****  ****    0 ROOT
