@<TRIPOS>MOLECULE
VRZ
   59    63     1     0     0
SMALL
bcc


@<TRIPOS>ATOM
      1 CAP         0.2130    0.0940    0.1990 c3        1 VRZ     -0.092900
      2 CAN         1.7260    0.1530    0.3360 c3        1 VRZ     -0.082400
      3 CAO         2.0940   -0.4190    1.7000 c3        1 VRZ     -0.082400
      4 CAQ         0.8050   -0.8240    2.3980 c3        1 VRZ     -0.092900
      5 CBE        -0.3360   -0.1220    1.6280 c3        1 VRZ      0.039000
      6 NBF        -1.5990   -0.8220    1.6740 na        1 VRZ     -0.142100
      7 CAM        -1.8350   -2.1120    1.2010 cc        1 VRZ     -0.074100
      8 C4         -2.7950   -0.3370    2.2280 ca        1 VRZ      0.474800
      9 N3         -3.0360    0.8790    2.8110 nb        1 VRZ     -0.719000
     10 C2         -4.3130    1.0320    3.2180 ca        1 VRZ      0.681900
     11 N1         -5.3660    0.1730    3.1070 nb        1 VRZ     -0.770000
     12 C6         -5.1260   -1.0450    2.5320 ca        1 VRZ      0.703200
     13 NAA        -6.1500   -1.9870    2.4400 nv        1 VRZ     -0.934500
     14 C5         -3.8090   -1.3720    2.0790 ca        1 VRZ     -0.348400
     15 CBB        -3.1640   -2.4910    1.4390 cd        1 VRZ     -0.110400
     16 CAZ        -3.7140   -3.7860    1.1240 ca        1 VRZ      0.028200
     17 CAK        -4.4180   -4.5240    2.0910 ca        1 VRZ     -0.109000
     18 CAI        -4.9180   -5.7870    1.8010 ca        1 VRZ     -0.125000
     19 CAJ        -3.5160   -4.3520   -0.1450 ca        1 VRZ     -0.109000
     20 CAH        -4.0130   -5.6140   -0.4560 ca        1 VRZ     -0.125000
     21 CAY        -4.7240   -6.3400    0.5160 ca        1 VRZ     -0.025400
     22 NAV        -5.3020   -7.6130    0.2360 ns        1 VRZ     -0.399100
     23 CAW        -4.7090   -8.5090   -0.6080 c         1 VRZ      0.633100
     24 OAB        -3.7880   -8.3480   -1.4160 o         1 VRZ     -0.488100
     25 NAU        -5.3030   -9.9270   -0.6640 ny        1 VRZ     -0.676800
     26 CAR        -6.6890   -9.9430   -1.2390 c3        1 VRZ      0.177100
     27 CAX        -7.1560  -11.3390   -1.4600 ca        1 VRZ     -0.195300
     28 CAF        -6.7900  -12.0160   -2.6300 ca        1 VRZ     -0.099000
     29 CAD        -7.2560  -13.3100   -2.8570 ca        1 VRZ     -0.117500
     30 CAC        -8.0870  -13.9280   -1.9200 ca        1 VRZ     -0.075000
     31 CAE        -8.4540  -13.2520   -0.7540 ca        1 VRZ     -0.117500
     32 CAG        -7.9890  -11.9590   -0.5220 ca        1 VRZ     -0.099000
     33 H1         -0.0830   -0.7450   -0.4800 hc        1 VRZ      0.054200
     34 H2         -0.1970    1.0400   -0.2330 hc        1 VRZ      0.054200
     35 H3          2.0830    1.2100    0.2510 hc        1 VRZ      0.052200
     36 H4          2.2150   -0.4290   -0.4840 hc        1 VRZ      0.052200
     37 H5          2.7730   -1.3000    1.5920 hc        1 VRZ      0.052200
     38 H6          2.6400    0.3480    2.3070 hc        1 VRZ      0.052200
     39 H7          0.8010   -0.5050    3.4690 hc        1 VRZ      0.054200
     40 H8          0.6840   -1.9370    2.3760 hc        1 VRZ      0.054200
     41 H9         -0.5030    0.8940    2.0970 h1        1 VRZ      0.104700
     42 H10        -1.0300   -2.6870    0.7360 h4        1 VRZ      0.177000
     43 H11        -4.5520    2.0040    3.7030 h5        1 VRZ      0.062100
     44 H12        -7.0760   -1.6540    2.6020 hn        1 VRZ      0.414300
     45 H13        -6.0560   -2.6210    1.6800 hn        1 VRZ      0.414300
     46 H14        -4.5600   -4.1020    3.1010 ha        1 VRZ      0.167000
     47 H15        -5.4610   -6.3390    2.5840 ha        1 VRZ      0.149500
     48 H16        -2.9600   -3.7870   -0.9100 ha        1 VRZ      0.167000
     49 H17        -3.8360   -6.0310   -1.4610 ha        1 VRZ      0.149500
     50 H18        -6.0000   -7.9180    0.8830 hn        1 VRZ      0.340500
     51 H19        -7.3710   -9.3980   -0.5250 hx        1 VRZ      0.107700
     52 H20        -6.1520  -11.5250   -3.3810 ha        1 VRZ      0.139000
     53 H21        -6.9740  -13.8420   -3.7800 ha        1 VRZ      0.161500
     54 H22        -8.4580  -14.9500   -2.1030 ha        1 VRZ      0.162000
     55 H23        -9.1160  -13.7380   -0.0200 ha        1 VRZ      0.161500
     56 H24        -8.2950  -11.4250    0.3910 ha        1 VRZ      0.139000
     57 H25        -5.3050  -10.3610    0.2620 hn        1 VRZ      0.461300
     58 H26        -6.6520   -9.3730   -2.2140 hx        1 VRZ      0.107700
     59 HAU2       -4.6840  -10.4810   -1.2760 hn        1 VRZ      0.461300
@<TRIPOS>BOND
     1    1    2 1   
     2    1    5 1   
     3    1   33 1   
     4    1   34 1   
     5    2    3 1   
     6    2   35 1   
     7    2   36 1   
     8    3    4 1   
     9    3   37 1   
    10    3   38 1   
    11    4    5 1   
    12    4   39 1   
    13    4   40 1   
    14    5    6 1   
    15    5   41 1   
    16    6    7 1   
    17    6    8 1   
    18    7   15 2   
    19    7   42 1   
    20    8    9 ar  
    21    8   14 ar  
    22    9   10 ar  
    23   10   11 ar  
    24   10   43 1   
    25   11   12 ar  
    26   12   13 1   
    27   12   14 ar  
    28   13   44 1   
    29   13   45 1   
    30   14   15 1   
    31   15   16 1   
    32   16   17 ar  
    33   16   19 ar  
    34   17   18 ar  
    35   17   46 1   
    36   18   21 ar  
    37   18   47 1   
    38   19   20 ar  
    39   19   48 1   
    40   20   21 ar  
    41   20   49 1   
    42   21   22 1   
    43   22   23 1   
    44   22   50 1   
    45   23   24 2   
    46   23   25 1   
    47   25   26 1   
    48   25   57 1   
    49   25   59 1   
    50   26   27 1   
    51   26   51 1   
    52   26   58 1   
    53   27   28 ar  
    54   27   32 ar  
    55   28   29 ar  
    56   28   52 1   
    57   29   30 ar  
    58   29   53 1   
    59   30   31 ar  
    60   30   54 1   
    61   31   32 ar  
    62   31   55 1   
    63   32   56 1   
@<TRIPOS>SUBSTRUCTURE
     1 VRZ         1 TEMP              0 ****  ****    0 ROOT
