@<TRIPOS>MOLECULE
VS0
   53    57     1     0     0
SMALL
bcc


@<TRIPOS>ATOM
      1 O30         0.2810    1.0810    0.4000 o         1 VS0     -0.581100
      2 C19         1.3400    0.4370    0.2940 c         1 VS0      0.680700
      3 C15         2.2690    0.2810    1.4540 ca        1 VS0     -0.148600
      4 C6          3.6550    0.4000    1.3100 ca        1 VS0     -0.091500
      5 C2          4.4800    0.2690    2.4270 ca        1 VS0     -0.136000
      6 C1          3.9260    0.0170    3.6830 ca        1 VS0     -0.106000
      7 C3          2.5430   -0.0940    3.8260 ca        1 VS0     -0.136000
      8 C7          1.7120    0.0420    2.7150 ca        1 VS0     -0.091500
      9 N29         1.7340   -0.1900   -0.8820 n         1 VS0     -0.469100
     10 C16         1.0460   -0.2260   -2.1040 ca        1 VS0      0.071600
     11 C8         -0.1190    0.5280   -2.3610 ca        1 VS0     -0.174000
     12 C4         -0.7430    0.4520   -3.6020 ca        1 VS0     -0.098000
     13 C13        -0.2350   -0.3600   -4.6240 ca        1 VS0     -0.058800
     14 C5          0.9210   -1.1120   -4.3720 ca        1 VS0     -0.098000
     15 C9          1.5550   -1.0510   -3.1390 ca        1 VS0     -0.174000
     16 C14        -0.9130   -0.4430   -5.8980 cc        1 VS0     -0.056400
     17 C12        -0.3750   -0.1830   -7.2110 ca        1 VS0     -0.361400
     18 C18         0.8770    0.2530   -7.7490 ca        1 VS0      0.724200
     19 N28         1.9610    0.4520   -6.9120 nh        1 VS0     -0.946500
     20 N26         1.0130    0.4220   -9.1040 nb        1 VS0     -0.793000
     21 C11        -0.0730    0.1410   -9.8770 ca        1 VS0      0.677900
     22 N25        -1.3070   -0.2680   -9.5180 nb        1 VS0     -0.740000
     23 C17        -1.4510   -0.4220   -8.1620 ca        1 VS0      0.473800
     24 N27        -2.5870   -0.8030   -7.4360 na        1 VS0     -0.154100
     25 C10        -2.2500   -0.8100   -6.0750 cd        1 VS0     -0.107100
     26 C24        -3.8730   -1.1480   -7.9850 c3        1 VS0      0.048000
     27 C23        -4.3280   -2.5930   -7.6760 c3        1 VS0     -0.094400
     28 C21        -5.8480   -2.5640   -7.6640 c3        1 VS0     -0.080400
     29 C20        -6.2860   -1.1080   -7.5540 c3        1 VS0     -0.080400
     30 C22        -5.0320   -0.2500   -7.4950 c3        1 VS0     -0.094400
     31 H1          4.1020    0.6180    0.3290 ha        1 VS0      0.145500
     32 H2          5.5700    0.3670    2.3160 ha        1 VS0      0.139000
     33 H3          4.5810   -0.0890    4.5610 ha        1 VS0      0.137000
     34 H4          2.1040   -0.2840    4.8170 ha        1 VS0      0.139000
     35 H5          0.6170   -0.0240    2.8200 ha        1 VS0      0.145500
     36 H6          2.5660   -0.7390   -0.8430 hn        1 VS0      0.319500
     37 H7         -0.5490    1.1810   -1.5840 ha        1 VS0      0.153000
     38 H8         -1.6530    1.0460   -3.7820 ha        1 VS0      0.143500
     39 H9          1.3250   -1.7690   -5.1590 ha        1 VS0      0.143500
     40 H10         2.4580   -1.6590   -2.9740 ha        1 VS0      0.153000
     41 H11         1.7510    0.5850   -5.9500 hn        1 VS0      0.428300
     42 H12         2.7510    0.9330   -7.2730 hn        1 VS0      0.428300
     43 H13         0.0860    0.2810  -10.9680 h5        1 VS0      0.048100
     44 H14        -2.9930   -1.0840   -5.3240 h4        1 VS0      0.175000
     45 H15        -3.7970   -1.0390   -9.1090 h1        1 VS0      0.095700
     46 H16        -3.9380   -3.2950   -8.4520 hc        1 VS0      0.054450
     47 H17        -3.9380   -2.9340   -6.6830 hc        1 VS0      0.054450
     48 H18        -6.2440   -3.1630   -6.8060 hc        1 VS0      0.045700
     49 H19        -6.2540   -3.0210   -8.6020 hc        1 VS0      0.045700
     50 H20        -6.9110   -0.8240   -8.4380 hc        1 VS0      0.045700
     51 H21        -6.9120   -0.9490   -6.6410 hc        1 VS0      0.045700
     52 H22        -5.1220    0.6530   -8.1480 hc        1 VS0      0.054450
     53 H23        -4.8530    0.1050   -6.4490 hc        1 VS0      0.054450
@<TRIPOS>BOND
     1    1    2 2   
     2    2    3 1   
     3    2    9 1   
     4    3    4 ar  
     5    3    8 ar  
     6    4    5 ar  
     7    4   31 1   
     8    5    6 ar  
     9    5   32 1   
    10    6    7 ar  
    11    6   33 1   
    12    7    8 ar  
    13    7   34 1   
    14    8   35 1   
    15    9   10 1   
    16    9   36 1   
    17   10   11 ar  
    18   10   15 ar  
    19   11   12 ar  
    20   11   37 1   
    21   12   13 ar  
    22   12   38 1   
    23   13   14 ar  
    24   13   16 1   
    25   14   15 ar  
    26   14   39 1   
    27   15   40 1   
    28   16   17 1   
    29   16   25 2   
    30   17   18 ar  
    31   17   23 ar  
    32   18   19 1   
    33   18   20 ar  
    34   19   41 1   
    35   19   42 1   
    36   20   21 ar  
    37   21   22 ar  
    38   21   43 1   
    39   22   23 ar  
    40   23   24 1   
    41   24   25 1   
    42   24   26 1   
    43   25   44 1   
    44   26   27 1   
    45   26   30 1   
    46   26   45 1   
    47   27   28 1   
    48   27   46 1   
    49   27   47 1   
    50   28   29 1   
    51   28   48 1   
    52   28   49 1   
    53   29   30 1   
    54   29   50 1   
    55   29   51 1   
    56   30   52 1   
    57   30   53 1   
@<TRIPOS>SUBSTRUCTURE
     1 VS0         1 TEMP              0 ****  ****    0 ROOT
