@<TRIPOS>MOLECULE
VS0
   55    59     1     0     0
SMALL
bcc


@<TRIPOS>ATOM
      1 O30         3.1750   -1.7140   -1.0420 o         1 VS0     -0.419100
      2 C19         2.6980   -0.7180   -0.5240 c         1 VS0      0.593700
      3 C15         2.1410   -0.5340    0.8110 ca        1 VS0     -0.213600
      4 C6          2.2670    0.6640    1.5340 ca        1 VS0     -0.068500
      5 C2          1.7500    0.7470    2.8230 ca        1 VS0     -0.118500
      6 C1          1.1090   -0.3560    3.3990 ca        1 VS0     -0.040000
      7 C3          0.9930   -1.5500    2.6860 ca        1 VS0     -0.118500
      8 C7          1.5130   -1.6490    1.3970 ca        1 VS0     -0.068500
      9 N29         2.6840    0.5290   -1.4330 n4        1 VS0     -0.558200
     10 C16         1.8900    0.3320   -2.6470 ca        1 VS0     -0.048400
     11 C8          0.7080    1.0710   -2.8380 ca        1 VS0     -0.080000
     12 C4         -0.0540    0.8620   -3.9840 ca        1 VS0     -0.136500
     13 C13         0.3360   -0.0810   -4.9520 ca        1 VS0      0.029200
     14 C5          1.5250   -0.8000   -4.7540 ca        1 VS0     -0.136500
     15 C9          2.3000   -0.6040   -3.6140 ca        1 VS0     -0.080000
     16 C14        -0.5310   -0.3500   -6.0750 cc        1 VS0     -0.177400
     17 C12        -0.2480   -0.3910   -7.4810 ca        1 VS0     -0.262400
     18 C18         0.8160   -0.1450   -8.3670 ca        1 VS0      0.501200
     19 N28         2.1240    0.3100   -7.8480 n4        1 VS0     -0.824300
     20 N26         0.7120   -0.2880   -9.7110 nb        1 VS0     -0.678000
     21 C11        -0.5020   -0.6740  -10.1970 ca        1 VS0      0.678900
     22 N25        -1.6340   -0.9240   -9.4960 nb        1 VS0     -0.614000
     23 C17        -1.5130   -0.7790   -8.1520 ca        1 VS0      0.470800
     24 N27        -2.4860   -0.9470   -7.1530 na        1 VS0     -0.117100
     25 C10        -1.8980   -0.6770   -5.9310 cd        1 VS0      0.016900
     26 C24        -3.8810   -1.3140   -7.3830 c3        1 VS0      0.032000
     27 C23        -4.4210   -2.3160   -6.3400 c3        1 VS0     -0.099400
     28 C21        -5.2490   -1.5230   -5.3410 c3        1 VS0     -0.089400
     29 C20        -5.5190   -0.1530   -5.9500 c3        1 VS0     -0.089400
     30 C22        -4.8480   -0.1120   -7.3140 c3        1 VS0     -0.099400
     31 H1          2.8060    1.5320    1.1270 ha        1 VS0      0.148000
     32 H2          1.8570    1.6820    3.3990 ha        1 VS0      0.175500
     33 H3          0.7040   -0.2820    4.4240 ha        1 VS0      0.177000
     34 H4          0.5010   -2.4240    3.1450 ha        1 VS0      0.175500
     35 H5          1.4410   -2.5980    0.8400 ha        1 VS0      0.148000
     36 H6          3.6520    0.7380   -1.7090 hn        1 VS0      0.462300
     37 H7          0.3640    1.8120   -2.0950 ha        1 VS0      0.175000
     38 H8         -0.9840    1.4390   -4.1270 ha        1 VS0      0.168500
     39 H9          1.8160   -1.5920   -5.4650 ha        1 VS0      0.168500
     40 H10         3.2070   -1.2170   -3.4600 ha        1 VS0      0.175000
     41 H11         2.2900    1.2800   -8.1480 hn        1 VS0      0.472467
     42 H12         2.1120    0.2580   -6.8240 hn        1 VS0      0.472467
     43 H13        -0.5650   -0.7900  -11.3060 h5        1 VS0      0.110100
     44 H14        -2.4880   -0.7480   -5.0060 h4        1 VS0      0.208000
     45 H15        -3.9180   -1.7770   -8.4130 h1        1 VS0      0.111700
     46 H16        -5.0690   -3.0530   -6.8830 hc        1 VS0      0.073700
     47 H17        -3.6120   -2.8980   -5.8350 hc        1 VS0      0.073700
     48 H18        -4.7000   -1.4190   -4.3700 hc        1 VS0      0.058950
     49 H19        -6.2070   -2.0570   -5.1190 hc        1 VS0      0.058950
     50 H20        -5.1170    0.6550   -5.2890 hc        1 VS0      0.058950
     51 H21        -6.6200    0.0260   -6.0530 hc        1 VS0      0.058950
     52 H22        -4.3400    0.8670   -7.4920 hc        1 VS0      0.073700
     53 H23        -5.6100   -0.2430   -8.1270 hc        1 VS0      0.073700
     54 H292        2.3070    1.3270   -0.9090 hn        1 VS0      0.462300
     55 H283        2.8780   -0.2820   -8.2230 hn        1 VS0      0.472467
@<TRIPOS>BOND
     1    1    2 2   
     2    2    3 1   
     3    2    9 1   
     4    3    4 ar  
     5    3    8 ar  
     6    4    5 ar  
     7    4   31 1   
     8    5    6 ar  
     9    5   32 1   
    10    6    7 ar  
    11    6   33 1   
    12    7    8 ar  
    13    7   34 1   
    14    8   35 1   
    15    9   10 1   
    16    9   36 1   
    17    9   54 1   
    18   10   11 ar  
    19   10   15 ar  
    20   11   12 ar  
    21   11   37 1   
    22   12   13 ar  
    23   12   38 1   
    24   13   14 ar  
    25   13   16 1   
    26   14   15 ar  
    27   14   39 1   
    28   15   40 1   
    29   16   17 1   
    30   16   25 2   
    31   17   18 ar  
    32   17   23 ar  
    33   18   19 1   
    34   18   20 ar  
    35   19   41 1   
    36   19   42 1   
    37   19   55 1   
    38   20   21 ar  
    39   21   22 ar  
    40   21   43 1   
    41   22   23 ar  
    42   23   24 1   
    43   24   25 1   
    44   24   26 1   
    45   25   44 1   
    46   26   27 1   
    47   26   30 1   
    48   26   45 1   
    49   27   28 1   
    50   27   46 1   
    51   27   47 1   
    52   28   29 1   
    53   28   48 1   
    54   28   49 1   
    55   29   30 1   
    56   29   50 1   
    57   29   51 1   
    58   30   52 1   
    59   30   53 1   
@<TRIPOS>SUBSTRUCTURE
     1 VS0         1 TEMP              0 ****  ****    0 ROOT
