@<TRIPOS>MOLECULE
VS0
   53    57     1     0     0
SMALL
bcc


@<TRIPOS>ATOM
      1 O30         0.2880    1.0970    0.3940 o         1 VS0     -0.581100
      2 C19         1.3450    0.4480    0.2900 c         1 VS0      0.680700
      3 C15         2.2730    0.2930    1.4500 ca        1 VS0     -0.148600
      4 C6          3.6600    0.4050    1.3060 ca        1 VS0     -0.091500
      5 C2          4.4850    0.2750    2.4220 ca        1 VS0     -0.136000
      6 C1          3.9300    0.0320    3.6790 ca        1 VS0     -0.106000
      7 C3          2.5470   -0.0710    3.8250 ca        1 VS0     -0.136000
      8 C7          1.7160    0.0640    2.7130 ca        1 VS0     -0.091500
      9 N29         1.7350   -0.1880   -0.8830 ns        1 VS0     -0.469100
     10 C16         1.0460   -0.2250   -2.1050 ca        1 VS0      0.071600
     11 C8         -0.1160    0.5330   -2.3640 ca        1 VS0     -0.174000
     12 C4         -0.7400    0.4540   -3.6040 ca        1 VS0     -0.098000
     13 C13        -0.2360   -0.3640   -4.6240 ca        1 VS0     -0.058800
     14 C5          0.9160   -1.1210   -4.3680 ca        1 VS0     -0.098000
     15 C9          1.5510   -1.0570   -3.1350 ca        1 VS0     -0.174000
     16 C14        -0.9140   -0.4490   -5.8970 cc        1 VS0     -0.056400
     17 C12        -0.3750   -0.1960   -7.2110 ca        1 VS0     -0.361400
     18 C18         0.8790    0.2330   -7.7500 ca        1 VS0      0.724200
     19 N28         1.9640    0.4300   -6.9140 nv        1 VS0     -0.946500
     20 N26         1.0160    0.3960   -9.1060 nb        1 VS0     -0.793000
     21 C11        -0.0710    0.1170   -9.8780 ca        1 VS0      0.677900
     22 N25        -1.3060   -0.2860   -9.5180 nb        1 VS0     -0.740000
     23 C17        -1.4510   -0.4340   -8.1610 ca        1 VS0      0.473800
     24 N27        -2.5890   -0.8080   -7.4340 na        1 VS0     -0.154100
     25 C10        -2.2530   -0.8110   -6.0740 cd        1 VS0     -0.107100
     26 C24        -3.8770   -1.1500   -7.9830 c3        1 VS0      0.048000
     27 C23        -4.3370   -2.5930   -7.6690 c3        1 VS0     -0.094400
     28 C21        -5.8560   -2.5580   -7.6590 c3        1 VS0     -0.080400
     29 C20        -6.2890   -1.1010   -7.5510 c3        1 VS0     -0.080400
     30 C22        -5.0330   -0.2460   -7.4950 c3        1 VS0     -0.094400
     31 H1          4.1070    0.6150    0.3220 ha        1 VS0      0.145500
     32 H2          5.5750    0.3670    2.3100 ha        1 VS0      0.139000
     33 H3          4.5850   -0.0730    4.5580 ha        1 VS0      0.137000
     34 H4          2.1080   -0.2540    4.8170 ha        1 VS0      0.139000
     35 H5          0.6210    0.0040    2.8200 ha        1 VS0      0.145500
     36 H6          2.5640   -0.7400   -0.8410 hn        1 VS0      0.319500
     37 H7         -0.5430    1.1910   -1.5900 ha        1 VS0      0.153000
     38 H8         -1.6470    1.0520   -3.7880 ha        1 VS0      0.143500
     39 H9          1.3180   -1.7820   -5.1520 ha        1 VS0      0.143500
     40 H10         2.4510   -1.6690   -2.9690 ha        1 VS0      0.153000
     41 H11         1.7540    0.5670   -5.9520 hn        1 VS0      0.428300
     42 H12         2.7560    0.9060   -7.2760 hn        1 VS0      0.428300
     43 H13         0.0900    0.2520  -10.9700 h5        1 VS0      0.048100
     44 H14        -2.9970   -1.0800   -5.3210 h4        1 VS0      0.175000
     45 H15        -3.8000   -1.0440   -9.1070 h1        1 VS0      0.095700
     46 H16        -3.9480   -3.2980   -8.4440 hc        1 VS0      0.054450
     47 H17        -3.9480   -2.9320   -6.6760 hc        1 VS0      0.054450
     48 H18        -6.2630   -3.0140   -8.5960 hc        1 VS0      0.045700
     49 H19        -6.2550   -3.1550   -6.8000 hc        1 VS0      0.045700
     50 H20        -6.9140   -0.8170   -8.4350 hc        1 VS0      0.045700
     51 H21        -6.9130   -0.9380   -6.6380 hc        1 VS0      0.045700
     52 H22        -4.8520    0.1110   -6.4500 hc        1 VS0      0.054450
     53 H23        -5.1200    0.6550   -8.1500 hc        1 VS0      0.054450
@<TRIPOS>BOND
     1    1    2 2   
     2    2    3 1   
     3    2    9 1   
     4    3    4 ar  
     5    3    8 ar  
     6    4    5 ar  
     7    4   31 1   
     8    5    6 ar  
     9    5   32 1   
    10    6    7 ar  
    11    6   33 1   
    12    7    8 ar  
    13    7   34 1   
    14    8   35 1   
    15    9   10 1   
    16    9   36 1   
    17   10   11 ar  
    18   10   15 ar  
    19   11   12 ar  
    20   11   37 1   
    21   12   13 ar  
    22   12   38 1   
    23   13   14 ar  
    24   13   16 1   
    25   14   15 ar  
    26   14   39 1   
    27   15   40 1   
    28   16   17 1   
    29   16   25 2   
    30   17   18 ar  
    31   17   23 ar  
    32   18   19 1   
    33   18   20 ar  
    34   19   41 1   
    35   19   42 1   
    36   20   21 ar  
    37   21   22 ar  
    38   21   43 1   
    39   22   23 ar  
    40   23   24 1   
    41   24   25 1   
    42   24   26 1   
    43   25   44 1   
    44   26   27 1   
    45   26   30 1   
    46   26   45 1   
    47   27   28 1   
    48   27   46 1   
    49   27   47 1   
    50   28   29 1   
    51   28   48 1   
    52   28   49 1   
    53   29   30 1   
    54   29   50 1   
    55   29   51 1   
    56   30   52 1   
    57   30   53 1   
@<TRIPOS>SUBSTRUCTURE
     1 VS0         1 TEMP              0 ****  ****    0 ROOT
