@<TRIPOS>MOLECULE
VS0
   53    57     1     0     0
SMALL
bcc


@<TRIPOS>ATOM
      1 O30        -4.4160   -1.1990   -1.4380 o         1 VS0     -0.581100
      2 C19        -4.7400   -0.3750   -0.5640 c         1 VS0      0.680700
      3 C15        -6.1760   -0.1110   -0.2470 ca        1 VS0     -0.148600
      4 C6         -6.6600    1.1840   -0.0390 ca        1 VS0     -0.091500
      5 C2         -8.0140    1.3820    0.2330 ca        1 VS0     -0.136000
      6 C1         -8.8830    0.2920    0.2980 ca        1 VS0     -0.106000
      7 C3         -8.4010   -0.9990    0.0820 ca        1 VS0     -0.136000
      8 C7         -7.0500   -1.2040   -0.1960 ca        1 VS0     -0.091500
      9 N29        -3.8170    0.3440    0.1850 n         1 VS0     -0.469100
     10 C16        -2.4170    0.2740    0.1110 ca        1 VS0      0.071600
     11 C8         -1.7270   -0.4580   -0.8790 ca        1 VS0     -0.174000
     12 C4         -0.3370   -0.4720   -0.8970 ca        1 VS0     -0.098000
     13 C13         0.4120    0.2370    0.0510 ca        1 VS0     -0.058800
     14 C5         -0.2700    0.9630    1.0370 ca        1 VS0     -0.098000
     15 C9         -1.6570    0.9870    1.0730 ca        1 VS0     -0.174000
     16 C14         1.8570    0.1900    0.0280 cc        1 VS0     -0.056400
     17 C12         2.7820    1.2930   -0.0490 ca        1 VS0     -0.361400
     18 C18         2.6890    2.7160   -0.1640 ca        1 VS0      0.724200
     19 N28         1.4520    3.3360   -0.1420 nh        1 VS0     -0.946500
     20 N26         3.8340    3.4690   -0.2420 nb        1 VS0     -0.793000
     21 C11         5.0210    2.8010   -0.1870 ca        1 VS0      0.677900
     22 N25         5.2650    1.4790   -0.0860 nb        1 VS0     -0.740000
     23 C17         4.1210    0.7230   -0.0250 ca        1 VS0      0.473800
     24 N27         3.9910   -0.6710    0.0560 na        1 VS0     -0.154100
     25 C10         2.6240   -0.9770    0.0850 cd        1 VS0     -0.107100
     26 C24         5.0690   -1.6250    0.1190 c3        1 VS0      0.048000
     27 C23         5.0850   -2.4780    1.4080 c3        1 VS0     -0.094400
     28 C21         5.7370   -3.7990    1.0320 c3        1 VS0     -0.080400
     29 C20         5.7330   -3.9040   -0.4890 c3        1 VS0     -0.080400
     30 C22         5.0760   -2.6480   -1.0400 c3        1 VS0     -0.094400
     31 H1         -5.9880    2.0530   -0.1070 ha        1 VS0      0.145500
     32 H2         -8.3960    2.4010    0.3920 ha        1 VS0      0.139000
     33 H3         -9.9490    0.4520    0.5150 ha        1 VS0      0.137000
     34 H4         -9.0860   -1.8580    0.1250 ha        1 VS0      0.139000
     35 H5         -6.6630   -2.2170   -0.3880 ha        1 VS0      0.145500
     36 H6         -4.1790    0.9260    0.9080 hn        1 VS0      0.319500
     37 H7         -2.2790   -1.0280   -1.6440 ha        1 VS0      0.153000
     38 H8          0.1840   -1.0510   -1.6760 ha        1 VS0      0.143500
     39 H9          0.3030    1.5140    1.8010 ha        1 VS0      0.143500
     40 H10        -2.1590    1.5630    1.8650 ha        1 VS0      0.153000
     41 H11         0.6710    2.7590   -0.3580 hn        1 VS0      0.428300
     42 H12         1.3990    4.2890   -0.4140 hn        1 VS0      0.428300
     43 H13         5.9210    3.4510   -0.2410 h5        1 VS0      0.048100
     44 H14         2.2920   -2.0150    0.1510 h4        1 VS0      0.175000
     45 H15         6.0360   -1.0400    0.0750 h1        1 VS0      0.095700
     46 H16         5.6570   -1.9530    2.2120 hc        1 VS0      0.054450
     47 H17         4.0470   -2.6520    1.7900 hc        1 VS0      0.054450
     48 H18         6.7860   -3.8400    1.4190 hc        1 VS0      0.045700
     49 H19         5.1810   -4.6540    1.4900 hc        1 VS0      0.045700
     50 H20         6.7800   -3.9960   -0.8730 hc        1 VS0      0.045700
     51 H21         5.1760   -4.8150   -0.8230 hc        1 VS0      0.045700
     52 H22         4.0360   -2.8740   -1.3850 hc        1 VS0      0.054450
     53 H23         5.6410   -2.2390   -1.9120 hc        1 VS0      0.054450
@<TRIPOS>BOND
     1    1    2 2   
     2    2    3 1   
     3    2    9 1   
     4    3    4 ar  
     5    3    8 ar  
     6    4    5 ar  
     7    4   31 1   
     8    5    6 ar  
     9    5   32 1   
    10    6    7 ar  
    11    6   33 1   
    12    7    8 ar  
    13    7   34 1   
    14    8   35 1   
    15    9   10 1   
    16    9   36 1   
    17   10   11 ar  
    18   10   15 ar  
    19   11   12 ar  
    20   11   37 1   
    21   12   13 ar  
    22   12   38 1   
    23   13   14 ar  
    24   13   16 1   
    25   14   15 ar  
    26   14   39 1   
    27   15   40 1   
    28   16   17 1   
    29   16   25 2   
    30   17   18 ar  
    31   17   23 ar  
    32   18   19 1   
    33   18   20 ar  
    34   19   41 1   
    35   19   42 1   
    36   20   21 ar  
    37   21   22 ar  
    38   21   43 1   
    39   22   23 ar  
    40   23   24 1   
    41   24   25 1   
    42   24   26 1   
    43   25   44 1   
    44   26   27 1   
    45   26   30 1   
    46   26   45 1   
    47   27   28 1   
    48   27   46 1   
    49   27   47 1   
    50   28   29 1   
    51   28   48 1   
    52   28   49 1   
    53   29   30 1   
    54   29   50 1   
    55   29   51 1   
    56   30   52 1   
    57   30   53 1   
@<TRIPOS>SUBSTRUCTURE
     1 VS0         1 TEMP              0 ****  ****    0 ROOT
