@<TRIPOS>MOLECULE
VS1
   77    76     1     0     0
SMALL
bcc


@<TRIPOS>ATOM
      1 N1         -0.4170   -0.5590   -0.8710 n         1 VS1     -0.364000
      2 C3          2.3500    3.3930    0.0860 c2        1 VS1     -0.216000
      3 C12         1.3580    3.4000    0.9840 c2        1 VS1     -0.051000
      4 C14         1.2470    4.4210    2.0660 c3        1 VS1     -0.135000
      5 C15        -0.1700    4.6200    2.4790 c2        1 VS1     -0.094000
      6 C16        -0.6490    5.8600    2.7280 c2        1 VS1     -0.218000
      7 C17         0.1830    7.0170    2.5430 c2        1 VS1      0.002000
      8 C18         1.4690    6.8890    2.1020 c2        1 VS1     -0.255000
      9 C19         2.0420    5.6300    1.7950 c1        1 VS1     -0.095000
     10 C11         2.4390    2.3390   -0.9570 c2        1 VS1      0.338000
     11 N20         3.3610    2.4840   -1.9500 n         1 VS1     -0.433000
     12 C21         3.9130   -2.4820   -1.2020 c2        1 VS1     -0.123000
     13 C23         4.0250   -1.8590   -2.5430 c3        1 VS1     -0.138000
     14 C24         2.7380   -1.1510   -2.9220 c3        1 VS1     -0.134000
     15 C29         2.8470   -0.4580   -4.2780 c3        1 VS1     -0.152000
     16 C30         3.0410   -1.4220   -5.3910 c2        1 VS1     -0.087000
     17 C31         3.9380   -1.1830   -6.3750 c2        1 VS1     -0.206000
     18 C32         4.7690   -0.0110   -6.3320 c2        1 VS1      0.008000
     19 C33         4.6770    0.8730   -5.2940 c2        1 VS1     -0.244000
     20 C34         3.7650    0.6830   -4.2300 c1        1 VS1     -0.112000
     21 S26         3.3030   -5.8170    0.3460 s6        1 VS1      2.860000
     22 C35         3.6120   -6.3940    1.8720 c2        1 VS1     -0.842000
     23 C36         2.4850   -6.6920    2.8420 c3        1 VS1     -0.074000
     24 C37         2.8640   -6.2650    4.2340 c2        1 VS1     -0.121000
     25 C38         4.1420   -6.1480    4.6630 c2        1 VS1     -0.154000
     26 C39         5.1840   -6.6650    3.7580 c2        1 VS1     -0.085000
     27 C40         4.7720   -6.5420    2.5010 c1        1 VS1      0.013000
     28 O36         1.9270   -5.5290    0.2350 o         1 VS1     -0.941500
     29 O35         3.8390   -6.6700   -0.6270 o         1 VS1     -0.941500
     30 O13         1.6950    1.3210   -0.9350 o         1 VS1     -0.475000
     31 C2         -0.7640   -1.4920    0.1060 c2        1 VS1      0.389000
     32 O10        -1.3450   -1.1010    1.1590 o         1 VS1     -0.480000
     33 N4         -0.4980   -2.8650   -0.0600 n         1 VS1     -0.288000
     34 C5         -0.8250   -3.7580    1.0250 c3        1 VS1     -0.072000
     35 C6         -1.4970    1.6490    2.1250 c1        1 VS1     -0.070000
     36 O7         -1.6090    0.8580    3.1260 oh        1 VS1     -0.145000
     37 C8         -0.3570   -3.0570   -2.5170 c2        1 VS1     -0.313000
     38 C9         -0.0930   -3.4570   -1.2640 c2        1 VS1     -0.019000
     39 C22         4.2920   -3.7360   -0.9390 c2        1 VS1     -0.178000
     40 H1         -0.3620    0.3820   -0.5330 hn        1 VS1      0.226000
     41 H31         0.3160   -0.7960   -1.5040 hn        1 VS1      0.226000
     42 H121        3.1300    4.1750    0.1010 ha        1 VS1      0.164000
     43 H122        0.5650    2.6290    0.9800 ha        1 VS1      0.147000
     44 H151        1.7820    3.9840    2.9830 hc        1 VS1      0.181000
     45 H161       -0.7960    3.7070    2.5810 ha        1 VS1      0.192000
     46 H171       -1.6860    6.0160    3.0620 ha        1 VS1      0.137000
     47 H181       -0.2590    8.0040    2.7590 ha        1 VS1      0.126000
     48 H191        2.0980    7.7790    1.9430 ha        1 VS1      0.142000
     49 H2          3.9340    3.2880   -1.9750 hn        1 VS1      0.248500
     50 H211        3.4530    1.7960   -2.6910 hn        1 VS1      0.248500
     51 H231        4.2800   -2.6260   -3.3230 hc        1 VS1      0.093500
     52 H232        4.8650   -1.1110   -2.5210 hc        1 VS1      0.093500
     53 H241        2.4920   -0.3700   -2.1470 hc        1 VS1      0.114000
     54 H242        1.8920   -1.8900   -2.9560 hc        1 VS1      0.114000
     55 H301        1.8380    0.0530   -4.4640 hc        1 VS1      0.180000
     56 H311        2.4130   -2.3270   -5.3850 ha        1 VS1      0.139000
     57 H321        4.0670   -1.8790   -7.2180 ha        1 VS1      0.141000
     58 H331        5.4850    0.1390   -7.1580 ha        1 VS1      0.134000
     59 H341        5.3290    1.7600   -5.2540 ha        1 VS1      0.147000
     60 H251        5.2430   -4.5320    0.7760 h1        1 VS1      0.157000
     61 H252        3.7400   -3.6300    1.1270 h1        1 VS1      0.157000
     62 H361        1.5850   -6.1090    2.4950 hc        1 VS1      0.133500
     63 H372        2.2020   -7.7790    2.8610 hc        1 VS1      0.133500
     64 H381        2.0150   -6.0770    4.9100 ha        1 VS1      0.148000
     65 H391        4.4280   -5.7950    5.6600 ha        1 VS1      0.154000
     66 H401        6.0810   -7.1580    4.1400 ha        1 VS1      0.178000
     67 H51        -0.7870   -3.2010    1.9980 h1        1 VS1      0.092333
     68 H52        -0.0810   -4.6020    1.0440 h1        1 VS1      0.092333
     69 H61        -1.8580   -4.1760    0.8910 h1        1 VS1      0.092333
     70 H62        -1.6770    1.2430    1.1030 ha        1 VS1      0.028000
     71 H81        -1.8450   -0.0770    2.9290 ho        1 VS1      0.193000
     72 H82         0.0560   -3.6240   -3.3610 ha        1 VS1      0.124000
     73 H91        -0.9870   -2.2050   -2.7950 ha        1 VS1      0.124000
     74 H92         0.5070   -4.3800   -1.0830 h4        1 VS1      0.173000
     75 H221        3.4940   -1.8290   -0.4170 ha        1 VS1      0.134000
     76 H222        4.7240   -4.3870   -1.7200 ha        1 VS1      0.143000
     77 C25         4.1970   -4.3540    0.4010 c3        1 VS1     -0.805000
@<TRIPOS>BOND
     1    1   31 1   
     2    1   40 1   
     3    1   41 1   
     4    2    3 1   
     5    2   10 1   
     6    2   42 1   
     7    3    4 1   
     8    3   43 1   
     9    4    5 1   
    10    4    9 1   
    11    4   44 1   
    12    5    6 1   
    13    5   45 1   
    14    6    7 1   
    15    6   46 1   
    16    7    8 1   
    17    7   47 1   
    18    8    9 1   
    19    8   48 1   
    20   10   11 1   
    21   10   30 1   
    22   11   49 1   
    23   11   50 1   
    24   12   13 1   
    25   12   39 1   
    26   12   75 1   
    27   13   14 1   
    28   13   51 1   
    29   13   52 1   
    30   14   15 1   
    31   14   53 1   
    32   14   54 1   
    33   15   16 1   
    34   15   20 1   
    35   15   55 1   
    36   16   17 1   
    37   16   56 1   
    38   17   18 1   
    39   17   57 1   
    40   18   19 1   
    41   18   58 1   
    42   19   20 1   
    43   19   59 1   
    44   21   22 1   
    45   21   28 1   
    46   21   29 1   
    47   21   77 1   
    48   22   23 1   
    49   22   27 1   
    50   23   24 1   
    51   23   62 1   
    52   23   63 1   
    53   24   25 1   
    54   24   64 1   
    55   25   26 1   
    56   25   65 1   
    57   26   27 1   
    58   26   66 1   
    59   31   32 1   
    60   31   33 1   
    61   33   34 1   
    62   33   38 1   
    63   34   67 1   
    64   34   68 1   
    65   34   69 1   
    66   35   36 1   
    67   35   70 1   
    68   36   71 1   
    69   37   38 1   
    70   37   72 1   
    71   37   73 1   
    72   38   74 1   
    73   39   76 1   
    74   39   77 1   
    75   60   77 1   
    76   61   77 1   
@<TRIPOS>SUBSTRUCTURE
     1 VS1         1 TEMP              0 ****  ****    0 ROOT
