@<TRIPOS>MOLECULE
VS1
   77    80     1     0     0
SMALL
bcc


@<TRIPOS>ATOM
      1 N1          1.4560    0.1210   -2.1090 n         1 VS1     -0.538900
      2 C3          1.8420   -0.0780   -0.7280 c3        1 VS1      0.034700
      3 C12         3.1730    0.6090   -0.3740 c3        1 VS1     -0.046100
      4 C14         4.2870    0.1460   -1.2430 ca        1 VS1     -0.095300
      5 C15         4.7620    0.9620   -2.2760 ca        1 VS1     -0.128000
      6 C16         5.8150    0.5330   -3.0830 ca        1 VS1     -0.124500
      7 C17         6.4020   -0.7140   -2.8640 ca        1 VS1     -0.125000
      8 C18         5.9340   -1.5300   -1.8340 ca        1 VS1     -0.124500
      9 C19         4.8820   -1.1030   -1.0260 ca        1 VS1     -0.128000
     10 C11         0.7500    0.4760    0.2290 c         1 VS1      0.654100
     11 N20        -0.4710   -0.1460    0.1900 n         1 VS1     -0.556900
     12 C21        -1.5930    0.2880    0.9920 c3        1 VS1      0.106700
     13 C23        -2.9220    0.2090    0.2210 c3        1 VS1     -0.089400
     14 C24        -2.9690    1.1880   -0.9350 c3        1 VS1     -0.035100
     15 C29        -4.3110    1.2140   -1.5800 ca        1 VS1     -0.083300
     16 C30        -5.4120    1.7420   -0.8940 ca        1 VS1     -0.129000
     17 C31        -6.6670    1.7800   -1.4970 ca        1 VS1     -0.126500
     18 C32        -6.8350    1.2910   -2.7930 ca        1 VS1     -0.132000
     19 C33        -5.7430    0.7660   -3.4830 ca        1 VS1     -0.126500
     20 C34        -4.4860    0.7270   -2.8810 ca        1 VS1     -0.129000
     21 S26        -0.8820   -0.7770    4.8120 sy        1 VS1      1.383300
     22 C35         0.5820   -0.3400    5.5000 ca        1 VS1     -0.384500
     23 C36         0.8610    1.0000    5.7980 ca        1 VS1     -0.016000
     24 C37         2.0690    1.3650    6.3880 ca        1 VS1     -0.156000
     25 C38         3.0170    0.3870    6.6910 ca        1 VS1     -0.065000
     26 C39         2.7510   -0.9530    6.4070 ca        1 VS1     -0.156000
     27 C40         1.5410   -1.3100    5.8170 ca        1 VS1     -0.016000
     28 O36        -1.9020    0.0810    5.2540 o         1 VS1     -0.658300
     29 O35        -1.0920   -2.1570    4.9720 o         1 VS1     -0.658300
     30 O13         0.9960    1.4300    0.9950 o         1 VS1     -0.630100
     31 C2          0.7730   -0.9070   -2.7740 c         1 VS1      0.733100
     32 O10         0.3220   -1.8790   -2.1150 o         1 VS1     -0.654100
     33 N4          0.6260   -0.8650   -4.1940 n         1 VS1     -0.409800
     34 C5         -0.2190   -1.9100   -4.7620 c3        1 VS1      0.028000
     35 C6         -1.6940   -1.5120   -4.8940 c3        1 VS1      0.092400
     36 O7         -1.8480   -0.2640   -5.5640 os        1 VS1     -0.412600
     37 C8         -1.0950    0.7830   -4.9630 c3        1 VS1      0.092400
     38 C9          0.3920    0.4120   -4.8490 c3        1 VS1      0.028000
     39 C22        -1.7590   -0.5110    2.2980 c3        1 VS1     -0.069400
     40 H1          2.0680    0.7040   -2.6370 hn        1 VS1      0.316500
     41 H31         1.9460   -1.1880   -0.5170 h1        1 VS1      0.087700
     42 H121        3.0500    1.7230   -0.4420 hc        1 VS1      0.078700
     43 H122        3.3940    0.3710    0.7020 hc        1 VS1      0.078700
     44 H151        4.3100    1.9500   -2.4460 ha        1 VS1      0.132000
     45 H161        6.1860    1.1800   -3.8910 ha        1 VS1      0.134000
     46 H171        7.2330   -1.0510   -3.5000 ha        1 VS1      0.134000
     47 H181        6.3950   -2.5130   -1.6580 ha        1 VS1      0.134000
     48 H191        4.5140   -1.7480   -0.2130 ha        1 VS1      0.132000
     49 H2         -0.6000   -0.9440   -0.3920 hn        1 VS1      0.339500
     50 H211       -1.4060    1.3700    1.2750 h1        1 VS1      0.080700
     51 H231       -3.0920   -0.8340   -0.1540 hc        1 VS1      0.056200
     52 H232       -3.7520    0.4450    0.9390 hc        1 VS1      0.056200
     53 H241       -2.7220    2.2190   -0.5600 hc        1 VS1      0.050200
     54 H242       -2.1870    0.9160   -1.6940 hc        1 VS1      0.050200
     55 H301       -5.2800    2.1310    0.1270 ha        1 VS1      0.132000
     56 H311       -7.5250    2.1960   -0.9500 ha        1 VS1      0.132500
     57 H321       -7.8260    1.3210   -3.2690 ha        1 VS1      0.131000
     58 H331       -5.8700    0.3830   -4.5060 ha        1 VS1      0.132500
     59 H341       -3.6290    0.3140   -3.4360 ha        1 VS1      0.132000
     60 H251        0.2360   -1.1620    2.7740 h1        1 VS1      0.123200
     61 H252       -0.0590    0.5720    3.0470 h1        1 VS1      0.123200
     62 H361        0.1050    1.7720    5.5710 ha        1 VS1      0.155000
     63 H372        2.2730    2.4220    6.6150 ha        1 VS1      0.142000
     64 H381        3.9730    0.6720    7.1560 ha        1 VS1      0.137000
     65 H391        3.4930   -1.7280    6.6520 ha        1 VS1      0.142000
     66 H401        1.3210   -2.3720    5.6060 ha        1 VS1      0.155000
     67 H51         0.1990   -2.1230   -5.7870 h1        1 VS1      0.075450
     68 H52        -0.1450   -2.8430   -4.1380 h1        1 VS1      0.075450
     69 H61        -2.2380   -2.2440   -5.5450 h1        1 VS1      0.061700
     70 H62        -2.1820   -1.4560   -3.8840 h1        1 VS1      0.061700
     71 H81        -1.2250    1.6540   -5.6580 h1        1 VS1      0.061700
     72 H82        -1.5260    1.0260   -3.9550 h1        1 VS1      0.061700
     73 H91         0.9320    1.2530   -4.3390 h1        1 VS1      0.075450
     74 H92         0.8170    0.3110   -5.8890 h1        1 VS1      0.075450
     75 H221       -2.6340   -0.0700    2.8500 hc        1 VS1      0.063700
     76 H222       -2.0020   -1.5810    2.0620 hc        1 VS1      0.063700
     77 C25        -0.5290   -0.4450    3.1730 c3        1 VS1     -0.320600
@<TRIPOS>BOND
     1    1    2 1   
     2    1   31 1   
     3    1   40 1   
     4    2    3 1   
     5    2   10 1   
     6    2   41 1   
     7    3    4 1   
     8    3   42 1   
     9    3   43 1   
    10    4    5 ar  
    11    4    9 ar  
    12    5    6 ar  
    13    5   44 1   
    14    6    7 ar  
    15    6   45 1   
    16    7    8 ar  
    17    7   46 1   
    18    8    9 ar  
    19    8   47 1   
    20    9   48 1   
    21   10   11 1   
    22   10   30 2   
    23   11   12 1   
    24   11   49 1   
    25   12   13 1   
    26   12   39 1   
    27   12   50 1   
    28   13   14 1   
    29   13   51 1   
    30   13   52 1   
    31   14   15 1   
    32   14   53 1   
    33   14   54 1   
    34   15   16 ar  
    35   15   20 ar  
    36   16   17 ar  
    37   16   55 1   
    38   17   18 ar  
    39   17   56 1   
    40   18   19 ar  
    41   18   57 1   
    42   19   20 ar  
    43   19   58 1   
    44   20   59 1   
    45   21   22 1   
    46   21   28 2   
    47   21   29 2   
    48   21   77 1   
    49   22   23 ar  
    50   22   27 ar  
    51   23   24 ar  
    52   23   62 1   
    53   24   25 ar  
    54   24   63 1   
    55   25   26 ar  
    56   25   64 1   
    57   26   27 ar  
    58   26   65 1   
    59   27   66 1   
    60   31   32 2   
    61   31   33 1   
    62   33   34 1   
    63   33   38 1   
    64   34   35 1   
    65   34   67 1   
    66   34   68 1   
    67   35   36 1   
    68   35   69 1   
    69   35   70 1   
    70   36   37 1   
    71   37   38 1   
    72   37   71 1   
    73   37   72 1   
    74   38   73 1   
    75   38   74 1   
    76   39   75 1   
    77   39   76 1   
    78   39   77 1   
    79   60   77 1   
    80   61   77 1   
@<TRIPOS>SUBSTRUCTURE
     1 VS1         1 TEMP              0 ****  ****    0 ROOT
