@<TRIPOS>MOLECULE
VS2
   81    82     1     0     0
SMALL
bcc


@<TRIPOS>ATOM
      1 C1         -1.5370   -0.8300   -1.1370 c2        1 VS2     -0.050000
      2 C2         -1.9330   -1.5690    0.1130 c3        1 VS2     -0.110000
      3 C3         -1.7120   -0.6860    1.3140 c2        1 VS2     -0.150000
      4 C4         -0.8500    0.3550    1.3290 c2        1 VS2     -0.149000
      5 C5          0.0510    0.4880    0.1740 c2        1 VS2     -0.077000
      6 C6         -0.4900   -0.0320   -0.9230 c1        1 VS2     -0.219000
      7 C7         -2.3210   -0.8880   -2.3910 c3        1 VS2      0.007000
      8 O1         -3.5060   -1.6630   -2.2230 os        1 VS2     -0.303000
      9 C8         -3.7470   -2.7410   -3.0230 c2        1 VS2      0.138000
     10 O2         -2.8970   -3.0420   -3.8670 o         1 VS2     -0.442000
     11 N1          1.2160   -3.9360   -5.7420 n3        1 VS2     -0.225000
     12 C9         -0.1830   -3.5510   -5.9030 cx        1 VS2     -0.166000
     13 C10         0.9230   -2.7420   -6.5280 cx        1 VS2     -0.066000
     14 C11         1.3650   -1.3940   -6.0010 c3        1 VS2     -0.125000
     15 C12         0.9450   -1.1220   -4.6020 c2        1 VS2     -0.091000
     16 C13         0.4720    0.0930   -4.2430 c2        1 VS2     -0.214000
     17 C14         0.3100    1.1320   -5.2240 c2        1 VS2     -0.003000
     18 C15         0.6180    0.9080   -6.5350 c2        1 VS2     -0.251000
     19 C16         1.0890   -0.3470   -6.9980 c1        1 VS2     -0.084000
     20 C17        -1.0670   -4.3490   -6.8330 c2        1 VS2      0.316000
     21 O3         -0.5570   -5.0260   -7.7640 o         1 VS2     -0.460000
     22 N2         -2.4120   -4.3150   -6.6460 n         1 VS2     -0.406000
     23 C18        -4.8500   -6.7150   -4.1890 c2        1 VS2     -0.113000
     24 C19        -5.6950   -6.7410   -3.1540 c2        1 VS2     -0.217000
     25 C20        -5.4170   -6.0570   -1.8690 c3        1 VS2     -0.080000
     26 C21        -6.4230   -4.9340   -1.5860 c3        1 VS2     -0.149000
     27 C22        -7.8080   -5.4550   -1.4640 c2        1 VS2     -0.069000
     28 C23        -8.8440   -4.8530   -2.0950 c2        1 VS2     -0.206000
     29 C24        -8.6180   -3.7180   -2.9420 c2        1 VS2      0.037000
     30 C25        -7.3520   -3.2230   -3.1260 c2        1 VS2     -0.242000
     31 C26        -6.2360   -3.8050   -2.5000 c1        1 VS2     -0.087000
     32 S1         -3.9150   -8.0210   -7.8250 s6        1 VS2      2.889000
     33 O4         -5.0470   -8.7710   -8.1960 o         1 VS2     -0.966000
     34 O5         -3.8270   -6.6300   -8.0870 o         1 VS2     -0.966000
     35 C29        -1.6510   -6.4270  -10.0580 c2        1 VS2      0.107000
     36 C30        -2.1510   -7.5630  -10.6310 c2        1 VS2     -0.173000
     37 C31        -1.7140   -7.9650  -11.9520 c2        1 VS2     -0.060000
     38 C32        -2.2580   -9.0620  -12.5510 c2        1 VS2     -0.194000
     39 C33        -3.2630   -9.8160  -11.8780 c2        1 VS2     -0.005000
     40 C34        -3.6780   -9.4590  -10.6150 c2        1 VS2     -0.193000
     41 C35        -3.1310   -8.3470   -9.9530 c1        1 VS2     -0.300000
     42 C27        -5.1310   -7.3500   -5.4990 c3        1 VS2     -0.101000
     43 H21        -3.0260   -1.8170    0.0230 hc        1 VS2      0.121500
     44 H31        -1.3730   -2.5310    0.2570 hc        1 VS2      0.121500
     45 H41        -2.2960   -0.9610    2.2040 ha        1 VS2      0.130000
     46 H51        -0.7180    1.0190    2.1920 ha        1 VS2      0.136000
     47 H61         1.0700    0.8630    0.3030 ha        1 VS2      0.152000
     48 H71        -2.6700    0.1440   -2.6770 h1        1 VS2      0.112000
     49 H72        -1.6780   -1.3020   -3.2200 h1        1 VS2      0.112000
     50 HN11       -4.8210   -3.2260   -2.7680 h5        1 VS2      0.316000
     51 H91         1.4990   -4.7330   -6.2840 hn        1 VS2      0.167000
     52 H101       -0.6890   -3.2100   -4.9680 h1        1 VS2      0.175000
     53 H102        1.0290   -2.7800   -7.6410 h1        1 VS2      0.156000
     54 H121        2.5130   -1.4070   -5.9880 hc        1 VS2      0.179000
     55 H131        1.0620   -1.9350   -3.8690 ha        1 VS2      0.151000
     56 H141        0.1880    0.3100   -3.1970 ha        1 VS2      0.159000
     57 H151       -0.0810    2.1030   -4.8770 ha        1 VS2      0.129000
     58 H161        0.4780    1.7000   -7.2880 ha        1 VS2      0.143000
     59 HN21       -2.8020   -3.8310   -5.8720 hn        1 VS2      0.256000
     60 H181       -3.0070   -4.8600   -7.2290 hn        1 VS2      0.256000
     61 H191       -3.8890   -6.1730   -4.1260 ha        1 VS2      0.134000
     62 H192       -6.6550   -7.2800   -3.2050 ha        1 VS2      0.121000
     63 H201       -4.3870   -5.6100   -1.8670 hc        1 VS2      0.099000
     64 H202       -5.4760   -6.8020   -1.0300 hc        1 VS2      0.099000
     65 H221       -6.1470   -4.4950   -0.5660 hc        1 VS2      0.176000
     66 H231       -7.9520   -6.3450   -0.8320 ha        1 VS2      0.143000
     67 H241       -9.8750   -5.2250   -1.9890 ha        1 VS2      0.148000
     68 H251       -9.4910   -3.2650   -3.4430 ha        1 VS2      0.143000
     69 H261       -7.1810   -2.3580   -3.7900 ha        1 VS2      0.159000
     70 H281       -5.4380   -6.5280   -6.2100 hc        1 VS2      0.099000
     71 H282       -2.9940   -7.6060   -5.6680 h1        1 VS2      0.128000
     72 H291       -2.8530   -8.6270   -7.8020 hs        1 VS2     -0.474000
     73 H292       -1.9730   -6.0760   -9.0560 ha        1 VS2      0.164000
     74 H311       -0.9040   -5.7980  -10.5660 ha        1 VS2      0.164000
     75 H321       -0.9430   -7.3630  -12.4570 ha        1 VS2      0.132000
     76 H331       -1.9390   -9.3800  -13.5550 ha        1 VS2      0.138000
     77 H341       -3.6950  -10.6890  -12.3930 ha        1 VS2      0.134000
     78 H351       -4.4680  -10.0310  -10.0970 ha        1 VS2      0.172000
     79 H271       -3.9340   -9.1270   -5.6970 h1        1 VS2      0.128000
     80 H272       -5.9970   -8.0610   -5.4250 hc        1 VS2      0.099000
     81 C28        -3.9320   -8.0710   -6.0640 c3        1 VS2     -0.855000
@<TRIPOS>BOND
     1    1    2 1   
     2    1    6 1   
     3    1    7 1   
     4    2    3 1   
     5    2   43 1   
     6    2   44 1   
     7    3    4 1   
     8    3   45 1   
     9    4    5 1   
    10    4   46 1   
    11    5    6 1   
    12    5   47 1   
    13    7    8 1   
    14    7   48 1   
    15    7   49 1   
    16    8    9 1   
    17    9   10 1   
    18    9   50 1   
    19   11   12 1   
    20   11   13 1   
    21   11   51 1   
    22   12   13 1   
    23   12   20 1   
    24   12   52 1   
    25   13   14 1   
    26   13   53 1   
    27   14   15 1   
    28   14   19 1   
    29   14   54 1   
    30   15   16 1   
    31   15   55 1   
    32   16   17 1   
    33   16   56 1   
    34   17   18 1   
    35   17   57 1   
    36   18   19 1   
    37   18   58 1   
    38   20   21 1   
    39   20   22 1   
    40   22   59 1   
    41   22   60 1   
    42   23   24 1   
    43   23   42 1   
    44   23   61 1   
    45   24   25 1   
    46   24   62 1   
    47   25   26 1   
    48   25   63 1   
    49   25   64 1   
    50   26   27 1   
    51   26   31 1   
    52   26   65 1   
    53   27   28 1   
    54   27   66 1   
    55   28   29 1   
    56   28   67 1   
    57   29   30 1   
    58   29   68 1   
    59   30   31 1   
    60   30   69 1   
    61   32   33 1   
    62   32   34 1   
    63   32   72 1   
    64   32   81 1   
    65   35   36 1   
    66   35   73 1   
    67   35   74 1   
    68   36   37 1   
    69   36   41 1   
    70   37   38 1   
    71   37   75 1   
    72   38   39 1   
    73   38   76 1   
    74   39   40 1   
    75   39   77 1   
    76   40   41 1   
    77   40   78 1   
    78   42   70 1   
    79   42   80 1   
    80   42   81 1   
    81   71   81 1   
    82   79   81 1   
@<TRIPOS>SUBSTRUCTURE
     1 VS2         1 TEMP              0 ****  ****    0 ROOT
