@<TRIPOS>MOLECULE
VS2
   81    84     1     0     0
SMALL
bcc


@<TRIPOS>ATOM
      1 C1          0.8050    0.1020   -6.1600 ca        1 VS2     -0.101300
      2 C2         -0.3750    0.0290   -6.9070 ca        1 VS2     -0.108500
      3 C3         -0.3590   -0.5280   -8.1850 ca        1 VS2     -0.132000
      4 C4          0.8340   -1.0100   -8.7230 ca        1 VS2     -0.120000
      5 C5          2.0120   -0.9410   -7.9790 ca        1 VS2     -0.132000
      6 C6          2.0000   -0.3910   -6.6980 ca        1 VS2     -0.108500
      7 C7          0.8150    0.7310   -4.8090 c3        1 VS2      0.198700
      8 O1         -0.3420    0.2320   -4.1000 os        1 VS2     -0.432900
      9 C8         -0.4210    0.6270   -2.7830 c         1 VS2      0.742100
     10 O2          0.4130    1.4440   -2.3460 o         1 VS2     -0.615000
     11 N1         -1.4330   -0.0000   -2.0930 n         1 VS2     -0.533900
     12 C9         -1.8270    0.4650   -0.7830 c3        1 VS2      0.049700
     13 C10        -3.2830    0.1050   -0.4410 c3        1 VS2     -0.044100
     14 C11        -4.2400    0.6520   -1.4370 ca        1 VS2     -0.097300
     15 C12        -4.7610   -0.1720   -2.4420 ca        1 VS2     -0.127000
     16 C13        -5.6680    0.3380   -3.3690 ca        1 VS2     -0.124500
     17 C14        -6.0610    1.6740   -3.3010 ca        1 VS2     -0.125000
     18 C15        -5.5480    2.5000   -2.3010 ca        1 VS2     -0.124500
     19 C16        -4.6410    1.9920   -1.3720 ca        1 VS2     -0.127000
     20 C17        -0.9090   -0.1570    0.3080 c         1 VS2      0.645100
     21 O3         -1.3270   -1.0680    1.0520 o         1 VS2     -0.626100
     22 N2          0.3510    0.3730    0.4140 n         1 VS2     -0.554900
     23 C18         1.3850   -0.2330    1.2250 c3        1 VS2      0.108700
     24 C19         2.7790   -0.0890    0.5890 c3        1 VS2     -0.090400
     25 C20         2.8550   -0.7220   -0.7870 c3        1 VS2     -0.043100
     26 C21         4.2510   -0.7230   -1.3070 ca        1 VS2     -0.080300
     27 C22         5.1970   -1.6150   -0.7900 ca        1 VS2     -0.128500
     28 C23         6.5000   -1.6220   -1.2830 ca        1 VS2     -0.128500
     29 C24         6.8700   -0.7370   -2.2960 ca        1 VS2     -0.132000
     30 C25         5.9310    0.1540   -2.8160 ca        1 VS2     -0.128500
     31 C26         4.6270    0.1620   -2.3250 ca        1 VS2     -0.128500
     32 S1          0.3940    0.3240    5.1070 s6        1 VS2      1.318000
     33 O4          1.5060   -0.4050    5.5450 o         1 VS2     -0.649800
     34 O5          0.3480    1.6940    5.4070 o         1 VS2     -0.649800
     35 C29        -1.0670   -0.4350    5.6120 c3        1 VS2     -0.252300
     36 C30        -1.3070   -0.3580    7.0740 ca        1 VS2     -0.075300
     37 C31        -1.5460    0.8810    7.6840 ca        1 VS2     -0.115000
     38 C32        -1.8000    0.9490    9.0520 ca        1 VS2     -0.127500
     39 C33        -1.8210   -0.2150    9.8210 ca        1 VS2     -0.122000
     40 C34        -1.5840   -1.4500    9.2170 ca        1 VS2     -0.127500
     41 C35        -1.3290   -1.5240    7.8490 ca        1 VS2     -0.115000
     42 C27         1.4590    0.3450    2.6510 c3        1 VS2     -0.063400
     43 H21        -1.3140    0.4050   -6.4740 ha        1 VS2      0.138500
     44 H31        -1.2890   -0.5860   -8.7690 ha        1 VS2      0.134500
     45 H41         0.8470   -1.4460   -9.7330 ha        1 VS2      0.133000
     46 H51         2.9530   -1.3230   -8.4000 ha        1 VS2      0.134500
     47 H61         2.9290   -0.3460   -6.1100 ha        1 VS2      0.138500
     48 H71         0.7240    1.8490   -4.8800 h1        1 VS2      0.064200
     49 H72         1.7380    0.4700   -4.2250 h1        1 VS2      0.064200
     50 HN11       -2.0820   -0.5570   -2.6030 hn        1 VS2      0.340500
     51 H91        -1.7160    1.5920   -0.7410 h1        1 VS2      0.078700
     52 H101       -3.3830   -1.0110   -0.3600 hc        1 VS2      0.079700
     53 H102       -3.4960    0.5270    0.5780 hc        1 VS2      0.079700
     54 H121       -4.4620   -1.2310   -2.4930 ha        1 VS2      0.132500
     55 H131       -6.0750   -0.3160   -4.1540 ha        1 VS2      0.135500
     56 H141       -6.7780    2.0760   -4.0330 ha        1 VS2      0.135000
     57 H151       -5.8590    3.5530   -2.2430 ha        1 VS2      0.135500
     58 H161       -4.2400    2.6430   -0.5810 ha        1 VS2      0.132500
     59 HN21        0.6390    1.0720   -0.2380 hn        1 VS2      0.341500
     60 H181        1.1440   -1.3370    1.3180 h1        1 VS2      0.070700
     61 H191        3.0590    0.9950    0.5240 hc        1 VS2      0.058200
     62 H192        3.5180   -0.5890    1.2690 hc        1 VS2      0.058200
     63 H201        2.4780   -1.7790   -0.7320 hc        1 VS2      0.055700
     64 H202        2.1890   -0.1650   -1.5020 hc        1 VS2      0.055700
     65 H221        4.9070   -2.3140    0.0090 ha        1 VS2      0.133000
     66 H231        7.2390   -2.3260   -0.8720 ha        1 VS2      0.131000
     67 H241        7.8990   -0.7420   -2.6840 ha        1 VS2      0.131000
     68 H251        6.2210    0.8540   -3.6130 ha        1 VS2      0.131000
     69 H261        3.8880    0.8660   -2.7370 ha        1 VS2      0.133000
     70 H281       -0.6040    0.8090    3.0300 h1        1 VS2      0.125200
     71 H282       -0.2010   -0.9130    3.1650 h1        1 VS2      0.125200
     72 H291       -1.9510    0.0300    5.0940 h1        1 VS2      0.116200
     73 H292       -1.0750   -1.5140    5.2980 h1        1 VS2      0.116200
     74 H311       -1.5100    1.8030    7.0810 ha        1 VS2      0.144000
     75 H321       -1.9800    1.9250    9.5250 ha        1 VS2      0.135000
     76 H331       -2.0220   -0.1590   10.9000 ha        1 VS2      0.133000
     77 H341       -1.5960   -2.3690    9.8210 ha        1 VS2      0.135000
     78 H351       -1.1420   -2.5010    7.3790 ha        1 VS2      0.144000
     79 H271        2.3130   -0.1650    3.1760 hc        1 VS2      0.065200
     80 H272        1.6850    1.4420    2.6060 hc        1 VS2      0.065200
     81 C28         0.1830    0.1130    3.4270 c3        1 VS2     -0.331600
@<TRIPOS>BOND
     1    1    2 ar  
     2    1    6 ar  
     3    1    7 1   
     4    2    3 ar  
     5    2   43 1   
     6    3    4 ar  
     7    3   44 1   
     8    4    5 ar  
     9    4   45 1   
    10    5    6 ar  
    11    5   46 1   
    12    6   47 1   
    13    7    8 1   
    14    7   48 1   
    15    7   49 1   
    16    8    9 1   
    17    9   10 2   
    18    9   11 1   
    19   11   12 1   
    20   11   50 1   
    21   12   13 1   
    22   12   20 1   
    23   12   51 1   
    24   13   14 1   
    25   13   52 1   
    26   13   53 1   
    27   14   15 ar  
    28   14   19 ar  
    29   15   16 ar  
    30   15   54 1   
    31   16   17 ar  
    32   16   55 1   
    33   17   18 ar  
    34   17   56 1   
    35   18   19 ar  
    36   18   57 1   
    37   19   58 1   
    38   20   21 2   
    39   20   22 1   
    40   22   23 1   
    41   22   59 1   
    42   23   24 1   
    43   23   42 1   
    44   23   60 1   
    45   24   25 1   
    46   24   61 1   
    47   24   62 1   
    48   25   26 1   
    49   25   63 1   
    50   25   64 1   
    51   26   27 ar  
    52   26   31 ar  
    53   27   28 ar  
    54   27   65 1   
    55   28   29 ar  
    56   28   66 1   
    57   29   30 ar  
    58   29   67 1   
    59   30   31 ar  
    60   30   68 1   
    61   31   69 1   
    62   32   33 2   
    63   32   34 2   
    64   32   35 1   
    65   32   81 1   
    66   35   36 1   
    67   35   72 1   
    68   35   73 1   
    69   36   37 ar  
    70   36   41 ar  
    71   37   38 ar  
    72   37   74 1   
    73   38   39 ar  
    74   38   75 1   
    75   39   40 ar  
    76   39   76 1   
    77   40   41 ar  
    78   40   77 1   
    79   41   78 1   
    80   42   79 1   
    81   42   80 1   
    82   42   81 1   
    83   70   81 1   
    84   71   81 1   
@<TRIPOS>SUBSTRUCTURE
     1 VS2         1 TEMP              0 ****  ****    0 ROOT
