@<TRIPOS>MOLECULE
VS3
   83    85     1     0     0
SMALL
bcc


@<TRIPOS>ATOM
      1 C1          0.2360    2.4030   -1.1630 c2        1 VS3      0.080000
      2 C2          0.7170    3.5720   -0.4030 c3        1 VS3     -0.221000
      3 C3          0.8600    3.3750    1.0460 c2        1 VS3      0.036000
      4 C4          0.5830    2.1730    1.6400 c2        1 VS3     -0.207000
      5 C5          0.1380    1.0820    0.8620 c2        1 VS3      0.135000
      6 C6         -0.0320    1.2090   -0.5250 c2        1 VS3     -0.203000
      7 C7          0.0410    2.5990   -2.6300 c3        1 VS3      0.010000
      8 O1          0.0260    1.3730   -3.3520 os        1 VS3     -0.291000
      9 C8         -1.1900    0.7640   -3.4250 c1        1 VS3      0.134000
     10 O2         -1.1530   -0.3070   -4.1670 os        1 VS3     -0.136000
     11 N1         -1.8050   -2.9190   -1.9560 n3        1 VS3     -0.316000
     12 C9         -1.7840   -2.9950   -3.4040 c3        1 VS3     -0.017000
     13 C10        -0.3910   -3.1250   -3.9410 c2        1 VS3     -0.172000
     14 C11         0.3540   -2.1870   -4.5520 c2        1 VS3     -0.032000
     15 C12         1.7200   -2.5850   -5.0420 c3        1 VS3     -0.118000
     16 C13         2.2630   -1.7640   -6.1500 c2        1 VS3     -0.119000
     17 C14         1.7360   -0.5780   -6.4980 c2        1 VS3     -0.154000
     18 C15         0.6040   -0.0480   -5.7770 c2        1 VS3     -0.083000
     19 C16        -0.0170   -0.8060   -4.8410 c2        1 VS3     -0.024000
     20 C17        -2.6300   -4.1630   -3.9850 c2        1 VS3      0.267000
     21 O3         -3.3430   -4.8820   -3.2370 o         1 VS3     -0.466000
     22 N2         -2.6050   -4.3680   -5.3270 n         1 VS3     -0.395000
     23 C18        -5.6280   -7.2070   -6.2210 c2        1 VS3     -0.171000
     24 C19        -5.1350   -6.8210   -5.0410 c2        1 VS3     -0.161000
     25 C20        -4.4690   -7.7670   -4.1020 c3        1 VS3     -0.157000
     26 C21        -5.3410   -8.0710   -2.9420 c2        1 VS3      0.154000
     27 C22        -5.9070   -9.4220   -2.8370 c3        1 VS3     -0.232000
     28 C23        -6.7660   -9.6690   -1.6760 c2        1 VS3      0.018000
     29 C24        -7.0250   -8.6900   -0.7560 c2        1 VS3     -0.209000
     30 C25        -6.4520   -7.4050   -0.9020 c2        1 VS3      0.107000
     31 C26        -5.6200   -7.1070   -1.9820 c2        1 VS3     -0.228000
     32 S1         -4.0680   -6.3290   -8.8640 s6        1 VS3      2.853000
     33 O4         -3.7660   -6.2080  -10.1920 o         1 VS3     -0.902000
     34 O5         -3.4770   -5.5320   -7.9060 o         1 VS3     -0.902000
     35 O29        -3.3420   -7.8360   -8.4400 os        1 VS3     -0.626000
     36 C30        -3.7690   -9.0840   -8.6410 c2        1 VS3      0.208000
     37 C31        -2.7800  -10.1970   -8.3760 c3        1 VS3     -0.220000
     38 C32        -3.4020  -11.2500   -7.5760 c1        1 VS3      0.048000
     39 C33        -4.8790  -11.5190   -7.6340 c3        1 VS3     -0.148000
     40 N3         -5.4960  -11.4850   -6.2410 no        1 VS3      0.549000
     41 O8         -5.3660  -10.4930   -5.5620 o         1 VS3     -0.374500
     42 O9         -6.1220  -12.4270   -5.8590 o         1 VS3     -0.374500
     43 C34        -5.6170  -10.6650   -8.6540 c2        1 VS3     -0.079000
     44 C35        -5.0060   -9.5270   -8.9110 c1        1 VS3     -0.351000
     45 C27        -6.2100   -6.2640   -7.2070 c3        1 VS3     -0.094000
     46 H21         1.7240    3.9030   -0.8220 hc        1 VS3      0.215500
     47 H31         0.0280    4.4590   -0.5900 hc        1 VS3      0.215500
     48 H41         1.2070    4.2430    1.6390 ha        1 VS3      0.191000
     49 H51         0.7020    2.0420    2.7320 ha        1 VS3      0.197000
     50 H61        -0.0850    0.1140    1.3530 ha        1 VS3      0.191000
     51 H71        -0.9200    3.1680   -2.7960 h1        1 VS3      0.153500
     52 H72         0.9070    3.1690   -3.0750 h1        1 VS3      0.153500
     53 HN11       -0.3950    0.3380   -1.1090 ha        1 VS3      0.207000
     54 H91        -2.7550   -2.9770   -1.6350 hn        1 VS3      0.153000
     55 H101       -2.2830   -2.0500   -3.7820 h1        1 VS3      0.148000
     56 H102        0.0420   -4.1340   -3.8030 ha        1 VS3      0.134000
     57 H121        1.6970   -3.6620   -5.3700 hc        1 VS3      0.117500
     58 H131        2.4380   -2.5260   -4.1740 hc        1 VS3      0.117500
     59 H141        3.1450   -2.1790   -6.6630 ha        1 VS3      0.151000
     60 H151        2.1460    0.0290   -7.3210 ha        1 VS3      0.156000
     61 H161        0.2780    0.9810   -5.9910 ha        1 VS3      0.150000
     62 HN21       -2.0420   -3.8110   -5.9200 hn        1 VS3      0.245000
     63 H181       -5.1650   -6.1000   -2.0840 ha        1 VS3      0.209000
     64 H191       -5.6180   -8.2710   -6.5270 ha        1 VS3      0.145000
     65 H192       -5.1400   -5.7690   -4.7050 ha        1 VS3      0.156000
     66 H201       -4.1800   -8.7170   -4.6330 hc        1 VS3      0.148500
     67 H202       -3.5260   -7.2660   -3.7270 hc        1 VS3      0.148500
     68 H221       -5.0700  -10.1950   -2.8770 hc        1 VS3      0.234500
     69 H231       -6.4810   -9.6590   -3.8020 hc        1 VS3      0.234500
     70 H241       -7.1970  -10.6830   -1.5750 ha        1 VS3      0.184000
     71 H251       -7.6790   -8.8890    0.1120 ha        1 VS3      0.187000
     72 H261       -6.6690   -6.6280   -0.1440 ha        1 VS3      0.178000
     73 H281       -6.0520   -7.5790   -8.9070 h1        1 VS3      0.201000
     74 H282       -7.3310   -6.3710   -7.1930 hc        1 VS3      0.114500
     75 H311       -2.3770  -10.6600   -9.3270 hc        1 VS3      0.194500
     76 H321       -1.8840   -9.7870   -7.8260 hc        1 VS3      0.194500
     77 H341       -4.9650  -12.6040   -7.9850 h1        1 VS3      0.206000
     78 H351       -6.4780  -11.0960   -9.1780 ha        1 VS3      0.183000
     79 H271       -6.2990   -5.8740   -9.3120 h1        1 VS3      0.201000
     80 H272       -5.9760   -5.2000   -6.9290 hc        1 VS3      0.114500
     81 C28        -5.7100   -6.5380   -8.6120 c3        1 VS3     -0.939000
     82 H12        -1.2940   -3.6860   -1.5580 hn        1 VS3      0.153000
     83 H22        -3.1500   -5.0850   -5.7480 hn        1 VS3      0.245000
@<TRIPOS>BOND
     1    1    2 1   
     2    1    6 1   
     3    1    7 1   
     4    2    3 1   
     5    2   46 1   
     6    2   47 1   
     7    3    4 1   
     8    3   48 1   
     9    4    5 1   
    10    4   49 1   
    11    5    6 1   
    12    5   50 1   
    13    6   53 1   
    14    7    8 1   
    15    7   51 1   
    16    7   52 1   
    17    8    9 1   
    18    9   10 1   
    19   10   19 1   
    20   11   12 1   
    21   11   54 1   
    22   11   82 1   
    23   12   13 1   
    24   12   20 1   
    25   12   55 1   
    26   13   14 1   
    27   13   56 1   
    28   14   15 1   
    29   14   19 1   
    30   15   16 1   
    31   15   57 1   
    32   15   58 1   
    33   16   17 1   
    34   16   59 1   
    35   17   18 1   
    36   17   60 1   
    37   18   19 1   
    38   18   61 1   
    39   20   21 1   
    40   20   22 1   
    41   22   62 1   
    42   22   83 1   
    43   23   24 1   
    44   23   45 1   
    45   23   64 1   
    46   24   25 1   
    47   24   65 1   
    48   25   26 1   
    49   25   66 1   
    50   25   67 1   
    51   26   27 1   
    52   26   31 1   
    53   27   28 1   
    54   27   68 1   
    55   27   69 1   
    56   28   29 1   
    57   28   70 1   
    58   29   30 1   
    59   29   71 1   
    60   30   31 1   
    61   30   72 1   
    62   31   63 1   
    63   32   33 1   
    64   32   34 1   
    65   32   35 1   
    66   32   81 1   
    67   35   36 1   
    68   36   37 1   
    69   36   44 1   
    70   37   38 1   
    71   37   75 1   
    72   37   76 1   
    73   38   39 1   
    74   39   40 1   
    75   39   43 1   
    76   39   77 1   
    77   40   41 1   
    78   40   42 1   
    79   43   44 1   
    80   43   78 1   
    81   45   74 1   
    82   45   80 1   
    83   45   81 1   
    84   73   81 1   
    85   79   81 1   
@<TRIPOS>SUBSTRUCTURE
     1 VS3         1 TEMP              0 ****  ****    0 ROOT
