@<TRIPOS>MOLECULE
VS3
   81    74     1     0     0
SMALL
bcc


@<TRIPOS>ATOM
      1 C1         -1.2680   -6.5630   -3.1300 c1        1 VS3     -0.121000
      2 C2         -1.9920   -7.5370   -3.8000 c1        1 VS3     -0.126500
      3 C3         -1.4300   -8.1950   -4.8830 c1        1 VS3     -0.126500
      4 C4         -0.1450   -7.8790   -5.2970 c1        1 VS3     -0.126500
      5 C5          0.5790   -6.9060   -4.6270 c1        1 VS3     -0.126500
      6 C6          0.0170   -6.2470   -3.5430 c1        1 VS3     -0.105000
      7 C7         -1.8950   -5.8160   -1.9700 c3        1 VS3      0.038000
      8 O1         -0.8780   -5.2620   -1.1610 os        1 VS3     -0.271000
      9 C8         -1.2810   -4.1210   -0.4390 c2        1 VS3      0.400000
     10 O2         -2.4210   -4.0350   -0.0290 o         1 VS3     -0.433000
     11 N1         -0.3280   -3.1140   -0.1120 n         1 VS3     -0.340000
     12 C9         -0.7060   -1.7430   -0.1380 c3        1 VS3      0.026000
     13 C10        -2.0930   -1.6130   -0.7250 c3        1 VS3     -0.150000
     14 C11        -1.9900   -1.3900   -2.2220 c2        1 VS3     -0.090000
     15 C12        -1.5990   -0.1540   -2.7120 c2        1 VS3     -0.128000
     16 C13        -1.5780    0.0750   -4.0780 c1        1 VS3     -0.128000
     17 C14        -1.9490   -0.9320   -4.9540 c1        1 VS3     -0.126500
     18 C15        -2.3400   -2.1670   -4.4650 c1        1 VS3     -0.126500
     19 C16        -2.3600   -2.3960   -3.0990 c1        1 VS3     -0.121000
     20 C17        -0.7010   -1.1910    1.2720 c2        1 VS3      0.292000
     21 O3         -1.6620   -1.3640    1.9960 o         1 VS3     -0.375000
     22 N2          0.4450   -0.4980    1.7630 n         1 VS3     -0.371000
     23 C18         0.2990    0.7830    2.3640 c3        1 VS3      0.033000
     24 C19         0.3510    0.6430    3.8710 c3        1 VS3     -0.166000
     25 C20        -0.9350    1.1740    4.4730 c3        1 VS3     -0.122000
     26 C21        -0.7590    1.3480    5.9710 c2        1 VS3     -0.078000
     27 C22        -1.1180    0.3220    6.8340 c2        1 VS3     -0.128000
     28 C23        -1.0740    0.5220    8.2070 c1        1 VS3     -0.127000
     29 C24        -0.6730    1.7470    8.7160 c1        1 VS3     -0.126500
     30 C25        -0.3150    2.7730    7.8540 c1        1 VS3     -0.126500
     31 C26        -0.3580    2.5740    6.4820 c1        1 VS3     -0.127000
     32 C28         0.9140    3.1150    1.8140 c3        1 VS3     -0.893000
     33 S1          2.1000    4.1110    0.9380 s4        1 VS3      2.042800
     34 O4          3.0570    4.7900    1.8910 o         1 VS3     -0.531900
     35 O5          3.0470    3.2540    0.1320 o         1 VS3     -0.531900
     36 O29         1.3910    5.1190    0.0610 o         1 VS3     -0.661000
     37 C30         2.1630    5.6940   -0.9710 c2        1 VS3      0.168000
     38 C31         2.3630    7.0670   -1.0030 c2        1 VS3     -0.200000
     39 C32         3.0260    7.6460   -2.0750 c1        1 VS3     -0.039000
     40 C33         3.4880    6.8540   -3.1150 c1        1 VS3     -0.157000
     41 N3          4.1890    7.4430   -4.1980 no        1 VS3      0.571000
     42 O8          4.3480    6.8180   -5.2370 o         1 VS3     -0.361500
     43 O9          4.7140    8.6980   -4.0700 o         1 VS3     -0.361500
     44 C34         3.2890    5.4820   -3.0830 c1        1 VS3     -0.047000
     45 C35         2.6260    4.9020   -2.0110 c1        1 VS3     -0.156000
     46 C27         1.4200    1.6870    1.9020 c3        1 VS3     -0.150000
     47 H21        -2.8960   -7.7590   -3.5090 ha        1 VS3      0.136000
     48 H31        -1.9400   -8.8820   -5.3550 ha        1 VS3      0.136000
     49 H41         0.2500   -8.3430   -6.0590 ha        1 VS3      0.136000
     50 H51         1.4830   -6.6840   -4.9180 ha        1 VS3      0.136000
     51 H61         0.5270   -5.5610   -3.0720 ha        1 VS3      0.134000
     52 H71        -2.4350   -6.4350   -1.4370 h1        1 VS3      0.116000
     53 H72        -2.4660   -5.1000   -2.3130 h1        1 VS3      0.116000
     54 HN11        0.5330   -3.3450    0.0780 hn        1 VS3      0.253000
     55 H91        -0.0720   -1.2410   -0.6870 h1        1 VS3      0.139000
     56 H101       -2.5970   -2.4300   -0.5530 hc        1 VS3      0.117000
     57 H102       -2.5520   -0.8540   -0.3130 hc        1 VS3      0.117000
     58 H121       -1.3370    0.5560   -2.0930 ha        1 VS3      0.134000
     59 H131       -1.3020    0.9460   -4.4230 ha        1 VS3      0.134000
     60 H141       -1.9340   -0.7700   -5.9190 ha        1 VS3      0.136000
     61 H151       -2.6010   -2.8770   -5.0840 ha        1 VS3      0.136000
     62 H161       -2.6360   -3.2670   -2.7540 ha        1 VS3      0.139000
     63 HN21        1.2680   -0.8880    1.7150 hn        1 VS3      0.258000
     64 H181       -0.5600    1.1690    2.1020 h1        1 VS3      0.123000
     65 H191        1.1090    1.1530    4.2190 hc        1 VS3      0.091500
     66 H192        0.4570   -0.3010    4.1070 hc        1 VS3      0.091500
     67 H201       -1.6610    0.5400    4.3010 hc        1 VS3      0.093500
     68 H202       -1.1530    2.0360    4.0680 hc        1 VS3      0.093500
     69 H221       -1.4000   -0.5400    6.4760 ha        1 VS3      0.132000
     70 H231       -1.3260   -0.1990    8.8130 ha        1 VS3      0.132000
     71 H241       -0.6430    1.8880    9.6820 ha        1 VS3      0.136000
     72 H251       -0.0320    3.6360    8.2140 ha        1 VS3      0.136000
     73 H261       -0.1060    3.2950    5.8760 ha        1 VS3      0.131000
     74 H281        0.0610    3.1290    1.3370 h1        1 VS3      0.185000
     75 H282        0.7900    3.4740    2.7170 h1        1 VS3      0.185000
     76 H311        2.0380    7.6240   -0.2720 ha        1 VS3      0.179000
     77 H321        3.1660    8.6120   -2.0980 ha        1 VS3      0.174000
     78 H341        3.6140    4.9250   -3.8140 ha        1 VS3      0.173000
     79 H351        2.4860    3.9380   -1.9890 ha        1 VS3      0.164000
     80 H271        2.1600    1.6420    2.5420 hc        1 VS3      0.105500
     81 H272        1.7310    1.3960    1.0220 hc        1 VS3      0.105500
@<TRIPOS>BOND
     1    1    6 1   
     2    1    7 1   
     3    2    3 1   
     4    2   47 1   
     5    3   48 1   
     6    4    5 1   
     7    4   49 1   
     8    5   50 1   
     9    6   51 1   
    10    7    8 1   
    11    7   52 1   
    12    7   53 1   
    13    8    9 1   
    14    9   10 1   
    15    9   11 1   
    16   11   12 1   
    17   11   54 1   
    18   12   13 1   
    19   12   20 1   
    20   12   55 1   
    21   13   14 1   
    22   13   56 1   
    23   13   57 1   
    24   14   15 1   
    25   14   19 1   
    26   15   16 1   
    27   15   58 1   
    28   16   59 1   
    29   17   18 1   
    30   17   60 1   
    31   18   61 1   
    32   19   62 1   
    33   20   21 1   
    34   20   22 1   
    35   22   23 1   
    36   22   63 1   
    37   23   24 1   
    38   23   46 1   
    39   23   64 1   
    40   24   25 1   
    41   24   65 1   
    42   24   66 1   
    43   25   26 1   
    44   25   67 1   
    45   25   68 1   
    46   26   27 1   
    47   26   31 1   
    48   27   28 1   
    49   27   69 1   
    50   28   70 1   
    51   29   30 1   
    52   29   71 1   
    53   30   72 1   
    54   31   73 1   
    55   32   33 1   
    56   32   46 1   
    57   32   74 1   
    58   32   75 1   
    59   33   34 1   
    60   33   35 1   
    61   36   37 1   
    62   37   38 1   
    63   37   45 1   
    64   38   39 1   
    65   38   76 1   
    66   39   77 1   
    67   40   41 1   
    68   40   44 1   
    69   41   42 1   
    70   41   43 1   
    71   44   78 1   
    72   45   79 1   
    73   46   80 1   
    74   46   81 1   
@<TRIPOS>SUBSTRUCTURE
     1 VS3         1 TEMP              0 ****  ****    0 ROOT
