@<TRIPOS>MOLECULE
VS3
   81    84     1     0     0
SMALL
bcc


@<TRIPOS>ATOM
      1 C1          6.1690    1.0110    0.9490 ca        1 VS3     -0.102300
      2 C2          6.9700   -0.1350    0.9210 ca        1 VS3     -0.108000
      3 C3          8.0450   -0.2580    1.8010 ca        1 VS3     -0.132000
      4 C4          8.3260    0.7630    2.7080 ca        1 VS3     -0.119000
      5 C5          7.5270    1.9060    2.7400 ca        1 VS3     -0.132000
      6 C6          6.4470    2.0300    1.8670 ca        1 VS3     -0.108000
      7 C7          5.0420    1.1760   -0.0120 c3        1 VS3      0.198700
      8 O1          4.3110   -0.0720   -0.0230 os        1 VS3     -0.429900
      9 C8          3.1570   -0.0530   -0.7730 c         1 VS3      0.741100
     10 O2          2.8920    0.9580   -1.4520 o         1 VS3     -0.617000
     11 N1          2.3970   -1.1920   -0.6220 n         1 VS3     -0.532900
     12 C9          1.3050   -1.4690   -1.5270 c3        1 VS3      0.050700
     13 C10         0.9920   -2.9710   -1.6360 c3        1 VS3     -0.044100
     14 C11         2.1750   -3.7550   -2.0800 ca        1 VS3     -0.099300
     15 C12         2.9530   -4.4490   -1.1460 ca        1 VS3     -0.126500
     16 C13         4.0550   -5.1930   -1.5650 ca        1 VS3     -0.124500
     17 C14         4.3880   -5.2490   -2.9180 ca        1 VS3     -0.124000
     18 C15         3.6150   -4.5610   -3.8530 ca        1 VS3     -0.124500
     19 C16         2.5130   -3.8170   -3.4370 ca        1 VS3     -0.126500
     20 C17         0.0160   -0.7430   -1.0510 c         1 VS3      0.645100
     21 O3         -0.9210   -1.3770   -0.5250 o         1 VS3     -0.625100
     22 N2         -0.0420    0.6100   -1.2790 n         1 VS3     -0.556900
     23 C18        -1.0530    1.4510   -0.6740 c3        1 VS3      0.107700
     24 C19        -0.5020    2.8320   -0.2760 c3        1 VS3     -0.090400
     25 C20         0.6390    2.7330    0.7190 c3        1 VS3     -0.042100
     26 C21         1.0440    4.0790    1.2100 ca        1 VS3     -0.082300
     27 C22         0.2580    4.7550    2.1500 ca        1 VS3     -0.127500
     28 C23         0.6410    6.0120    2.6150 ca        1 VS3     -0.128000
     29 C24         1.8140    6.6030    2.1450 ca        1 VS3     -0.130000
     30 C25         2.6030    5.9340    1.2100 ca        1 VS3     -0.128000
     31 C26         2.2210    4.6770    0.7440 ca        1 VS3     -0.127500
     32 S1         -4.5620    0.5750   -2.4430 s6        1 VS3      1.603500
     33 O4         -5.1940    1.6440   -1.8450 o         1 VS3     -0.636800
     34 O5         -4.7180    0.3070   -3.7830 o         1 VS3     -0.636800
     35 O29        -5.2790   -0.7970   -1.7320 os        1 VS3     -0.485800
     36 C30        -5.5980   -0.9580   -0.4190 ca        1 VS3      0.204100
     37 C31        -6.4310   -0.0430    0.2490 ca        1 VS3     -0.174000
     38 C32        -6.7970   -0.2900    1.5670 ca        1 VS3     -0.046000
     39 C33        -6.3310   -1.4490    2.2110 ca        1 VS3     -0.201200
     40 N3         -6.7220   -1.7110    3.6180 no        1 VS3      0.316200
     41 O8         -6.3240   -2.7090    4.1580 o         1 VS3     -0.212000
     42 O9         -7.4250   -0.9170    4.1860 o         1 VS3     -0.212000
     43 C34        -5.4980   -2.3640    1.5420 ca        1 VS3     -0.046000
     44 C35        -5.1280   -2.1160    0.2270 ca        1 VS3     -0.174000
     45 C27        -2.2740    1.6830   -1.5840 c3        1 VS3     -0.059400
     46 H21         6.7390   -0.9400    0.2070 ha        1 VS3      0.138000
     47 H31         8.6710   -1.1620    1.7780 ha        1 VS3      0.134500
     48 H41         9.1760    0.6670    3.4000 ha        1 VS3      0.134000
     49 H51         7.7460    2.7110    3.4570 ha        1 VS3      0.134500
     50 H61         5.8140    2.9300    1.9010 ha        1 VS3      0.138000
     51 H71         5.4180    1.3670   -1.0530 h1        1 VS3      0.064200
     52 H72         4.3440    2.0020    0.2890 h1        1 VS3      0.064200
     53 HN11        2.7910   -1.9600   -0.1240 hn        1 VS3      0.341500
     54 H91         1.5690   -1.0820   -2.5590 h1        1 VS3      0.078700
     55 H101        0.6130   -3.3470   -0.6470 hc        1 VS3      0.080200
     56 H102        0.1520   -3.0810   -2.3730 hc        1 VS3      0.080200
     57 H121        2.6860   -4.4180   -0.0790 ha        1 VS3      0.133000
     58 H131        4.6600   -5.7390   -0.8250 ha        1 VS3      0.136000
     59 H141        5.2580   -5.8370   -3.2470 ha        1 VS3      0.136000
     60 H151        3.8740   -4.6060   -4.9210 ha        1 VS3      0.136000
     61 H161        1.9020   -3.2790   -4.1770 ha        1 VS3      0.133000
     62 HN21        0.7630    1.0710   -1.6500 hn        1 VS3      0.342500
     63 H181       -1.4220    0.9280    0.2620 h1        1 VS3      0.071700
     64 H191       -0.1600    3.3860   -1.1890 hc        1 VS3      0.058200
     65 H192       -1.3430    3.4180    0.1810 hc        1 VS3      0.058200
     66 H201        0.3200    2.0990    1.5900 hc        1 VS3      0.056700
     67 H202        1.5220    2.2270    0.2400 hc        1 VS3      0.056700
     68 H221       -0.6670    4.2890    2.5230 ha        1 VS3      0.133000
     69 H231        0.0180    6.5360    3.3540 ha        1 VS3      0.132000
     70 H241        2.1160    7.5950    2.5120 ha        1 VS3      0.132000
     71 H251        3.5270    6.3990    0.8370 ha        1 VS3      0.132000
     72 H261        2.8460    4.1500    0.0060 ha        1 VS3      0.133000
     73 H281       -2.8810   -0.3130   -1.0620 h1        1 VS3      0.153200
     74 H282       -2.3590   -0.1290   -2.7380 h1        1 VS3      0.153200
     75 H311       -6.7820    0.8660   -0.2670 ha        1 VS3      0.173500
     76 H321       -7.4530    0.4190    2.1020 ha        1 VS3      0.174000
     77 H341       -5.1400   -3.2710    2.0590 ha        1 VS3      0.174000
     78 H351       -4.4820   -2.8210   -0.3190 ha        1 VS3      0.173500
     79 H271       -1.9530    2.2180   -2.5160 hc        1 VS3      0.064200
     80 H272       -2.9850    2.3530   -1.0280 hc        1 VS3      0.064200
     81 C28        -2.9720    0.3910   -1.9460 c3        1 VS3     -0.392600
@<TRIPOS>BOND
     1    1    2 ar  
     2    1    6 ar  
     3    1    7 1   
     4    2    3 ar  
     5    2   46 1   
     6    3    4 ar  
     7    3   47 1   
     8    4    5 ar  
     9    4   48 1   
    10    5    6 ar  
    11    5   49 1   
    12    6   50 1   
    13    7    8 1   
    14    7   51 1   
    15    7   52 1   
    16    8    9 1   
    17    9   10 2   
    18    9   11 1   
    19   11   12 1   
    20   11   53 1   
    21   12   13 1   
    22   12   20 1   
    23   12   54 1   
    24   13   14 1   
    25   13   55 1   
    26   13   56 1   
    27   14   15 ar  
    28   14   19 ar  
    29   15   16 ar  
    30   15   57 1   
    31   16   17 ar  
    32   16   58 1   
    33   17   18 ar  
    34   17   59 1   
    35   18   19 ar  
    36   18   60 1   
    37   19   61 1   
    38   20   21 2   
    39   20   22 1   
    40   22   23 1   
    41   22   62 1   
    42   23   24 1   
    43   23   45 1   
    44   23   63 1   
    45   24   25 1   
    46   24   64 1   
    47   24   65 1   
    48   25   26 1   
    49   25   66 1   
    50   25   67 1   
    51   26   27 ar  
    52   26   31 ar  
    53   27   28 ar  
    54   27   68 1   
    55   28   29 ar  
    56   28   69 1   
    57   29   30 ar  
    58   29   70 1   
    59   30   31 ar  
    60   30   71 1   
    61   31   72 1   
    62   32   33 2   
    63   32   34 2   
    64   32   35 1   
    65   32   81 1   
    66   35   36 1   
    67   36   37 ar  
    68   36   44 ar  
    69   37   38 ar  
    70   37   75 1   
    71   38   39 ar  
    72   38   76 1   
    73   39   40 1   
    74   39   43 ar  
    75   40   41 1   
    76   40   42 1   
    77   43   44 ar  
    78   43   77 1   
    79   44   78 1   
    80   45   79 1   
    81   45   80 1   
    82   45   81 1   
    83   73   81 1   
    84   74   81 1   
@<TRIPOS>SUBSTRUCTURE
     1 VS3         1 TEMP              0 ****  ****    0 ROOT
