@<TRIPOS>MOLECULE
VS4
   90    90     1     0     0
SMALL
bcc


@<TRIPOS>ATOM
      1 C8        850.7900  155.0730  642.6350 c2        1 VS4      0.345000
      2 N3        851.6510  155.0340  641.5310 n2        1 VS4     -0.208000
      3 C39       852.3700  157.7820  644.4460 c3        1 VS4     -0.228000
      4 C40       851.5210  158.5690  643.4650 c3        1 VS4     -0.082000
      5 N4        851.1720  157.8530  642.2350 n3        1 VS4     -0.310000
      6 C33       850.1740  158.5770  641.4660 c3        1 VS4     -0.147000
      7 C49       852.3220  157.4780  641.4260 c3        1 VS4     -0.124000
      8 C48       852.3120  156.0180  641.0420 c2        1 VS4      0.076000
      9 O2        851.0290  154.7350  643.7930 o         1 VS4     -0.230000
     10 N1        849.3150  155.3410  642.3670 n4        1 VS4     -0.134000
     11 C9        846.5900  152.1980  645.2400 c2        1 VS4     -0.223000
     12 C10       845.4040  152.2500  644.6170 c2        1 VS4     -0.018000
     13 C11       844.2460  151.4140  645.0440 c3        1 VS4     -0.141000
     14 C12       842.9430  152.0230  644.6600 c2        1 VS4     -0.115000
     15 C13       841.8960  152.0100  645.5130 c2        1 VS4     -0.178000
     16 C14       842.0300  151.4490  646.8340 c2        1 VS4      0.002000
     17 C15       843.2230  150.9380  647.2550 c2        1 VS4     -0.239000
     18 C16       844.3830  150.9640  646.4420 c1        1 VS4     -0.082000
     19 C17       847.7330  153.0170  644.7900 c2        1 VS4      0.373000
     20 O3        847.6780  153.7620  643.7680 o         1 VS4     -0.530000
     21 N2        848.8970  152.9690  645.5030 n         1 VS4     -0.410000
     22 C18      -817.3580 -146.3800 -618.9890 c3        1 VS4     -0.162000
     23 C19      -816.8430 -146.1180 -617.5860 c3        1 VS4     -0.180000
     24 C20      -816.5110 -147.3460 -616.8410 c2        1 VS4      0.078000
     25 C21      -816.0880 -147.3560 -615.5490 c2        1 VS4     -0.177000
     26 C22      -815.9060 -146.1090 -614.6810 c3        1 VS4     -0.110000
     27 C23      -815.9920 -146.3710 -613.2130 c2        1 VS4     -0.097000
     28 C24      -815.9280 -147.5920 -612.6380 c2        1 VS4     -0.139000
     29 C25      -815.5690 -148.7520 -613.4900 c2        1 VS4     -0.047000
     30 C26      -815.8600 -148.4430 -614.7320 c1        1 VS4      0.200000
     31 S1       -815.6880 -147.8150 -622.3850 s6        1 VS4      2.813000
     32 N5       -814.9670 -146.5770 -623.2190 n3        1 VS4     -0.774000
     33 O6       -815.6720 -145.9440 -624.1450 os        1 VS4     -0.123000
     34 C34      -815.0650 -145.8270 -625.4520 c3        1 VS4     -0.049000
     35 C41      -815.2580 -147.0170 -626.3280 c2        1 VS4      0.054000
     36 C42      -814.3220 -147.1540 -627.4620 c3        1 VS4     -0.219000
     37 C43      -814.5650 -148.2930 -628.3560 c2        1 VS4      0.042000
     38 C44      -815.5820 -149.1840 -628.1310 c2        1 VS4     -0.208000
     39 C45      -816.4380 -149.0140 -627.0230 c2        1 VS4      0.148000
     40 C46      -816.2730 -147.9280 -626.1440 c2        1 VS4     -0.189000
     41 O4       -814.6900 -148.4410 -621.6260 o         1 VS4     -0.910500
     42 O5       -816.4250 -148.5950 -623.2920 o         1 VS4     -0.910500
     43 C27      -816.2520 -146.7650 -619.9490 c3        1 VS4     -0.129000
     44 H391      853.4110  157.6340  644.0710 hc        1 VS4      0.092667
     45 H392      852.4270  158.3600  645.4020 hc        1 VS4      0.092667
     46 H401      851.9270  156.7800  644.6660 hc        1 VS4      0.092667
     47 H402      852.0480  159.5390  643.2260 h1        1 VS4      0.093500
     48 H331      850.5470  158.8330  643.9710 h1        1 VS4      0.093500
     49 H332      849.2500  158.6930  642.0930 h1        1 VS4      0.089000
     50 H333      849.9200  157.9940  640.5410 h1        1 VS4      0.089000
     51 H491      850.5150  159.6010  641.1530 h1        1 VS4      0.089000
     52 H492      853.2930  157.6550  641.9800 h1        1 VS4      0.139000
     53 H481      852.3830  158.0750  640.4660 h1        1 VS4      0.139000
     54 H482      853.0030  155.7450  640.2070 h4        1 VS4      0.200000
     55 HN11      848.9010  154.5530  641.8520 hn        1 VS4      0.272000
     56 H91       848.8200  155.3800  643.2800 hn        1 VS4      0.272000
     57 H101      846.7340  151.5380  646.1170 ha        1 VS4      0.186000
     58 H102      845.2340  152.9090  643.7480 ha        1 VS4      0.137000
     59 H121      844.3190  150.4230  644.4680 hc        1 VS4      0.189000
     60 H131      842.8620  152.4510  643.6500 ha        1 VS4      0.136000
     61 H141      840.9170  152.4270  645.2280 ha        1 VS4      0.148000
     62 H151      841.1400  151.4640  647.4870 ha        1 VS4      0.145000
     63 H161      843.3290  150.5150  648.2680 ha        1 VS4      0.159000
     64 HN21      848.9770  152.3920  646.3040 hn        1 VS4      0.238000
     65 H181     -818.1380 -147.1870 -618.9620 hc        1 VS4      0.109500
     66 H191     -817.8610 -145.4470 -619.3610 hc        1 VS4      0.109500
     67 H192     -817.6310 -145.5460 -617.0130 hc        1 VS4      0.138500
     68 H201     -815.9330 -145.4520 -617.6290 hc        1 VS4      0.138500
     69 H202     -816.5750 -148.3010 -617.4010 ha        1 VS4      0.170000
     70 H221     -816.7370 -145.4040 -614.9750 hc        1 VS4      0.157000
     71 H231     -814.9270 -145.6040 -614.9120 hc        1 VS4      0.157000
     72 H241     -816.0890 -145.4630 -612.5860 ha        1 VS4      0.198000
     73 H251     -816.0570 -147.7900 -611.5620 ha        1 VS4      0.211000
     74 H261     -815.1140 -149.6550 -613.0570 ha        1 VS4      0.248000
     75 H281     -817.7070 -147.6980 -621.2330 h1        1 VS4      0.173500
     76 H282     -815.7200 -147.6790 -619.5660 hc        1 VS4      0.098000
     77 HN51     -816.9630 -147.8340 -625.2790 ha        1 VS4      0.218000
     78 H341     -815.6390 -144.9540 -625.8890 h1        1 VS4      0.152500
     79 H342     -813.9780 -145.5580 -625.3700 h1        1 VS4      0.152500
     80 H421     -813.2590 -147.2340 -627.0610 hc        1 VS4      0.212500
     81 H431     -814.3230 -146.1950 -628.0760 hc        1 VS4      0.212500
     82 H441     -813.8850 -148.4060 -629.2230 ha        1 VS4      0.192000
     83 H451     -815.7430 -150.0410 -628.8120 ha        1 VS4      0.200000
     84 H461     -817.2550 -149.7420 -626.8410 ha        1 VS4      0.198000
     85 H271     -817.2020 -146.0790 -621.7520 h1        1 VS4      0.173500
     86 H272     -815.4960 -145.9360 -620.0000 hc        1 VS4      0.098000
     87 C28      -816.7960 -147.0400 -621.3330 c3        1 VS4     -0.882000
     88 H12       849.1760  156.2090  641.8520 hn        1 VS4      0.272000
     89 H22       849.6860  153.4960  645.2200 hn        1 VS4      0.238000
     90 H52      -814.1850 -146.0520 -622.8810 hn        1 VS4      0.254000
@<TRIPOS>BOND
     1    1    2 1   
     2    1    9 1   
     3    1   10 1   
     4    2    8 1   
     5    3    4 1   
     6    3   44 1   
     7    3   45 1   
     8    3   46 1   
     9    4    5 1   
    10    4   47 1   
    11    4   48 1   
    12    5    6 1   
    13    5    7 1   
    14    6   49 1   
    15    6   50 1   
    16    6   51 1   
    17    7    8 1   
    18    7   52 1   
    19    7   53 1   
    20    8   54 1   
    21   10   55 1   
    22   10   56 1   
    23   10   88 1   
    24   11   12 1   
    25   11   19 1   
    26   11   57 1   
    27   12   13 1   
    28   12   58 1   
    29   13   14 1   
    30   13   18 1   
    31   13   59 1   
    32   14   15 1   
    33   14   60 1   
    34   15   16 1   
    35   15   61 1   
    36   16   17 1   
    37   16   62 1   
    38   17   18 1   
    39   17   63 1   
    40   19   20 1   
    41   19   21 1   
    42   21   64 1   
    43   21   89 1   
    44   22   23 1   
    45   22   43 1   
    46   22   65 1   
    47   22   66 1   
    48   23   24 1   
    49   23   67 1   
    50   23   68 1   
    51   24   25 1   
    52   24   69 1   
    53   25   26 1   
    54   25   30 1   
    55   26   27 1   
    56   26   70 1   
    57   26   71 1   
    58   27   28 1   
    59   27   72 1   
    60   28   29 1   
    61   28   73 1   
    62   29   30 1   
    63   29   74 1   
    64   31   32 1   
    65   31   41 1   
    66   31   42 1   
    67   31   87 1   
    68   32   33 1   
    69   32   90 1   
    70   33   34 1   
    71   34   35 1   
    72   34   78 1   
    73   34   79 1   
    74   35   36 1   
    75   35   40 1   
    76   36   37 1   
    77   36   80 1   
    78   36   81 1   
    79   37   38 1   
    80   37   82 1   
    81   38   39 1   
    82   38   83 1   
    83   39   40 1   
    84   39   84 1   
    85   40   77 1   
    86   43   76 1   
    87   43   86 1   
    88   43   87 1   
    89   75   87 1   
    90   85   87 1   
@<TRIPOS>SUBSTRUCTURE
     1 VS4         1 TEMP              0 ****  ****    0 ROOT
