@<TRIPOS>MOLECULE
VS4
   87    82     1     0     0
SMALL
bcc


@<TRIPOS>ATOM
      1 C8          2.9130   -2.0970    3.2160 c1        1 VS4      0.363000
      2 N3          4.0770   -2.9790    3.1840 n2        1 VS4     -0.275000
      3 C39         4.1290   -4.2120    3.8830 c3        1 VS4     -0.051000
      4 C40         4.5470   -5.3710    2.9780 c3        1 VS4     -0.100500
      5 N4          5.7510   -5.0820    2.2500 n3        1 VS4     -0.258000
      6 C33         6.0240   -6.1410    1.3190 c3        1 VS4     -0.125000
      7 C49         5.6800   -3.8300    1.5490 c3        1 VS4     -0.100500
      8 C48         5.2570   -2.6810    2.4600 c3        1 VS4     -0.051000
      9 O2          1.9380   -2.4090    3.8570 o         1 VS4     -0.419000
     10 N1          2.9310   -0.8280    2.4850 n3        1 VS4     -0.346000
     11 C9          1.9480    0.1760    2.7670 c3        1 VS4      0.008000
     12 C10         2.6050    1.3480    3.4540 c3        1 VS4     -0.134000
     13 C11         2.2250    1.3480    4.9740 c2        1 VS4     -0.087000
     14 C12         3.1130    1.8640    5.9140 c2        1 VS4     -0.135000
     15 C13         2.7490    1.9190    7.2670 c1        1 VS4     -0.127000
     16 C14         1.4990    1.4570    7.6710 c1        1 VS4     -0.127167
     17 C15         0.6090    0.9410    6.7300 c1        1 VS4     -0.127167
     18 C16         0.9720    0.8860    5.3790 c1        1 VS4     -0.120000
     19 C17         1.2990    0.6470    1.4490 c2        1 VS4      0.300000
     20 O3          1.9930    1.0870    0.5530 o         1 VS4     -0.383000
     21 N2         -0.1110    0.5490    1.2740 n         1 VS4     -0.372000
     22 C18        -0.7000    0.8580   -0.0010 c3        1 VS4      0.032000
     23 C19        -0.8600   -0.4290   -0.8170 c3        1 VS4     -0.167000
     24 C20        -0.0470   -0.3100   -2.1430 c3        1 VS4     -0.124000
     25 C21        -0.2090   -1.5930   -2.9600 c2        1 VS4     -0.071000
     26 C22         0.8110   -2.5560   -2.9610 c2        1 VS4     -0.133000
     27 C23         0.6800   -3.7040   -3.7270 c1        1 VS4     -0.130000
     28 C24        -0.4620   -3.8990   -4.4930 c1        1 VS4     -0.127167
     29 C25        -1.4760   -2.9400   -4.4910 c1        1 VS4     -0.127167
     30 C26        -1.3430   -1.7870   -3.7200 c1        1 VS4     -0.126000
     31 C28        -2.2650    2.6480   -0.8300 c3        1 VS4     -0.865000
     32 S1         -4.0140    2.9780   -0.9880 s4        1 VS4      2.028800
     33 N5         -4.2850    4.0900   -2.1710 n2        1 VS4     -0.775000
     34 O6         -4.8930    3.7060   -3.3560 os        1 VS4     -0.150000
     35 C34        -5.9520    4.6200   -3.6810 c3        1 VS4     -0.014000
     36 C41        -6.2510    4.5390   -5.1770 c2        1 VS4     -0.092000
     37 C42        -6.1980    3.3160   -5.8240 c2        1 VS4     -0.112000
     38 C43        -6.5440    3.2240   -7.1680 c1        1 VS4     -0.132000
     39 C44        -6.9450    4.3670   -7.8660 c1        1 VS4     -0.127167
     40 C45        -6.9980    5.5960   -7.2160 c1        1 VS4     -0.127167
     41 C46        -6.6530    5.6860   -5.8750 c1        1 VS4     -0.105000
     42 O4         -4.5780    3.4050    0.2700 o         1 VS4     -0.529900
     43 O5         -4.7480    1.7760   -1.2300 o         1 VS4     -0.529900
     44 C27        -2.0490    1.4820    0.2090 c3        1 VS4     -0.152000
     45 H391        3.2100   -4.4110    4.2710 h1        1 VS4      0.110250
     46 H392        4.7820   -4.1320    4.6260 h1        1 VS4      0.110250
     47 H401        4.6900   -6.1630    3.5250 h1        1 VS4      0.082000
     48 H402        3.8090   -5.5550    2.3260 h1        1 VS4      0.082000
     49 H331        5.3720   -6.1160    0.5950 h1        1 VS4      0.076000
     50 H332        5.9690   -7.0030    1.7780 h1        1 VS4      0.076000
     51 H333        6.9410   -6.0220    0.9430 h1        1 VS4      0.076000
     52 H491        6.5460   -3.6310    1.1780 h1        1 VS4      0.082000
     53 H492        5.0280   -3.9120    0.8130 h1        1 VS4      0.082000
     54 H481        5.9840   -2.4930    3.0970 h1        1 VS4      0.110250
     55 H482        5.1010   -1.8900    1.9160 h1        1 VS4      0.110250
     56 HN11        3.5970   -0.6620    1.8530 hn        1 VS4      0.227000
     57 H91         1.2280   -0.2160    3.3790 h1        1 VS4      0.127000
     58 H101        3.5890    1.2760    3.3600 hc        1 VS4      0.119000
     59 H102        2.2990    2.1800    3.0430 hc        1 VS4      0.119000
     60 H121        3.9710    2.1810    5.6370 ha        1 VS4      0.130000
     61 H131        3.3750    2.2830    7.9290 ha        1 VS4      0.132000
     62 H141        1.2430    1.4960    8.6240 ha        1 VS4      0.133000
     63 H151       -0.2750    0.6140    7.0150 ha        1 VS4      0.133000
     64 H161        0.3590    0.5300    4.7300 ha        1 VS4      0.136000
     65 HN21       -0.6300    0.2340    1.9460 hn        1 VS4      0.254000
     66 H181       -0.1060    1.4990   -0.4980 h1        1 VS4      0.125000
     67 H191       -1.8290   -0.5700   -1.0290 hc        1 VS4      0.093000
     68 H192       -0.5240   -1.1960   -0.2920 hc        1 VS4      0.093000
     69 H201        0.8970   -0.1760   -1.9340 hc        1 VS4      0.093500
     70 H202       -0.3850    0.4680   -2.6740 hc        1 VS4      0.093500
     71 H221        1.6220   -2.4160   -2.4180 ha        1 VS4      0.131000
     72 H231        1.4090   -4.3920   -3.7280 ha        1 VS4      0.130000
     73 H241       -0.5550   -4.7060   -5.0330 ha        1 VS4      0.133000
     74 H251       -2.2830   -3.0780   -5.0310 ha        1 VS4      0.133000
     75 H261       -2.0320   -1.1340   -3.7180 ha        1 VS4      0.132000
     76 H281       -1.8980    2.3820   -1.7080 h1        1 VS4      0.161500
     77 H282       -1.8100    3.4510   -0.5170 h1        1 VS4      0.161500
     78 HN51       -4.0230    4.9370   -2.0570 hn        1 VS4      0.250000
     79 H341       -5.6850    5.5130   -3.4580 h1        1 VS4      0.100000
     80 H342       -6.7310    4.3900   -3.1890 h1        1 VS4      0.100000
     81 H421       -5.9140    2.5070   -5.3300 ha        1 VS4      0.137000
     82 H431       -6.5050    2.3340   -7.6380 ha        1 VS4      0.134000
     83 H441       -7.1840    4.3030   -8.7990 ha        1 VS4      0.133000
     84 H451       -7.2890    6.4260   -7.7230 ha        1 VS4      0.133000
     85 H461       -6.6910    6.5570   -5.4120 ha        1 VS4      0.140000
     86 H271       -2.7410    0.8050    0.0840 hc        1 VS4      0.106000
     87 H272       -2.1050    1.8430    1.1240 hc        1 VS4      0.106000
@<TRIPOS>BOND
     1    1    9 1   
     2    1   10 1   
     3    2    3 1   
     4    2    8 1   
     5    3    4 1   
     6    3   45 1   
     7    3   46 1   
     8    4    5 1   
     9    4   47 1   
    10    4   48 1   
    11    5    6 1   
    12    5    7 1   
    13    6   49 1   
    14    6   50 1   
    15    6   51 1   
    16    7    8 1   
    17    7   52 1   
    18    7   53 1   
    19    8   54 1   
    20    8   55 1   
    21   10   11 1   
    22   10   56 1   
    23   11   12 1   
    24   11   19 1   
    25   11   57 1   
    26   12   13 1   
    27   12   58 1   
    28   12   59 1   
    29   13   14 1   
    30   13   18 1   
    31   14   15 1   
    32   14   60 1   
    33   15   61 1   
    34   16   17 1   
    35   16   62 1   
    36   17   63 1   
    37   18   64 1   
    38   19   20 1   
    39   19   21 1   
    40   21   22 1   
    41   21   65 1   
    42   22   23 1   
    43   22   44 1   
    44   22   66 1   
    45   23   24 1   
    46   23   67 1   
    47   23   68 1   
    48   24   25 1   
    49   24   69 1   
    50   24   70 1   
    51   25   26 1   
    52   25   30 1   
    53   26   27 1   
    54   26   71 1   
    55   27   72 1   
    56   28   29 1   
    57   28   73 1   
    58   29   74 1   
    59   30   75 1   
    60   31   32 1   
    61   31   44 1   
    62   31   76 1   
    63   31   77 1   
    64   32   42 1   
    65   32   43 1   
    66   33   34 1   
    67   33   78 1   
    68   34   35 1   
    69   35   36 1   
    70   35   79 1   
    71   35   80 1   
    72   36   37 1   
    73   36   41 1   
    74   37   38 1   
    75   37   81 1   
    76   38   82 1   
    77   39   40 1   
    78   39   83 1   
    79   40   84 1   
    80   41   85 1   
    81   44   86 1   
    82   44   87 1   
@<TRIPOS>SUBSTRUCTURE
     1 VS4         1 TEMP              0 ****  ****    0 ROOT
