@<TRIPOS>MOLECULE
VS4
   87    90     1     0     0
SMALL
bcc


@<TRIPOS>ATOM
      1 C8         -1.0090   -1.1520    3.6320 c         1 VS4      0.739100
      2 N3         -1.2210   -0.7880    4.9920 n         1 VS4     -0.416800
      3 C39        -0.0530   -0.8690    5.8580 c3        1 VS4      0.065500
      4 C40         0.7280    0.4540    5.9920 c3        1 VS4      0.135800
      5 N4         -0.1280    1.5860    6.3210 n3        1 VS4     -0.732600
      6 C33         0.6050    2.8290    6.4050 c3        1 VS4      0.155100
      7 C49        -1.2890    1.6840    5.4490 c3        1 VS4      0.135800
      8 C48        -2.0570    0.3490    5.3290 c3        1 VS4      0.065500
      9 O2          0.0790   -1.6790    3.2770 o         1 VS4     -0.663100
     10 N1         -2.0260   -0.9700    2.6820 n         1 VS4     -0.536900
     11 C9         -1.9430   -1.6830    1.4250 c3        1 VS4      0.037700
     12 C10        -3.3220   -2.0410    0.8440 c3        1 VS4     -0.048100
     13 C11        -4.1280   -2.8620    1.7860 ca        1 VS4     -0.095300
     14 C12        -5.1650   -2.2790    2.5230 ca        1 VS4     -0.128000
     15 C13        -5.9270   -3.0530    3.3980 ca        1 VS4     -0.125500
     16 C14        -5.6590   -4.4140    3.5430 ca        1 VS4     -0.126000
     17 C15        -4.6280   -5.0010    2.8090 ca        1 VS4     -0.125500
     18 C16        -3.8650   -4.2300    1.9330 ca        1 VS4     -0.128000
     19 C17        -1.1990   -0.8150    0.3720 c         1 VS4      0.656100
     20 O3         -1.8290   -0.1980   -0.5110 o         1 VS4     -0.631100
     21 N2          0.1680   -0.7960    0.4640 n         1 VS4     -0.557900
     22 C18         1.0080    0.0450   -0.3610 c3        1 VS4      0.110700
     23 C19         2.2450    0.5520    0.4020 c3        1 VS4     -0.088400
     24 C20         1.8820    1.3030    1.6680 c3        1 VS4     -0.042100
     25 C21         3.0700    1.9890    2.2480 ca        1 VS4     -0.080300
     26 C22         3.5420    3.1790    1.6830 ca        1 VS4     -0.129000
     27 C23         4.6500    3.8260    2.2280 ca        1 VS4     -0.128500
     28 C24         5.2960    3.2890    3.3420 ca        1 VS4     -0.132000
     29 C25         4.8290    2.1040    3.9100 ca        1 VS4     -0.128500
     30 C26         3.7200    1.4560    3.3670 ca        1 VS4     -0.129000
     31 S1          0.8280   -1.6890   -4.0070 s6        1 VS4      1.456900
     32 N5         -0.2560   -1.2870   -5.1780 n3        1 VS4     -0.692600
     33 O6         -0.2940   -0.0480   -5.6380 os        1 VS4     -0.168100
     34 C34         0.3050    0.1350   -6.9640 c3        1 VS4      0.144700
     35 C41         0.1420    1.5770   -7.2970 ca        1 VS4     -0.097300
     36 C42         1.2010    2.2700   -7.8950 ca        1 VS4     -0.110000
     37 C43         1.0460    3.6080   -8.2500 ca        1 VS4     -0.132500
     38 C44        -0.1590    4.2650   -8.0010 ca        1 VS4     -0.123000
     39 C45        -1.2130    3.5800   -7.3960 ca        1 VS4     -0.132500
     40 C46        -1.0650    2.2380   -7.0460 ca        1 VS4     -0.110000
     41 O4          2.1380   -1.4490   -4.4540 o         1 VS4     -0.646800
     42 O5          0.5250   -3.0070   -3.6090 o         1 VS4     -0.646800
     43 C27         1.4950   -0.6660   -1.6400 c3        1 VS4     -0.062400
     44 H391        0.6530   -1.6590    5.4790 h1        1 VS4      0.070450
     45 H392       -0.4360   -1.1810    6.8710 h1        1 VS4      0.070450
     46 H401        1.3100    0.6290    5.0390 h1        1 VS4      0.042950
     47 H402        1.4690    0.3340    6.8310 h1        1 VS4      0.042950
     48 H331       -0.0910    3.6340    6.7580 h1        1 VS4      0.036033
     49 H332        1.4300    2.7090    7.1560 h1        1 VS4      0.036033
     50 H333        1.0560    3.1490    5.4260 h1        1 VS4      0.036033
     51 H491       -1.9890    2.4440    5.8970 h1        1 VS4      0.042950
     52 H492       -1.0110    2.0390    4.4140 h1        1 VS4      0.042950
     53 H481       -2.8880    0.4990    4.5900 h1        1 VS4      0.070450
     54 H482       -2.5260    0.1080    6.3270 h1        1 VS4      0.070450
     55 HN11       -2.9550   -0.8100    3.0060 hn        1 VS4      0.313500
     56 H91        -1.3610   -2.6460    1.5710 h1        1 VS4      0.083700
     57 H101       -3.8690   -1.0990    0.5680 hc        1 VS4      0.079200
     58 H102       -3.1440   -2.6070   -0.1090 hc        1 VS4      0.079200
     59 H121       -5.3870   -1.2080    2.4030 ha        1 VS4      0.133500
     60 H131       -6.7420   -2.5880    3.9710 ha        1 VS4      0.134000
     61 H141       -6.2610   -5.0230    4.2320 ha        1 VS4      0.134000
     62 H151       -4.4160   -6.0750    2.9200 ha        1 VS4      0.134000
     63 H161       -3.0540   -4.6950    1.3530 ha        1 VS4      0.133500
     64 HN21        0.6070   -1.2800    1.2190 hn        1 VS4      0.342500
     65 H181        0.3890    0.9410   -0.6770 h1        1 VS4      0.074700
     66 H191        2.9180   -0.3090    0.6510 hc        1 VS4      0.055700
     67 H192        2.8100    1.2370   -0.2840 hc        1 VS4      0.055700
     68 H201        1.0890    2.0640    1.4340 hc        1 VS4      0.055700
     69 H202        1.4500    0.5920    2.4250 hc        1 VS4      0.055700
     70 H221        3.0350    3.6030    0.8030 ha        1 VS4      0.133000
     71 H231        5.0160    4.7600    1.7770 ha        1 VS4      0.130500
     72 H241        6.1710    3.7990    3.7700 ha        1 VS4      0.131000
     73 H251        5.3370    1.6770    4.7870 ha        1 VS4      0.130500
     74 H261        3.3550    0.5210    3.8170 ha        1 VS4      0.133000
     75 H281       -0.5520   -0.8380   -2.2850 h1        1 VS4      0.135700
     76 H282        0.3690    0.4490   -3.0940 h1        1 VS4      0.135700
     77 HN51       -1.0640   -1.8240   -5.4150 hn        1 VS4      0.453800
     78 H341        1.3850   -0.1650   -6.9220 h1        1 VS4      0.060200
     79 H342       -0.2420   -0.5060   -7.7040 h1        1 VS4      0.060200
     80 H421        2.1570    1.7570   -8.0840 ha        1 VS4      0.139500
     81 H431        1.8790    4.1480   -8.7240 ha        1 VS4      0.133500
     82 H441       -0.2770    5.3220   -8.2790 ha        1 VS4      0.132000
     83 H451       -2.1620    4.0970   -7.1940 ha        1 VS4      0.133500
     84 H461       -1.8910    1.6950   -6.5620 ha        1 VS4      0.139500
     85 H271        2.4320   -0.1600   -1.9990 hc        1 VS4      0.062700
     86 H272        1.7570   -1.7340   -1.4110 hc        1 VS4      0.062700
     87 C28         0.4570   -0.6140   -2.7370 c3        1 VS4     -0.342600
@<TRIPOS>BOND
     1    1    2 1   
     2    1    9 2   
     3    1   10 1   
     4    2    3 1   
     5    2    8 1   
     6    3    4 1   
     7    3   44 1   
     8    3   45 1   
     9    4    5 1   
    10    4   46 1   
    11    4   47 1   
    12    5    6 1   
    13    5    7 1   
    14    6   48 1   
    15    6   49 1   
    16    6   50 1   
    17    7    8 1   
    18    7   51 1   
    19    7   52 1   
    20    8   53 1   
    21    8   54 1   
    22   10   11 1   
    23   10   55 1   
    24   11   12 1   
    25   11   19 1   
    26   11   56 1   
    27   12   13 1   
    28   12   57 1   
    29   12   58 1   
    30   13   14 ar  
    31   13   18 ar  
    32   14   15 ar  
    33   14   59 1   
    34   15   16 ar  
    35   15   60 1   
    36   16   17 ar  
    37   16   61 1   
    38   17   18 ar  
    39   17   62 1   
    40   18   63 1   
    41   19   20 2   
    42   19   21 1   
    43   21   22 1   
    44   21   64 1   
    45   22   23 1   
    46   22   43 1   
    47   22   65 1   
    48   23   24 1   
    49   23   66 1   
    50   23   67 1   
    51   24   25 1   
    52   24   68 1   
    53   24   69 1   
    54   25   26 ar  
    55   25   30 ar  
    56   26   27 ar  
    57   26   70 1   
    58   27   28 ar  
    59   27   71 1   
    60   28   29 ar  
    61   28   72 1   
    62   29   30 ar  
    63   29   73 1   
    64   30   74 1   
    65   31   32 1   
    66   31   41 2   
    67   31   42 2   
    68   31   87 1   
    69   32   33 1   
    70   32   77 1   
    71   33   34 1   
    72   34   35 1   
    73   34   78 1   
    74   34   79 1   
    75   35   36 ar  
    76   35   40 ar  
    77   36   37 ar  
    78   36   80 1   
    79   37   38 ar  
    80   37   81 1   
    81   38   39 ar  
    82   38   82 1   
    83   39   40 ar  
    84   39   83 1   
    85   40   84 1   
    86   43   85 1   
    87   43   86 1   
    88   43   87 1   
    89   75   87 1   
    90   76   87 1   
@<TRIPOS>SUBSTRUCTURE
     1 VS4         1 TEMP              0 ****  ****    0 ROOT
