@<TRIPOS>MOLECULE
VS8
   54    55     1     0     0
SMALL
bcc


@<TRIPOS>ATOM
      1 CAK         2.5050   -2.8130    1.6090 c1        1 VS8      0.175000
      2 CAJ         0.1200    0.7820    1.9540 c2        1 VS8     -0.133000
      3 CAF         1.5670    0.7600    1.8970 c2        1 VS8     -0.155000
      4 CAC         2.3450   -0.3350    1.8600 c2        1 VS8     -0.052000
      5 CAG         1.8760   -1.6960    1.8830 c2        1 VS8     -0.478000
      6 CAN        -0.3020    6.3510   -0.2640 c3        1 VS8     -0.109000
      7 CAO        -0.1510    5.0410   -3.2500 c3        1 VS8     -0.212000
      8 CBC        -1.6380    4.3780    0.4050 c2        1 VS8     -0.020000
      9 CAM        -0.1200    6.4770   -2.7940 c3        1 VS8     -0.155000
     10 CAL         0.5790    6.6540   -1.4610 c3        1 VS8     -0.152000
     11 CAP        -0.4640    4.9000   -0.0110 c2        1 VS8     -0.250000
     12 C5         -3.0630    1.0240    1.2520 c2        1 VS8     -0.261000
     13 C4         -4.3760    0.4420    1.4640 c2        1 VS8      0.124000
     14 C6         -3.0330    2.4310    0.9890 c2        1 VS8      0.256000
     15 N1         -4.1820    3.1610    1.0010 n2        1 VS8     -0.306000
     16 CAZ        -2.1100   -0.0550    1.3210 c2        1 VS8     -0.043000
     17 C2         -5.3770    2.4980    1.2800 c2        1 VS8      0.196000
     18 NAA        -6.5140    3.3080    1.4150 nv        1 VS8     -0.321000
     19 N3         -5.5480    1.1420    1.4770 n2        1 VS8     -0.273000
     20 CAY        -2.8440   -1.2330    1.5350 c2        1 VS8     -0.047000
     21 CAW        -0.6740   -0.0150    1.2200 c2        1 VS8     -0.097000
     22 CAE        -1.3020   -3.1960    3.8680 c1        1 VS8     -0.192000
     23 CAB        -1.1770   -3.6160    5.0010 c1        1 VS8     -0.111000
     24 CAI        -1.2470   -2.6590    2.6270 c1        1 VS8      0.034000
     25 CAD        -3.7760   -4.5300    0.9350 c2        1 VS8     -0.191000
     26 CAH        -3.3970   -3.6410    1.8490 c2        1 VS8     -0.208000
     27 CAV        -2.3180   -2.6310    1.6200 c3        1 VS8     -0.024000
     28 NAT        -4.2130   -0.9330    1.6400 na        1 VS8     -0.187000
     29 HAO2       -0.6480    4.3980   -2.4820 hc        1 VS8      0.073000
     30 HAM1        0.8850    4.6560   -3.4120 hc        1 VS8      0.073000
     31 HAM2        0.4140    7.0940   -3.5660 hc        1 VS8      0.076000
     32 HBC        -2.5330    5.0170    0.5410 h4        1 VS8      0.167000
     33 HAL1       -1.1680    6.8730   -2.7260 hc        1 VS8      0.076000
     34 HAL2        0.9190    7.7220   -1.3780 hc        1 VS8      0.078000
     35 HAN1        1.4960    6.0100   -1.4290 hc        1 VS8      0.078000
     36 HAN2        0.1700    6.8120    0.6490 hc        1 VS8      0.082000
     37 HAP1       -1.3020    6.8450   -0.3990 hc        1 VS8      0.082000
     38 HAP2        0.4360    4.2850   -0.1630 ha        1 VS8      0.125000
     39 HAA1       -6.4590    4.2140    1.0100 hn        1 VS8      0.218000
     40 HAA2       -7.3920    2.8490    1.3310 hn        1 VS8      0.218000
     41 HAH        -3.8460   -3.6200    2.8560 ha        1 VS8      0.131000
     42 HAI        -1.8070   -2.8470    0.6250 hc        1 VS8      0.145000
     43 HAD        -3.3380   -4.5780   -0.0710 ha        1 VS8      0.119500
     44 HAB        -4.5560   -5.2780    1.1370 ha        1 VS8      0.119500
     45 HAE        -1.0510   -3.9770    5.9910 ha        1 VS8      0.232000
     46 HAJ        -0.3060    1.5120    2.6660 ha        1 VS8      0.136000
     47 HAK        -0.2390   -0.7500    0.5170 ha        1 VS8      0.140000
     48 HAF         0.7950   -1.8450    2.1950 ha        1 VS8      0.252000
     49 HAC         2.0430    1.7570    1.9200 ha        1 VS8      0.128000
     50 HAG         3.4430   -0.2140    1.8310 ha        1 VS8      0.123000
     51 HAT        -4.9370   -1.5930    1.7660 hn        1 VS8      0.265000
     52 NAS        -1.8120    3.0310    0.7130 nu        1 VS8     -0.265000
     53 HAO1       -0.7150    4.9510   -4.2100 hc        1 VS8      0.073000
     54 HAS        -1.0320    2.4140    0.6170 hn        1 VS8      0.249000
@<TRIPOS>BOND
     1    1    5 1   
     2    2    3 1   
     3    2   21 1   
     4    2   46 1   
     5    3    4 1   
     6    3   49 1   
     7    4    5 1   
     8    4   50 1   
     9    5   48 1   
    10    6   10 1   
    11    6   11 1   
    12    6   36 1   
    13    6   37 1   
    14    7    9 1   
    15    7   29 1   
    16    7   30 1   
    17    7   53 1   
    18    8   11 1   
    19    8   32 1   
    20    8   52 1   
    21    9   10 1   
    22    9   31 1   
    23    9   33 1   
    24   10   34 1   
    25   10   35 1   
    26   11   38 1   
    27   12   13 1   
    28   12   14 1   
    29   12   16 1   
    30   13   19 1   
    31   13   28 1   
    32   14   15 1   
    33   14   52 1   
    34   15   17 1   
    35   16   20 1   
    36   16   21 1   
    37   17   18 1   
    38   17   19 1   
    39   18   39 1   
    40   18   40 1   
    41   20   27 1   
    42   20   28 1   
    43   21   47 1   
    44   22   23 1   
    45   22   24 1   
    46   23   45 1   
    47   24   27 1   
    48   25   26 1   
    49   25   43 1   
    50   25   44 1   
    51   26   27 1   
    52   26   41 1   
    53   27   42 1   
    54   28   51 1   
    55   52   54 1   
@<TRIPOS>SUBSTRUCTURE
     1 VS8         1 TEMP              0 ****  ****    0 ROOT
