@<TRIPOS>MOLECULE
VS8
   54    54     1     0     0
SMALL
bcc


@<TRIPOS>ATOM
      1 CAK         3.5900    1.2110    0.6510 c1        1 VS8      0.179000
      2 CAJ        -0.4910    0.3370    3.0430 c2        1 VS8     -0.140000
      3 CAF         0.9860    0.4680    3.0740 c3        1 VS8     -0.163000
      4 CAC         1.6560   -0.0400    1.8490 c2        1 VS8      0.170000
      5 CAG         2.6400    0.6080    1.2480 c1        1 VS8     -0.584000
      6 CAN        -0.6690    6.3060   -0.6800 c3        1 VS8     -0.112000
      7 CAO         0.7990    4.3310   -2.8230 c3        1 VS8     -0.213000
      8 CBC        -2.0690    4.3730   -0.0320 c2        1 VS8     -0.031000
      9 CAM         0.5690    5.8210   -2.8430 c3        1 VS8     -0.155000
     10 CAL         0.6240    6.4420   -1.4630 c3        1 VS8     -0.153000
     11 CAP        -0.8550    4.9610   -0.0900 c2        1 VS8     -0.235000
     12 C5         -3.5850    1.2140    1.2920 c2        1 VS8     -0.278000
     13 C4         -4.9090    0.6210    1.4080 c2        1 VS8      0.144000
     14 C6         -3.5210    2.5050    0.6690 c2        1 VS8      0.266000
     15 N1         -4.6510    3.1070    0.2120 n2        1 VS8     -0.310000
     16 CAZ        -2.6580    0.2900    1.8770 c2        1 VS8     -0.004000
     17 C2         -5.8670    2.4430    0.3920 c2        1 VS8      0.217000
     18 NAA        -7.0090    3.1420   -0.0020 nh        1 VS8     -0.331000
     19 N3         -6.0610    1.1980    0.9620 n2        1 VS8     -0.282000
     20 CAY        -3.4080   -0.8180    2.3340 c2        1 VS8     -0.061000
     21 CAW        -1.2240    0.4250    1.9250 c2        1 VS8     -0.128000
     22 CAE        -0.2090   -4.2380    1.2400 c1        1 VS8     -0.559000
     23 CAB        -0.9440   -5.3300    1.1890 c2        1 VS8      0.132000
     24 CAI         0.4890   -3.1740    1.2880 c1        1 VS8      0.143000
     25 CAD        -2.8850   -4.3680    3.4590 c1        1 VS8     -0.099000
     26 CAH        -3.5350   -3.1870    3.0900 c2        1 VS8     -0.253000
     27 CAV        -2.8940   -1.9920    2.9730 c2        1 VS8     -0.029000
     28 NAT        -4.7730   -0.6130    2.0360 na        1 VS8     -0.187000
     29 HAO2        0.0480    3.8280   -2.1670 hc        1 VS8      0.074000
     30 HAM1        1.8190    4.0950   -2.4330 hc        1 VS8      0.074000
     31 HAM2        1.3540    6.3020   -3.4860 hc        1 VS8      0.076000
     32 HBC        -2.9690    4.8680   -0.4460 h4        1 VS8      0.169000
     33 HAL1       -0.4240    6.0420   -3.3180 hc        1 VS8      0.076000
     34 HAL2        0.8460    7.5370   -1.5740 hc        1 VS8      0.080000
     35 HAN1        1.4690    5.9890   -0.8800 hc        1 VS8      0.080000
     36 HAN2       -0.6530    7.0540    0.1630 hc        1 VS8      0.083500
     37 HAP1       -1.5370    6.5760   -1.3390 hc        1 VS8      0.083500
     38 HAP2        0.0540    4.4840    0.3090 ha        1 VS8      0.128000
     39 HAA1       -6.8840    3.9190   -0.6060 hn        1 VS8      0.229000
     40 HAA2       -7.8500    2.6230   -0.0980 hn        1 VS8      0.229000
     41 HAH        -4.5810   -3.3060    2.7500 ha        1 VS8      0.149000
     42 HAI        -1.8350   -1.8990    3.2870 ha        1 VS8      0.144000
     43 HAD        -1.8280   -5.4800    1.8470 ha        1 VS8      0.143000
     44 HAB        -2.1610   -4.3710    4.2840 ha        1 VS8      0.068000
     45 HAE        -0.7210   -6.1530    0.4870 ha        1 VS8      0.143000
     46 HAJ        -0.9660    0.1920    4.0280 ha        1 VS8      0.134000
     47 HAK        -0.7400    0.5850    0.9420 ha        1 VS8      0.141000
     48 HAF         1.3980   -0.1240    3.9420 hc        1 VS8      0.125000
     49 HAC         1.2520    1.5460    3.2620 hc        1 VS8      0.125000
     50 HAG         1.2940   -1.0260    1.4730 ha        1 VS8      0.176000
     51 HAT        -5.5070   -1.2320    2.2630 hn        1 VS8      0.266000
     52 NAS        -2.2840    3.1160    0.5350 nh        1 VS8     -0.259000
     53 HAO1        0.7100    3.9110   -3.8530 hc        1 VS8      0.074000
     54 HAS        -1.5080    2.6410    0.9420 hn        1 VS8      0.243000
@<TRIPOS>BOND
     1    1    5 1   
     2    2    3 1   
     3    2   21 1   
     4    2   46 1   
     5    3    4 1   
     6    3   48 1   
     7    3   49 1   
     8    4    5 1   
     9    4   50 1   
    10    6   10 1   
    11    6   11 1   
    12    6   36 1   
    13    6   37 1   
    14    7    9 1   
    15    7   29 1   
    16    7   30 1   
    17    7   53 1   
    18    8   11 1   
    19    8   32 1   
    20    8   52 1   
    21    9   10 1   
    22    9   31 1   
    23    9   33 1   
    24   10   34 1   
    25   10   35 1   
    26   11   38 1   
    27   12   13 1   
    28   12   14 1   
    29   12   16 1   
    30   13   19 1   
    31   13   28 1   
    32   14   15 1   
    33   14   52 1   
    34   15   17 1   
    35   16   20 1   
    36   16   21 1   
    37   17   18 1   
    38   17   19 1   
    39   18   39 1   
    40   18   40 1   
    41   20   27 1   
    42   20   28 1   
    43   21   47 1   
    44   22   23 1   
    45   22   24 1   
    46   23   43 1   
    47   23   45 1   
    48   25   26 1   
    49   25   44 1   
    50   26   27 1   
    51   26   41 1   
    52   27   42 1   
    53   28   51 1   
    54   52   54 1   
@<TRIPOS>SUBSTRUCTURE
     1 VS8         1 TEMP              0 ****  ****    0 ROOT
