@<TRIPOS>MOLECULE
VSA
   55    49     1     0     0
SMALL
bcc


@<TRIPOS>ATOM
      1 CAP         2.5150    4.4800   -1.4870 c3        1 VSA     -0.172500
      2 CAN         3.7060    5.0520   -1.2520 c3        1 VSA     -0.159000
      3 CAO         3.8030    5.1750    0.3340 c3        1 VSA     -0.159000
      4 CAQ         2.3180    4.8630    0.8870 c3        1 VSA     -0.172500
      5 CBD         1.5340    4.8850   -0.1910 c3        1 VSA      0.028000
      6 NBE         0.4820    3.9190   -0.0550 n3        1 VSA     -0.137000
      7 CAM         0.4610    2.5870   -0.1340 c1        1 VSA      0.001500
      8 C4         -0.7840    4.3450    0.3350 c1        1 VSA      0.001500
      9 N3         -1.3010    5.5860    0.5620 n1        1 VSA     -0.214000
     10 C2         -2.5920    5.7240    0.9400 c1        1 VSA      0.015000
     11 N1         -3.3880    4.6080    1.0980 n1        1 VSA     -0.266000
     12 C6         -2.8840    3.3970    0.8760 c1        1 VSA      0.202000
     13 NAA        -4.1460    2.8640    1.2180 n3        1 VSA     -0.344000
     14 C5         -1.5580    3.2580    0.4880 c1        1 VSA     -0.150000
     15 CBA        -0.8040    2.1610    0.2020 c1        1 VSA     -0.150000
     16 CAY        -1.1130    0.6520    0.0730 c1        1 VSA     -0.043000
     17 CAK        -1.8950    0.1790   -1.0040 c2        1 VSA     -0.099000
     18 CAI        -2.2490   -1.1830   -1.0710 c1        1 VSA     -0.189000
     19 CAJ        -0.6920   -0.2290    1.0690 c1        1 VSA     -0.098000
     20 CAH        -1.0510   -1.6050    1.0000 c1        1 VSA     -0.150000
     21 CAX        -1.8230   -2.0730   -0.0640 c1        1 VSA      0.086000
     22 NAU        -2.1200   -3.5030   -0.1790 n         1 VSA     -0.333000
     23 CAV        -1.0520   -4.4980    0.0260 c2        1 VSA      0.414000
     24 OAB         0.0590   -4.1390    0.2870 o         1 VSA     -0.373000
     25 NAT        -1.2890   -5.7760   -0.2570 n         1 VSA     -0.331000
     26 CAW        -0.1640   -6.7760   -0.2550 c2        1 VSA      0.080000
     27 CAF         0.4780   -7.1050    0.9320 c2        1 VSA     -0.142000
     28 CAD         1.4530   -8.0550    0.9400 c1        1 VSA     -0.107000
     29 CAC         1.8090   -8.7030   -0.2570 c1        1 VSA     -0.128500
     30 CAE         1.1730   -8.3780   -1.4340 c1        1 VSA     -0.128500
     31 CAG         0.1930   -7.4220   -1.4400 c1        1 VSA     -0.183000
     32 H1          2.1290    4.8340   -2.3370 hc        1 VSA      0.093750
     33 H2          2.6080    3.5610   -1.5400 hc        1 VSA      0.093750
     34 H3          4.4530    4.4650   -1.6080 hc        1 VSA      0.085500
     35 H4          3.7430    5.9150   -1.6510 hc        1 VSA      0.085500
     36 H5          4.4440    4.5220    0.6910 hc        1 VSA      0.085500
     37 H6          4.0940    6.1520    0.5990 hc        1 VSA      0.085500
     38 H7          2.2880    3.9650    1.3160 hc        1 VSA      0.093750
     39 H8          2.0540    5.5230    1.4980 hc        1 VSA      0.093750
     40 H9          1.1470    5.8010   -0.3170 h1        1 VSA      0.135000
     41 H10         1.1740    2.0390   -0.3970 DU        1 VSA      0.175000
     42 H11        -2.9470    6.5800    1.0960 ha        1 VSA      0.185000
     43 H12        -4.2140    1.9940    1.5250 hn        1 VSA      0.223000
     44 H13        -4.8720    3.3450    1.0990 hn        1 VSA      0.223000
     45 H14        -2.1960    0.8030   -1.7120 ha        1 VSA      0.149000
     46 H15        -2.7930   -1.5140   -1.8220 ha        1 VSA      0.130000
     47 H16        -0.1170    0.1180    1.8610 ha        1 VSA      0.140000
     48 H17        -0.7470   -2.2420    1.7200 ha        1 VSA      0.175000
     49 H18        -2.9640   -3.7830   -0.5070 hn        1 VSA      0.227000
     50 H19        -2.1550   -6.0500   -0.4700 hn        1 VSA      0.225000
     51 H20         0.2400   -6.6700    1.7330 ha        1 VSA      0.171000
     52 H21         1.9020   -8.2840    1.7700 ha        1 VSA      0.136000
     53 H22         2.4950   -9.3720   -0.2540 ha        1 VSA      0.133000
     54 H23         1.4060   -8.8020   -2.2130 ha        1 VSA      0.133000
     55 H24        -0.2530   -7.1910   -2.2680 ha        1 VSA      0.127000
@<TRIPOS>BOND
     1    1    2 1   
     2    1    5 1   
     3    1   32 1   
     4    1   33 1   
     5    2    3 1   
     6    2   34 1   
     7    2   35 1   
     8    3    4 1   
     9    3   36 1   
    10    3   37 1   
    11    4    5 1   
    12    4   38 1   
    13    4   39 1   
    14    5    6 1   
    15    5   40 1   
    16    6    7 1   
    17    6    8 1   
    18    7   15 1   
    19    8   14 1   
    20    9   10 1   
    21   10   42 1   
    22   11   12 1   
    23   12   13 1   
    24   13   43 1   
    25   13   44 1   
    26   16   17 1   
    27   16   19 1   
    28   17   18 1   
    29   17   45 1   
    30   18   46 1   
    31   19   47 1   
    32   20   21 1   
    33   20   48 1   
    34   21   22 1   
    35   22   23 1   
    36   22   49 1   
    37   23   24 1   
    38   23   25 1   
    39   25   26 1   
    40   25   50 1   
    41   26   27 1   
    42   26   31 1   
    43   27   28 1   
    44   27   51 1   
    45   28   52 1   
    46   29   30 1   
    47   29   53 1   
    48   30   54 1   
    49   31   55 1   
@<TRIPOS>SUBSTRUCTURE
     1 VSA         1 TEMP              0 ****  ****    0 ROOT
