@<TRIPOS>MOLECULE
VSA
   55    59     1     0     0
SMALL
bcc


@<TRIPOS>ATOM
      1 CAP         0.1180    0.1740    0.2430 c3        1 VSA     -0.093900
      2 CAN         1.3780    0.8760    0.7230 c3        1 VSA     -0.080400
      3 CAO         1.7530    0.2880    2.0770 c3        1 VSA     -0.080400
      4 CAQ         0.7210   -0.7720    2.4260 c3        1 VSA     -0.093900
      5 CBD        -0.4810   -0.5260    1.4850 c3        1 VSA      0.048000
      6 NBE        -1.2460   -1.7090    1.1820 na        1 VSA     -0.154100
      7 CAM        -0.7580   -2.8610    0.5510 cc        1 VSA     -0.105100
      8 C4         -2.5990   -1.9210    1.4840 ca        1 VSA      0.473800
      9 N3         -3.4890   -1.0720    2.0920 nb        1 VSA     -0.740000
     10 C2         -4.7290   -1.5910    2.2000 ca        1 VSA      0.677900
     11 N1         -5.2070   -2.8000    1.7940 nb        1 VSA     -0.792000
     12 C6         -4.3150   -3.6580    1.2000 ca        1 VSA      0.724200
     13 NAA        -4.7170   -4.9290    0.8280 nv        1 VSA     -0.946500
     14 C5         -2.9550   -3.2530    1.0180 ca        1 VSA     -0.360400
     15 CBA        -1.7650   -3.8240    0.4370 cd        1 VSA     -0.059400
     16 CAY        -1.5980   -5.1340   -0.1510 ca        1 VSA     -0.048800
     17 CAK        -1.8800   -6.2940    0.5830 ca        1 VSA     -0.102500
     18 CAI        -1.6910   -7.5520    0.0260 ca        1 VSA     -0.160500
     19 CAJ        -1.1160   -5.2670   -1.4600 ca        1 VSA     -0.102500
     20 CAH        -0.9290   -6.5180   -2.0360 ca        1 VSA     -0.160500
     21 CAX        -1.2140   -7.6870   -1.3000 ca        1 VSA      0.060600
     22 NAU        -1.1090   -8.9790   -1.8540 ns        1 VSA     -0.462100
     23 CAV        -0.1260   -9.3290   -2.8100 c         1 VSA      0.767100
     24 OAB         0.5660   -8.4650   -3.3900 o         1 VSA     -0.606100
     25 NAT         0.0330  -10.7090   -3.0720 ns        1 VSA     -0.462100
     26 CAW         0.7750  -11.2000   -4.1660 ca        1 VSA      0.057600
     27 CAF         1.9490  -10.5690   -4.6280 ca        1 VSA     -0.155500
     28 CAD         2.6810  -11.1380   -5.6670 ca        1 VSA     -0.109000
     29 CAC         2.2750  -12.3320   -6.2600 ca        1 VSA     -0.149000
     30 CAE         1.1170  -12.9630   -5.8080 ca        1 VSA     -0.109000
     31 CAG         0.3660  -12.4100   -4.7770 ca        1 VSA     -0.155500
     32 H1          0.3680   -0.5690   -0.5570 hc        1 VSA      0.054450
     33 H2         -0.6180    0.8970   -0.1850 hc        1 VSA      0.054450
     34 H3          2.2080    0.7370   -0.0140 hc        1 VSA      0.046200
     35 H4          1.1980    1.9770    0.8150 hc        1 VSA      0.046200
     36 H5          1.7660    1.0900    2.8580 hc        1 VSA      0.046200
     37 H6          2.7780   -0.1600    2.0460 hc        1 VSA      0.046200
     38 H7          1.1480   -1.7960    2.2740 hc        1 VSA      0.054450
     39 H8          0.3970   -0.6950    3.4920 hc        1 VSA      0.054450
     40 H9         -1.1800    0.2030    1.9940 h1        1 VSA      0.095700
     41 H10         0.2850   -2.9150    0.2310 h4        1 VSA      0.176000
     42 H11        -5.4820   -0.9350    2.6870 h5        1 VSA      0.048100
     43 H12        -5.6910   -5.1200    0.7840 hn        1 VSA      0.427800
     44 H13        -4.1360   -5.3960    0.1710 hn        1 VSA      0.427800
     45 H14        -2.2440   -6.2080    1.6190 ha        1 VSA      0.144500
     46 H15        -1.9160   -8.4420    0.6330 ha        1 VSA      0.151500
     47 H16        -0.8840   -4.3640   -2.0470 ha        1 VSA      0.144500
     48 H17        -0.5440   -6.5870   -3.0680 ha        1 VSA      0.151500
     49 H18        -1.4510   -9.7040   -1.2620 hn        1 VSA      0.306500
     50 H19        -0.6900  -11.3230   -2.7610 hn        1 VSA      0.306500
     51 H20         2.2860   -9.6200   -4.1800 ha        1 VSA      0.148000
     52 H21         3.5930  -10.6320   -6.0200 ha        1 VSA      0.134000
     53 H22         2.8610  -12.7720   -7.0780 ha        1 VSA      0.134000
     54 H23         0.7880  -13.9050   -6.2710 ha        1 VSA      0.134000
     55 H24        -0.5460  -12.9270   -4.4410 ha        1 VSA      0.148000
@<TRIPOS>BOND
     1    1    2 1   
     2    1    5 1   
     3    1   32 1   
     4    1   33 1   
     5    2    3 1   
     6    2   34 1   
     7    2   35 1   
     8    3    4 1   
     9    3   36 1   
    10    3   37 1   
    11    4    5 1   
    12    4   38 1   
    13    4   39 1   
    14    5    6 1   
    15    5   40 1   
    16    6    7 1   
    17    6    8 1   
    18    7   15 2   
    19    7   41 1   
    20    8    9 ar  
    21    8   14 ar  
    22    9   10 ar  
    23   10   11 ar  
    24   10   42 1   
    25   11   12 ar  
    26   12   13 1   
    27   12   14 ar  
    28   13   43 1   
    29   13   44 1   
    30   14   15 1   
    31   15   16 1   
    32   16   17 ar  
    33   16   19 ar  
    34   17   18 ar  
    35   17   45 1   
    36   18   21 ar  
    37   18   46 1   
    38   19   20 ar  
    39   19   47 1   
    40   20   21 ar  
    41   20   48 1   
    42   21   22 1   
    43   22   23 1   
    44   22   49 1   
    45   23   24 2   
    46   23   25 1   
    47   25   26 1   
    48   25   50 1   
    49   26   27 ar  
    50   26   31 ar  
    51   27   28 ar  
    52   27   51 1   
    53   28   29 ar  
    54   28   52 1   
    55   29   30 ar  
    56   29   53 1   
    57   30   31 ar  
    58   30   54 1   
    59   31   55 1   
@<TRIPOS>SUBSTRUCTURE
     1 VSA         1 TEMP              0 ****  ****    0 ROOT
