@<TRIPOS>MOLECULE
VSA
   58    62     1     0     0
SMALL
bcc


@<TRIPOS>ATOM
      1 CAP         0.3570   -0.1460    0.1670 c3        1 VSA     -0.088900
      2 CAN         1.7140    0.3760    0.6170 c3        1 VSA     -0.086400
      3 CAO         2.1100   -0.3730    1.8820 c3        1 VSA     -0.086400
      4 CAQ         0.9970   -1.3550    2.2150 c3        1 VSA     -0.088900
      5 CBD        -0.2230   -0.8960    1.3870 c3        1 VSA      0.012000
      6 NBE        -1.1330   -1.9810    1.0290 na        1 VSA     -0.095100
      7 CAM        -0.8250   -3.0890    0.2810 cc        1 VSA      0.036900
      8 C4         -2.4890   -2.0740    1.4090 ca        1 VSA      0.474800
      9 N3         -3.2150   -1.1980    2.1460 nb        1 VSA     -0.599000
     10 C2         -4.5160   -1.5380    2.3140 ca        1 VSA      0.695900
     11 N1         -5.1550   -2.6260    1.8010 nb        1 VSA     -0.665000
     12 C6         -4.4150   -3.4890    1.0600 ca        1 VSA      0.502200
     13 NAA        -5.1640   -4.6130    0.4560 n4        1 VSA     -0.825300
     14 C5         -3.0340   -3.3300    0.8390 ca        1 VSA     -0.252400
     15 CBA        -1.9390   -3.9680    0.1530 cd        1 VSA     -0.214400
     16 CAY        -1.8110   -5.2420   -0.4900 ca        1 VSA      0.108200
     17 CAK        -2.3730   -6.4210    0.0400 ca        1 VSA     -0.146500
     18 CAI        -2.1390   -7.6610   -0.5420 ca        1 VSA     -0.058500
     19 CAJ        -1.0130   -5.3540   -1.6550 ca        1 VSA     -0.146500
     20 CAH        -0.7700   -6.5780   -2.2550 ca        1 VSA     -0.058500
     21 CAX        -1.3350   -7.7450   -1.6970 ca        1 VSA     -0.140400
     22 NAU        -1.1220   -9.0430   -2.3520 n4        1 VSA     -0.483200
     23 CAV        -0.2550   -9.9500   -1.5280 c         1 VSA      0.479100
     24 OAB        -0.6360  -10.3720   -0.4490 o         1 VSA     -0.302100
     25 NAT         1.0820  -10.3520   -2.0740 n4        1 VSA     -0.488200
     26 CAW         1.0390  -10.7020   -3.4970 ca        1 VSA     -0.153400
     27 CAF         1.3840   -9.7280   -4.4600 ca        1 VSA     -0.107000
     28 CAD         1.4480  -10.1000   -5.7980 ca        1 VSA     -0.085000
     29 CAC         1.1790  -11.4210   -6.1840 ca        1 VSA     -0.020000
     30 CAE         0.8380  -12.3760   -5.2240 ca        1 VSA     -0.085000
     31 CAG         0.7680  -12.0320   -3.8740 ca        1 VSA     -0.107000
     32 H1          0.4740   -0.8270   -0.7140 hc        1 VSA      0.058200
     33 H2         -0.3220    0.6890   -0.1350 hc        1 VSA      0.058200
     34 H3          2.4740    0.2300   -0.1910 hc        1 VSA      0.073950
     35 H4          1.6570    1.4770    0.8190 hc        1 VSA      0.073950
     36 H5          3.0780   -0.9160    1.7400 hc        1 VSA      0.073950
     37 H6          2.2590    0.3460    2.7280 hc        1 VSA      0.073950
     38 H7          1.3040   -2.3980    1.9480 hc        1 VSA      0.058200
     39 H8          0.7530   -1.3410    3.3070 hc        1 VSA      0.058200
     40 H9         -0.8190   -0.1600    2.0070 h1        1 VSA      0.125700
     41 H10         0.1900   -3.2290   -0.1170 h4        1 VSA      0.206000
     42 H11        -5.1440   -0.8450    2.9300 h5        1 VSA      0.125100
     43 H12        -5.6090   -5.1750    1.1950 hn        1 VSA      0.474133
     44 H13        -4.5210   -5.1910   -0.0900 hn        1 VSA      0.474133
     45 H14        -2.9400   -6.3820    0.9860 ha        1 VSA      0.179000
     46 H15        -2.5640   -8.5670   -0.0730 ha        1 VSA      0.169500
     47 H16        -0.5780   -4.4400   -2.1010 ha        1 VSA      0.179000
     48 H17        -0.1540   -6.6120   -3.1710 ha        1 VSA      0.169500
     49 H18        -0.7250   -8.8980   -3.2980 hn        1 VSA      0.501300
     50 H19         1.4010  -11.1810   -1.5260 hn        1 VSA      0.511800
     51 H20         1.6550   -8.6990   -4.1740 ha        1 VSA      0.165000
     52 H21         1.7350   -9.3530   -6.5620 ha        1 VSA      0.203500
     53 H22         1.2520  -11.7090   -7.2520 ha        1 VSA      0.209000
     54 H23         0.6380  -13.4230   -5.5280 ha        1 VSA      0.203500
     55 H24         0.5250  -12.8140   -3.1330 ha        1 VSA      0.165000
     56 HAA3       -5.9050   -4.2380   -0.1580 hn        1 VSA      0.474133
     57 HAU2       -2.0430   -9.5150   -2.4480 hn        1 VSA      0.501300
     58 HAT2        1.7590   -9.5830   -1.9230 hn        1 VSA      0.511800
@<TRIPOS>BOND
     1    1    2 1   
     2    1    5 1   
     3    1   32 1   
     4    1   33 1   
     5    2    3 1   
     6    2   34 1   
     7    2   35 1   
     8    3    4 1   
     9    3   36 1   
    10    3   37 1   
    11    4    5 1   
    12    4   38 1   
    13    4   39 1   
    14    5    6 1   
    15    5   40 1   
    16    6    7 1   
    17    6    8 1   
    18    7   15 2   
    19    7   41 1   
    20    8    9 ar  
    21    8   14 ar  
    22    9   10 ar  
    23   10   11 ar  
    24   10   42 1   
    25   11   12 ar  
    26   12   13 1   
    27   12   14 ar  
    28   13   43 1   
    29   13   44 1   
    30   13   56 1   
    31   14   15 1   
    32   15   16 1   
    33   16   17 ar  
    34   16   19 ar  
    35   17   18 ar  
    36   17   45 1   
    37   18   21 ar  
    38   18   46 1   
    39   19   20 ar  
    40   19   47 1   
    41   20   21 ar  
    42   20   48 1   
    43   21   22 1   
    44   22   23 1   
    45   22   49 1   
    46   22   57 1   
    47   23   24 2   
    48   23   25 1   
    49   25   26 1   
    50   25   50 1   
    51   25   58 1   
    52   26   27 ar  
    53   26   31 ar  
    54   27   28 ar  
    55   27   51 1   
    56   28   29 ar  
    57   28   52 1   
    58   29   30 ar  
    59   29   53 1   
    60   30   31 ar  
    61   30   54 1   
    62   31   55 1   
@<TRIPOS>SUBSTRUCTURE
     1 VSA         1 TEMP              0 ****  ****    0 ROOT
