@<TRIPOS>MOLECULE
VSA
   55    59     1     0     0
SMALL
bcc


@<TRIPOS>ATOM
      1 CAP         0.1400    0.1610    0.2920 c3        1 VSA     -0.093900
      2 CAN         1.4010    0.8530    0.7830 c3        1 VSA     -0.080400
      3 CAO         1.7670    0.2510    2.1340 c3        1 VSA     -0.080400
      4 CAQ         0.7280   -0.8070    2.4690 c3        1 VSA     -0.093900
      5 CBD        -0.4690   -0.5470    1.5250 c3        1 VSA      0.048000
      6 NBE        -1.2380   -1.7230    1.2090 na        1 VSA     -0.154100
      7 CAM        -0.7530   -2.8720    0.5710 cc        1 VSA     -0.105100
      8 C4         -2.5940   -1.9300    1.5020 ca        1 VSA      0.473800
      9 N3         -3.4820   -1.0810    2.1140 nb        1 VSA     -0.740000
     10 C2         -4.7250   -1.5950    2.2120 ca        1 VSA      0.677900
     11 N1         -5.2070   -2.7980    1.7930 nb        1 VSA     -0.792000
     12 C6         -4.3170   -3.6560    1.1960 ca        1 VSA      0.724200
     13 NAA        -4.7240   -4.9220    0.8110 nh        1 VSA     -0.946500
     14 C5         -2.9540   -3.2560    1.0230 ca        1 VSA     -0.360400
     15 CBA        -1.7640   -3.8290    0.4440 cd        1 VSA     -0.059400
     16 CAY        -1.6010   -5.1340   -0.1550 ca        1 VSA     -0.048800
     17 CAK        -1.8930   -6.3000    0.5680 ca        1 VSA     -0.102500
     18 CAI        -1.7080   -7.5540    0.0010 ca        1 VSA     -0.160500
     19 CAJ        -1.1130   -5.2590   -1.4620 ca        1 VSA     -0.102500
     20 CAH        -0.9300   -6.5060   -2.0480 ca        1 VSA     -0.160500
     21 CAX        -1.2250   -7.6800   -1.3240 ca        1 VSA      0.060600
     22 NAU        -1.1240   -8.9670   -1.8890 n         1 VSA     -0.462100
     23 CAV        -0.1370   -9.3150   -2.8410 c         1 VSA      0.767100
     24 OAB         0.5620   -8.4490   -3.4100 o         1 VSA     -0.606100
     25 NAT         0.0160  -10.6930   -3.1140 n         1 VSA     -0.462100
     26 CAW         0.7630  -11.1790   -4.2080 ca        1 VSA      0.057600
     27 CAF         1.9430  -10.5500   -4.6570 ca        1 VSA     -0.155500
     28 CAD         2.6790  -11.1140   -5.6960 ca        1 VSA     -0.109000
     29 CAC         2.2700  -12.3000   -6.3010 ca        1 VSA     -0.149000
     30 CAE         1.1050  -12.9290   -5.8630 ca        1 VSA     -0.109000
     31 CAG         0.3500  -12.3810   -4.8320 ca        1 VSA     -0.155500
     32 H1          0.3900   -0.5760   -0.5130 hc        1 VSA      0.054450
     33 H2         -0.5910    0.8920   -0.1320 hc        1 VSA      0.054450
     34 H3          2.2330    0.7160    0.0480 hc        1 VSA      0.046200
     35 H4          1.2260    1.9540    0.8850 hc        1 VSA      0.046200
     36 H5          1.7810    1.0460    2.9220 hc        1 VSA      0.046200
     37 H6          2.7900   -0.2020    2.1040 hc        1 VSA      0.046200
     38 H7          1.1510   -1.8310    2.3110 hc        1 VSA      0.054450
     39 H8          0.4010   -0.7370    3.5350 hc        1 VSA      0.054450
     40 H9         -1.1660    0.1820    2.0370 h1        1 VSA      0.095700
     41 H10         0.2910   -2.9290    0.2550 h4        1 VSA      0.176000
     42 H11        -5.4770   -0.9390    2.7000 h5        1 VSA      0.048100
     43 H12        -4.1420   -5.3860    0.1520 hn        1 VSA      0.427800
     44 H13        -5.6990   -5.1060    0.7610 hn        1 VSA      0.427800
     45 H14        -2.2620   -6.2200    1.6030 ha        1 VSA      0.144500
     46 H15        -1.9410   -8.4480    0.5990 ha        1 VSA      0.151500
     47 H16        -0.8730   -4.3520   -2.0400 ha        1 VSA      0.144500
     48 H17        -0.5400   -6.5680   -3.0780 ha        1 VSA      0.151500
     49 H18        -1.4740   -9.6960   -1.3040 hn        1 VSA      0.306500
     50 H19        -0.7120  -11.3060   -2.8140 hn        1 VSA      0.306500
     51 H20         2.2820   -9.6070   -4.1980 ha        1 VSA      0.148000
     52 H21         3.5960  -10.6100   -6.0380 ha        1 VSA      0.134000
     53 H22         2.8600  -12.7370   -7.1190 ha        1 VSA      0.134000
     54 H23         0.7750  -13.8660   -6.3360 ha        1 VSA      0.134000
     55 H24        -0.5660  -12.8960   -4.5060 ha        1 VSA      0.148000
@<TRIPOS>BOND
     1    1    2 1   
     2    1    5 1   
     3    1   32 1   
     4    1   33 1   
     5    2    3 1   
     6    2   34 1   
     7    2   35 1   
     8    3    4 1   
     9    3   36 1   
    10    3   37 1   
    11    4    5 1   
    12    4   38 1   
    13    4   39 1   
    14    5    6 1   
    15    5   40 1   
    16    6    7 1   
    17    6    8 1   
    18    7   15 2   
    19    7   41 1   
    20    8    9 ar  
    21    8   14 ar  
    22    9   10 ar  
    23   10   11 ar  
    24   10   42 1   
    25   11   12 ar  
    26   12   13 1   
    27   12   14 ar  
    28   13   43 1   
    29   13   44 1   
    30   14   15 1   
    31   15   16 1   
    32   16   17 ar  
    33   16   19 ar  
    34   17   18 ar  
    35   17   45 1   
    36   18   21 ar  
    37   18   46 1   
    38   19   20 ar  
    39   19   47 1   
    40   20   21 ar  
    41   20   48 1   
    42   21   22 1   
    43   22   23 1   
    44   22   49 1   
    45   23   24 2   
    46   23   25 1   
    47   25   26 1   
    48   25   50 1   
    49   26   27 ar  
    50   26   31 ar  
    51   27   28 ar  
    52   27   51 1   
    53   28   29 ar  
    54   28   52 1   
    55   29   30 ar  
    56   29   53 1   
    57   30   31 ar  
    58   30   54 1   
    59   31   55 1   
@<TRIPOS>SUBSTRUCTURE
     1 VSA         1 TEMP              0 ****  ****    0 ROOT
