@<TRIPOS>MOLECULE
VSA
   55    59     1     0     0
SMALL
bcc


@<TRIPOS>ATOM
      1 CAP         5.0020    3.0160    1.0360 c3        1 VSA     -0.093900
      2 CAN         5.5170    4.3100    0.4280 c3        1 VSA     -0.080400
      3 CAO         5.6430    4.1010   -1.0760 c3        1 VSA     -0.080400
      4 CAQ         5.2060    2.6780   -1.3850 c3        1 VSA     -0.093900
      5 CBD         5.2160    1.9230   -0.0360 c3        1 VSA      0.048000
      6 NBE         4.2770    0.8330    0.0380 na        1 VSA     -0.154100
      7 CAM         2.8860    0.9400   -0.0970 cc        1 VSA     -0.105100
      8 C4          4.5900   -0.5190    0.2350 ca        1 VSA      0.473800
      9 N3          5.8200   -1.1000    0.4250 nb        1 VSA     -0.740000
     10 C2          5.7530   -2.4330    0.6140 ca        1 VSA      0.677900
     11 N1          4.6680   -3.2560    0.6500 nb        1 VSA     -0.792000
     12 C6          3.4390   -2.6820    0.4440 ca        1 VSA      0.724200
     13 NAA         2.3030   -3.4700    0.3970 nh        1 VSA     -0.946500
     14 C5          3.3440   -1.2710    0.2230 ca        1 VSA     -0.360400
     15 CBA         2.2840   -0.3180    0.0050 cd        1 VSA     -0.059400
     16 CAY         0.8650   -0.5700   -0.1020 ca        1 VSA     -0.049800
     17 CAK         0.3610   -1.4550   -1.0660 ca        1 VSA     -0.102500
     18 CAI        -1.0050   -1.6730   -1.1870 ca        1 VSA     -0.160500
     19 CAJ        -0.0390    0.0960    0.7360 ca        1 VSA     -0.102500
     20 CAH        -1.4090   -0.1170    0.6350 ca        1 VSA     -0.160500
     21 CAX        -1.9180   -1.0080   -0.3330 ca        1 VSA      0.060600
     22 NAU        -3.2890   -1.3160   -0.4370 n         1 VSA     -0.462100
     23 CAV        -4.3120   -0.3730   -0.1740 c         1 VSA      0.767100
     24 OAB        -4.0720    0.7190    0.3820 o         1 VSA     -0.606100
     25 NAT        -5.6180   -0.7340   -0.5760 n         1 VSA     -0.462100
     26 CAW        -6.7690   -0.0320   -0.1610 ca        1 VSA      0.057600
     27 CAF        -6.7780    1.3680    0.0150 ca        1 VSA     -0.155500
     28 CAD        -7.9600    2.0180    0.3580 ca        1 VSA     -0.109000
     29 CAC        -9.1460    1.3050    0.5250 ca        1 VSA     -0.149000
     30 CAE        -9.1460   -0.0780    0.3510 ca        1 VSA     -0.109000
     31 CAG        -7.9760   -0.7490    0.0170 ca        1 VSA     -0.155500
     32 H1          5.5540    2.7530    1.9710 hc        1 VSA      0.054450
     33 H2          3.9180    3.1150    1.3000 hc        1 VSA      0.054450
     34 H3          4.8190    5.1540    0.6550 hc        1 VSA      0.046200
     35 H4          6.5120    4.5770    0.8660 hc        1 VSA      0.046200
     36 H5          5.0080    4.8340   -1.6340 hc        1 VSA      0.046200
     37 H6          6.7010    4.2630   -1.4020 hc        1 VSA      0.046200
     38 H7          4.1830    2.6750   -1.8410 hc        1 VSA      0.054450
     39 H8          5.9000    2.1830   -2.1080 hc        1 VSA      0.054450
     40 H9          6.2490    1.4860    0.1130 h1        1 VSA      0.095700
     41 H10         2.4210    1.9130   -0.2640 h4        1 VSA      0.176000
     42 H11         6.7270   -2.9440    0.7730 h5        1 VSA      0.048100
     43 H12         2.3630   -4.4010    0.7390 hn        1 VSA      0.427800
     44 H13         1.4380   -2.9970    0.5230 hn        1 VSA      0.427800
     45 H14         1.0570   -1.9740   -1.7450 ha        1 VSA      0.144500
     46 H15        -1.3660   -2.3690   -1.9600 ha        1 VSA      0.151500
     47 H16         0.3420    0.7990    1.4940 ha        1 VSA      0.144500
     48 H17        -2.0930    0.4260    1.3080 ha        1 VSA      0.151500
     49 H18        -3.4940   -2.0460   -1.0850 hn        1 VSA      0.306500
     50 H19        -5.7840   -1.6930   -0.7970 hn        1 VSA      0.306500
     51 H20        -5.8510    1.9520   -0.1040 ha        1 VSA      0.148500
     52 H21        -7.9520    3.1100    0.4960 ha        1 VSA      0.134000
     53 H22       -10.0750    1.8290    0.7940 ha        1 VSA      0.134000
     54 H23       -10.0780   -0.6490    0.4830 ha        1 VSA      0.134000
     55 H24        -8.0020   -1.8420   -0.1120 ha        1 VSA      0.148500
@<TRIPOS>BOND
     1    1    2 1   
     2    1    5 1   
     3    1   32 1   
     4    1   33 1   
     5    2    3 1   
     6    2   34 1   
     7    2   35 1   
     8    3    4 1   
     9    3   36 1   
    10    3   37 1   
    11    4    5 1   
    12    4   38 1   
    13    4   39 1   
    14    5    6 1   
    15    5   40 1   
    16    6    7 1   
    17    6    8 1   
    18    7   15 2   
    19    7   41 1   
    20    8    9 ar  
    21    8   14 ar  
    22    9   10 ar  
    23   10   11 ar  
    24   10   42 1   
    25   11   12 ar  
    26   12   13 1   
    27   12   14 ar  
    28   13   43 1   
    29   13   44 1   
    30   14   15 1   
    31   15   16 1   
    32   16   17 ar  
    33   16   19 ar  
    34   17   18 ar  
    35   17   45 1   
    36   18   21 ar  
    37   18   46 1   
    38   19   20 ar  
    39   19   47 1   
    40   20   21 ar  
    41   20   48 1   
    42   21   22 1   
    43   22   23 1   
    44   22   49 1   
    45   23   24 2   
    46   23   25 1   
    47   25   26 1   
    48   25   50 1   
    49   26   27 ar  
    50   26   31 ar  
    51   27   28 ar  
    52   27   51 1   
    53   28   29 ar  
    54   28   52 1   
    55   29   30 ar  
    56   29   53 1   
    57   30   31 ar  
    58   30   54 1   
    59   31   55 1   
@<TRIPOS>SUBSTRUCTURE
     1 VSA         1 TEMP              0 ****  ****    0 ROOT
