@<TRIPOS>MOLECULE
VSB
   70    75     1     0     0
SMALL
bcc


@<TRIPOS>ATOM
      1 CAX        -4.3150   -2.6490   -0.9000 c3        1 VSB      0.138800
      2 CAY        -4.2950   -4.1930   -0.8290 c3        1 VSB      0.161300
      3 NAZ        -5.1870   -4.7840    0.1550 n3        1 VSB     -0.719600
      4 CBC        -6.5610   -4.8740   -0.2860 c3        1 VSB      0.148100
      5 CBA        -5.0300   -4.1260    1.4420 c3        1 VSB      0.161300
      6 CBB        -5.0660   -2.5840    1.3990 c3        1 VSB      0.138800
      7 NAW        -4.1630   -2.0230    0.4020 n3        1 VSB     -0.733600
      8 CAT        -4.2220   -0.5540    0.3910 c3        1 VSB      0.189500
      9 CAU        -3.7680    0.0910   -0.9270 c3        1 VSB     -0.082400
     10 CAV        -3.8890    1.5960   -0.8690 c3        1 VSB     -0.090900
     11 CAS        -3.3650    0.0240    1.5330 c3        1 VSB     -0.082400
     12 CAR        -3.4780    1.5280    1.6010 c3        1 VSB     -0.090900
     13 CAQ        -3.1230    2.2490    0.2920 c3        1 VSB      0.054000
     14 NAG        -1.7010    2.3930    0.0590 na        1 VSB     -0.155100
     15 CAH        -0.7540    1.3780   -0.1230 cc        1 VSB     -0.101100
     16 C4         -1.0340    3.6240   -0.0550 ca        1 VSB      0.467800
     17 N3         -1.5460    4.8930    0.0570 nb        1 VSB     -0.744000
     18 C2         -0.6140    5.8570   -0.0800 ca        1 VSB      0.677900
     19 N1          0.7260    5.7510   -0.3000 nb        1 VSB     -0.793000
     20 C6          1.2390    4.4850   -0.4290 ca        1 VSB      0.726200
     21 NAK         2.5790    4.3070   -0.7220 nh        1 VSB     -0.949500
     22 C5          0.3720    3.3520   -0.3130 ca        1 VSB     -0.359400
     23 CAI         0.5150    1.9190   -0.3550 cd        1 VSB     -0.067400
     24 CAJ         1.7120    1.1440   -0.5950 ca        1 VSB     -0.047800
     25 CAP         2.1130    0.1680    0.3310 ca        1 VSB     -0.102000
     26 CAO         3.2490   -0.6040    0.1040 ca        1 VSB     -0.163000
     27 CAL         2.4660    1.3300   -1.7640 ca        1 VSB     -0.102000
     28 CAM         3.6070    0.5720   -2.0030 ca        1 VSB     -0.163000
     29 CAN         3.9930   -0.3970   -1.0630 ca        1 VSB      0.107100
     30 OBD         5.0870   -1.1750   -1.4250 os        1 VSB     -0.249200
     31 CBE         5.8680   -1.6850   -0.3900 ca        1 VSB      0.102100
     32 CBF         6.4010   -2.9650   -0.6070 ca        1 VSB     -0.155000
     33 CBG         7.2820   -3.4920    0.3350 ca        1 VSB     -0.109000
     34 CBH         7.6190   -2.7630    1.4760 ca        1 VSB     -0.147000
     35 CBI         7.0780   -1.4930    1.6810 ca        1 VSB     -0.109000
     36 CBJ         6.2000   -0.9430    0.7490 ca        1 VSB     -0.155000
     37 H1         -3.4470   -2.3340   -1.5430 h1        1 VSB      0.033450
     38 H2         -4.5470   -4.5880   -1.8510 h1        1 VSB      0.058700
     39 H3         -3.2530   -4.5310   -0.5670 h1        1 VSB      0.058700
     40 H5         -6.5960   -5.4670   -1.2380 h1        1 VSB      0.031367
     41 H6         -7.1570   -5.4150    0.4950 h1        1 VSB      0.031367
     42 H7         -7.0420   -3.8740   -0.4720 h1        1 VSB      0.031367
     43 H8         -5.8380   -4.4730    2.1430 h1        1 VSB      0.058700
     44 H9         -4.0360   -4.4570    1.8570 h1        1 VSB      0.058700
     45 H10        -6.1330   -2.2540    1.2280 h1        1 VSB      0.033450
     46 H11        -5.2920   -0.2120    0.5670 h1        1 VSB      0.023700
     47 H12        -2.7120   -0.2040   -1.1570 hc        1 VSB      0.050950
     48 H13        -3.5490    2.0290   -1.8470 hc        1 VSB      0.056200
     49 H14        -4.9690    1.8750   -0.7370 hc        1 VSB      0.056200
     50 H15        -3.7030   -0.4000    2.5160 hc        1 VSB      0.050950
     51 H16        -2.2960   -0.2830    1.3960 hc        1 VSB      0.050950
     52 H17        -4.5400    1.8070    1.8410 hc        1 VSB      0.056200
     53 H18        -2.8360    1.9090    2.4370 hc        1 VSB      0.056200
     54 H19        -3.5280    3.3060    0.3880 h1        1 VSB      0.092700
     55 H20        -1.0410    0.3250   -0.0810 h4        1 VSB      0.181000
     56 H22        -0.9880    6.9000    0.0060 h5        1 VSB      0.048100
     57 H23         3.1920    5.0810   -0.6250 hn        1 VSB      0.430300
     58 H24         2.9530    3.4030   -0.5510 hn        1 VSB      0.430300
     59 H26         1.5200    0.0110    1.2440 ha        1 VSB      0.145500
     60 H27         3.5610   -1.3690    0.8300 ha        1 VSB      0.151500
     61 H28         2.1450    2.0800   -2.5050 ha        1 VSB      0.145500
     62 H29         4.1990    0.7090   -2.9200 ha        1 VSB      0.151500
     63 H30         6.1280   -3.5250   -1.5120 ha        1 VSB      0.148500
     64 H31         7.7110   -4.4930    0.1750 ha        1 VSB      0.135500
     65 H32         8.3130   -3.1900    2.2140 ha        1 VSB      0.135000
     66 H33         7.3470   -0.9190    2.5800 ha        1 VSB      0.135500
     67 H34         5.7690    0.0570    0.9010 ha        1 VSB      0.148500
     68 H35        -5.2680   -2.3270   -1.4140 h1        1 VSB      0.033450
     69 H4         -4.7490   -2.2020    2.4090 h1        1 VSB      0.033450
     70 H36        -4.4110   -0.2730   -1.7740 hc        1 VSB      0.050950
@<TRIPOS>BOND
     1    1    2 1   
     2    1    7 1   
     3    1   37 1   
     4    1   68 1   
     5    2    3 1   
     6    2   38 1   
     7    2   39 1   
     8    3    4 1   
     9    3    5 1   
    10    4   40 1   
    11    4   41 1   
    12    4   42 1   
    13    5    6 1   
    14    5   43 1   
    15    5   44 1   
    16    6    7 1   
    17    6   45 1   
    18    6   69 1   
    19    7    8 1   
    20    8    9 1   
    21    8   11 1   
    22    8   46 1   
    23    9   10 1   
    24    9   47 1   
    25    9   70 1   
    26   10   13 1   
    27   10   48 1   
    28   10   49 1   
    29   11   12 1   
    30   11   50 1   
    31   11   51 1   
    32   12   13 1   
    33   12   52 1   
    34   12   53 1   
    35   13   14 1   
    36   13   54 1   
    37   14   15 1   
    38   14   16 1   
    39   15   23 2   
    40   15   55 1   
    41   16   17 ar  
    42   16   22 ar  
    43   17   18 ar  
    44   18   19 ar  
    45   18   56 1   
    46   19   20 ar  
    47   20   21 1   
    48   20   22 ar  
    49   21   57 1   
    50   21   58 1   
    51   22   23 1   
    52   23   24 1   
    53   24   25 ar  
    54   24   27 ar  
    55   25   26 ar  
    56   25   59 1   
    57   26   29 ar  
    58   26   60 1   
    59   27   28 ar  
    60   27   61 1   
    61   28   29 ar  
    62   28   62 1   
    63   29   30 1   
    64   30   31 1   
    65   31   32 ar  
    66   31   36 ar  
    67   32   33 ar  
    68   32   63 1   
    69   33   34 ar  
    70   33   64 1   
    71   34   35 ar  
    72   34   65 1   
    73   35   36 ar  
    74   35   66 1   
    75   36   67 1   
@<TRIPOS>SUBSTRUCTURE
     1 VSB         1 TEMP              0 ****  ****    0 ROOT
