@<TRIPOS>MOLECULE
VSB
   70    75     1     0     0
SMALL
bcc


@<TRIPOS>ATOM
      1 CAX         0.3520    0.1070    0.2740 c3        1 VSB      0.138800
      2 CAY         1.8280   -0.1980    0.6180 c3        1 VSB      0.161300
      3 NAZ         2.0720   -0.6400    1.9820 n3        1 VSB     -0.719600
      4 CBC         1.7860   -2.0410    2.1980 c3        1 VSB      0.148100
      5 CBA         1.4090    0.2430    2.9280 c3        1 VSB      0.161300
      6 CBB        -0.0710    0.5470    2.6150 c3        1 VSB      0.138800
      7 NAW        -0.2830    0.9860    1.2420 n3        1 VSB     -0.733600
      8 CAT        -1.7020    1.2680    0.9800 c3        1 VSB      0.189500
      9 CAU        -2.1030    1.1930   -0.5000 c3        1 VSB     -0.082400
     10 CAV        -3.5790    1.4640   -0.6800 c3        1 VSB     -0.090900
     11 CAS        -2.0750    2.6650    1.5140 c3        1 VSB     -0.082400
     12 CAR        -3.5480    2.9450    1.3390 c3        1 VSB     -0.090900
     13 CAQ        -4.0510    2.8080   -0.1060 c3        1 VSB      0.054000
     14 NAG        -3.7610    3.9490   -0.9480 na        1 VSB     -0.155100
     15 CAH        -2.5060    4.4410   -1.3240 cc        1 VSB     -0.101100
     16 C4         -4.7360    4.7500   -1.5670 ca        1 VSB      0.467800
     17 N3         -6.1030    4.6560   -1.4870 nb        1 VSB     -0.744000
     18 C2         -6.7440    5.6110   -2.1900 ca        1 VSB      0.677900
     19 N1         -6.2390    6.6300   -2.9390 nb        1 VSB     -0.793000
     20 C6         -4.8730    6.7180   -3.0350 ca        1 VSB      0.726200
     21 NAK        -4.2960    7.6870   -3.8350 nv        1 VSB     -0.949500
     22 C5         -4.0510    5.7700   -2.3460 ca        1 VSB     -0.359400
     23 CAI        -2.6380    5.5430   -2.1760 cd        1 VSB     -0.067400
     24 CAJ        -1.5360    6.2770   -2.7550 ca        1 VSB     -0.047800
     25 CAP        -0.5450    6.8260   -1.9260 ca        1 VSB     -0.102000
     26 CAO         0.5360    7.5140   -2.4690 ca        1 VSB     -0.163000
     27 CAL        -1.4220    6.4210   -4.1470 ca        1 VSB     -0.102000
     28 CAM        -0.3510    7.1120   -4.7050 ca        1 VSB     -0.163000
     29 CAN         0.6270    7.6550   -3.8580 ca        1 VSB      0.107100
     30 OBD         1.7110    8.2430   -4.5010 os        1 VSB     -0.249200
     31 CBE         2.3600    9.2750   -3.8270 ca        1 VSB      0.102100
     32 CBF         3.7500    9.3370   -4.0060 ca        1 VSB     -0.155000
     33 CBG         4.4510   10.4060   -3.4540 ca        1 VSB     -0.109000
     34 CBH         3.7810   11.3930   -2.7280 ca        1 VSB     -0.147000
     35 CBI         2.3990   11.3170   -2.5540 ca        1 VSB     -0.109000
     36 CBJ         1.6760   10.2590   -3.1030 ca        1 VSB     -0.155000
     37 H1          0.3430    0.6240   -0.7260 h1        1 VSB      0.033450
     38 H2          2.4370    0.7370    0.4670 h1        1 VSB      0.058700
     39 H3          2.1950   -0.9790   -0.1020 h1        1 VSB      0.058700
     40 H5          2.4010   -2.6490    1.4840 h1        1 VSB      0.031367
     41 H6          0.7030   -2.3080    2.0520 h1        1 VSB      0.031367
     42 H7          2.0810   -2.3130    3.2450 h1        1 VSB      0.031367
     43 H8          1.4620   -0.2020    3.9590 h1        1 VSB      0.058700
     44 H9          1.9880    1.2100    2.9300 h1        1 VSB      0.058700
     45 H10        -0.6860   -0.3690    2.8600 h1        1 VSB      0.033450
     46 H11        -2.3500    0.5140    1.5300 h1        1 VSB      0.023700
     47 H12        -1.8900    0.1670   -0.9040 hc        1 VSB      0.050950
     48 H13        -4.1670    0.6650   -0.1520 hc        1 VSB      0.056200
     49 H14        -3.8330    1.4000   -1.7710 hc        1 VSB      0.056200
     50 H15        -1.4630    3.4450    0.9920 hc        1 VSB      0.050950
     51 H16        -1.8300    2.7340    2.6070 hc        1 VSB      0.050950
     52 H17        -4.1380    2.2130    1.9540 hc        1 VSB      0.056200
     53 H18        -3.7770    3.9710    1.7310 hc        1 VSB      0.056200
     54 H19        -5.1850    2.7490   -0.0450 h1        1 VSB      0.092700
     55 H20        -1.5860    3.9730   -0.9650 h4        1 VSB      0.181000
     56 H22        -7.8540    5.5710   -2.1500 h5        1 VSB      0.048100
     57 H23        -4.8630    8.4340   -4.1590 hn        1 VSB      0.430300
     58 H24        -3.3350    7.8780   -3.6740 hn        1 VSB      0.430300
     59 H26        -0.6240    6.7070   -0.8350 ha        1 VSB      0.145500
     60 H27         1.3120    7.9430   -1.8170 ha        1 VSB      0.151500
     61 H28        -2.1850    5.9750   -4.8040 ha        1 VSB      0.145500
     62 H29        -0.2530    7.2230   -5.7950 ha        1 VSB      0.151500
     63 H30         4.2620    8.5540   -4.5830 ha        1 VSB      0.148500
     64 H31         5.5410   10.4700   -3.5910 ha        1 VSB      0.135500
     65 H32         4.3440   12.2310   -2.2940 ha        1 VSB      0.135000
     66 H33         1.8730   12.0970   -1.9840 ha        1 VSB      0.135500
     67 H34         0.5870   10.1910   -2.9720 ha        1 VSB      0.148500
     68 H35        -0.2000   -0.8730    0.1680 h1        1 VSB      0.033450
     69 H4         -0.4060    1.3750    3.2990 h1        1 VSB      0.033450
     70 H36        -1.5000    1.9230   -1.1010 hc        1 VSB      0.050950
@<TRIPOS>BOND
     1    1    2 1   
     2    1    7 1   
     3    1   37 1   
     4    1   68 1   
     5    2    3 1   
     6    2   38 1   
     7    2   39 1   
     8    3    4 1   
     9    3    5 1   
    10    4   40 1   
    11    4   41 1   
    12    4   42 1   
    13    5    6 1   
    14    5   43 1   
    15    5   44 1   
    16    6    7 1   
    17    6   45 1   
    18    6   69 1   
    19    7    8 1   
    20    8    9 1   
    21    8   11 1   
    22    8   46 1   
    23    9   10 1   
    24    9   47 1   
    25    9   70 1   
    26   10   13 1   
    27   10   48 1   
    28   10   49 1   
    29   11   12 1   
    30   11   50 1   
    31   11   51 1   
    32   12   13 1   
    33   12   52 1   
    34   12   53 1   
    35   13   14 1   
    36   13   54 1   
    37   14   15 1   
    38   14   16 1   
    39   15   23 2   
    40   15   55 1   
    41   16   17 ar  
    42   16   22 ar  
    43   17   18 ar  
    44   18   19 ar  
    45   18   56 1   
    46   19   20 ar  
    47   20   21 1   
    48   20   22 ar  
    49   21   57 1   
    50   21   58 1   
    51   22   23 1   
    52   23   24 1   
    53   24   25 ar  
    54   24   27 ar  
    55   25   26 ar  
    56   25   59 1   
    57   26   29 ar  
    58   26   60 1   
    59   27   28 ar  
    60   27   61 1   
    61   28   29 ar  
    62   28   62 1   
    63   29   30 1   
    64   30   31 1   
    65   31   32 ar  
    66   31   36 ar  
    67   32   33 ar  
    68   32   63 1   
    69   33   34 ar  
    70   33   64 1   
    71   34   35 ar  
    72   34   65 1   
    73   35   36 ar  
    74   35   66 1   
    75   36   67 1   
@<TRIPOS>SUBSTRUCTURE
     1 VSB         1 TEMP              0 ****  ****    0 ROOT
