@<TRIPOS>MOLECULE
VSB
   71    76     1     0     0
SMALL
bcc


@<TRIPOS>ATOM
      1 CAX         0.4120   -0.1610   -0.1350 c3        1 VSB      0.128800
      2 CAY         1.8770   -0.4580    0.2460 c3        1 VSB      0.163800
      3 NAZ         2.1120   -0.7380    1.6510 n3        1 VSB     -0.718600
      4 CBC         1.7940   -2.0920    2.0420 c3        1 VSB      0.148100
      5 CBA         1.4880    0.2780    2.4780 c3        1 VSB      0.163800
      6 CBB         0.0140    0.5920    2.1440 c3        1 VSB      0.128800
      7 NAW        -0.2360    0.8220    0.7260 n3        1 VSB     -0.725600
      8 CAT        -1.6780    0.9390    0.4360 c3        1 VSB      0.184500
      9 CAU        -1.9330    1.2260   -1.0530 c3        1 VSB     -0.086400
     10 CAV        -3.3960    1.4300   -1.3620 c3        1 VSB     -0.093400
     11 CAS        -2.3370    2.0310    1.2980 c3        1 VSB     -0.086400
     12 CAR        -3.7970    2.2250    0.9680 c3        1 VSB     -0.093400
     13 CAQ        -4.0780    2.5100   -0.5120 c3        1 VSB      0.043000
     14 NAG        -3.7620    3.8730   -0.9230 na        1 VSB     -0.134100
     15 CAH        -2.5140    4.4970   -0.9260 cc        1 VSB     -0.005100
     16 C4         -4.7070    4.7950   -1.3990 ca        1 VSB      0.463800
     17 N3         -6.0490    4.6650   -1.5800 nb        1 VSB     -0.635000
     18 C2         -6.6640    5.7730   -2.0580 ca        1 VSB      0.660900
     19 N1         -6.1160    6.9830   -2.3730 nb        1 VSB     -0.691000
     20 C6         -4.7770    7.0990   -2.1860 ca        1 VSB      0.503200
     21 NAK        -4.1330    8.3910   -2.4970 n4        1 VSB     -0.825300
     22 C5         -3.9830    6.0480   -1.7050 ca        1 VSB     -0.275400
     23 CAI        -2.6030    5.8170   -1.3950 cd        1 VSB     -0.110400
     24 CAJ        -1.5240    6.7680   -1.5430 ca        1 VSB     -0.119800
     25 CAP        -0.9120    7.3300   -0.4100 ca        1 VSB     -0.105000
     26 CAO         0.1260    8.2410   -0.5430 ca        1 VSB     -0.174000
     27 CAL        -1.0600    7.1190   -2.8200 ca        1 VSB     -0.105000
     28 CAM        -0.0220    8.0340   -2.9720 ca        1 VSB     -0.174000
     29 CAN         0.5700    8.5970   -1.8330 ca        1 VSB      0.151100
     30 OBD         1.5680    9.5480   -1.8610 os        1 VSB     -0.235200
     31 CBE         2.2400    9.7280   -3.0760 ca        1 VSB      0.062100
     32 CBF         2.9510    8.6830   -3.6770 ca        1 VSB     -0.137500
     33 CBG         3.7180    8.9580   -4.8080 ca        1 VSB     -0.112000
     34 CBH         3.7740   10.2550   -5.3230 ca        1 VSB     -0.122000
     35 CBI         3.0620   11.2870   -4.7100 ca        1 VSB     -0.112000
     36 CBJ         2.2830   11.0340   -3.5820 ca        1 VSB     -0.137500
     37 H1          0.4260    0.2590   -1.1800 h1        1 VSB      0.035200
     38 H2          2.5100    0.4360   -0.0180 h1        1 VSB      0.061950
     39 H3          2.2230   -1.3290   -0.3750 h1        1 VSB      0.061950
     40 H5          0.7040   -2.3470    1.9360 h1        1 VSB      0.035700
     41 H6          2.0920   -2.2370    3.1140 h1        1 VSB      0.035700
     42 H7          2.3890   -2.8000    1.4080 h1        1 VSB      0.035700
     43 H8          1.5370   -0.0310    3.5580 h1        1 VSB      0.061950
     44 H9          2.0960    1.2190    2.3530 h1        1 VSB      0.061950
     45 H10        -0.6330   -0.2400    2.5500 h1        1 VSB      0.035200
     46 H11        -2.2070   -0.0370    0.6790 h1        1 VSB      0.029700
     47 H12        -1.3350    2.1150   -1.3830 hc        1 VSB      0.054950
     48 H13        -3.5160    1.6590   -2.4530 hc        1 VSB      0.066950
     49 H14        -3.9540    0.4750   -1.1590 hc        1 VSB      0.066950
     50 H15        -1.7780    2.9970    1.1890 hc        1 VSB      0.054950
     51 H16        -2.2770    1.7360    2.3810 hc        1 VSB      0.054950
     52 H17        -4.2150    3.0450    1.6100 hc        1 VSB      0.066950
     53 H18        -4.3610    1.2860    1.2190 hc        1 VSB      0.066950
     54 H19        -5.1970    2.3950   -0.6660 h1        1 VSB      0.097700
     55 H20        -1.6150    3.9610   -0.5920 h4        1 VSB      0.218000
     56 H22        -7.7650    5.6940   -2.2180 h5        1 VSB      0.092100
     57 H23        -3.1070    8.2540   -2.5000 hn        1 VSB      0.473800
     58 H24        -4.4440    8.7350   -3.4130 hn        1 VSB      0.473800
     59 H26        -1.2520    7.0360    0.5960 ha        1 VSB      0.146000
     60 H27         0.6160    8.6830    0.3390 ha        1 VSB      0.169000
     61 H28        -1.4920    6.6370   -3.7120 ha        1 VSB      0.146000
     62 H29         0.3520    8.2950   -3.9750 ha        1 VSB      0.169000
     63 H30         2.9090    7.6690   -3.2540 ha        1 VSB      0.149500
     64 H31         4.2890    8.1490   -5.2890 ha        1 VSB      0.147500
     65 H32         4.3870   10.4650   -6.2120 ha        1 VSB      0.148000
     66 H33         3.1180   12.3100   -5.1140 ha        1 VSB      0.147500
     67 H34         1.7320   11.8400   -3.0780 ha        1 VSB      0.149500
     68 H35        -0.1610   -1.1340   -0.1580 h1        1 VSB      0.035200
     69 H4         -0.2500    1.5380    2.6940 h1        1 VSB      0.035200
     70 H36        -1.5830    0.3510   -1.6660 hc        1 VSB      0.054950
     71 HAK3       -4.3870    9.0790   -1.7800 hn        1 VSB      0.473800
@<TRIPOS>BOND
     1    1    2 1   
     2    1    7 1   
     3    1   37 1   
     4    1   68 1   
     5    2    3 1   
     6    2   38 1   
     7    2   39 1   
     8    3    4 1   
     9    3    5 1   
    10    4   40 1   
    11    4   41 1   
    12    4   42 1   
    13    5    6 1   
    14    5   43 1   
    15    5   44 1   
    16    6    7 1   
    17    6   45 1   
    18    6   69 1   
    19    7    8 1   
    20    8    9 1   
    21    8   11 1   
    22    8   46 1   
    23    9   10 1   
    24    9   47 1   
    25    9   70 1   
    26   10   13 1   
    27   10   48 1   
    28   10   49 1   
    29   11   12 1   
    30   11   50 1   
    31   11   51 1   
    32   12   13 1   
    33   12   52 1   
    34   12   53 1   
    35   13   14 1   
    36   13   54 1   
    37   14   15 1   
    38   14   16 1   
    39   15   23 2   
    40   15   55 1   
    41   16   17 ar  
    42   16   22 ar  
    43   17   18 ar  
    44   18   19 ar  
    45   18   56 1   
    46   19   20 ar  
    47   20   21 1   
    48   20   22 ar  
    49   21   57 1   
    50   21   58 1   
    51   21   71 1   
    52   22   23 1   
    53   23   24 1   
    54   24   25 ar  
    55   24   27 ar  
    56   25   26 ar  
    57   25   59 1   
    58   26   29 ar  
    59   26   60 1   
    60   27   28 ar  
    61   27   61 1   
    62   28   29 ar  
    63   28   62 1   
    64   29   30 1   
    65   30   31 1   
    66   31   32 ar  
    67   31   36 ar  
    68   32   33 ar  
    69   32   63 1   
    70   33   34 ar  
    71   33   64 1   
    72   34   35 ar  
    73   34   65 1   
    74   35   36 ar  
    75   35   66 1   
    76   36   67 1   
@<TRIPOS>SUBSTRUCTURE
     1 VSB         1 TEMP              0 ****  ****    0 ROOT
