@<TRIPOS>MOLECULE
VSB
   70    75     1     0     0
SMALL
bcc


@<TRIPOS>ATOM
      1 CAX         0.3530    0.1010    0.2520 c3        1 VSB      0.138800
      2 CAY         1.8300   -0.2090    0.5810 c3        1 VSB      0.161300
      3 NAZ         2.0860   -0.6560    1.9410 n3        1 VSB     -0.719600
      4 CBC         1.7980   -2.0570    2.1560 c3        1 VSB      0.148100
      5 CBA         1.4360    0.2270    2.8960 c3        1 VSB      0.161300
      6 CBB        -0.0460    0.5360    2.5990 c3        1 VSB      0.138800
      7 NAW        -0.2700    0.9790    1.2280 n3        1 VSB     -0.733600
      8 CAT        -1.6910    1.2660    0.9820 c3        1 VSB      0.189500
      9 CAU        -2.1070    1.1950   -0.4950 c3        1 VSB     -0.082400
     10 CAV        -3.5840    1.4710   -0.6600 c3        1 VSB     -0.090900
     11 CAS        -2.0540    2.6630    1.5220 c3        1 VSB     -0.082400
     12 CAR        -3.5280    2.9480    1.3630 c3        1 VSB     -0.090900
     13 CAQ        -4.0470    2.8150   -0.0780 c3        1 VSB      0.054000
     14 NAG        -3.7620    3.9570   -0.9200 na        1 VSB     -0.155100
     15 CAH        -2.5090    4.4470   -1.3070 cc        1 VSB     -0.101100
     16 C4         -4.7400    4.7620   -1.5280 ca        1 VSB      0.467800
     17 N3         -6.1070    4.6720   -1.4350 nb        1 VSB     -0.744000
     18 C2         -6.7520    5.6300   -2.1290 ca        1 VSB      0.677900
     19 N1         -6.2520    6.6500   -2.8810 nb        1 VSB     -0.793000
     20 C6         -4.8860    6.7340   -2.9900 ca        1 VSB      0.726200
     21 NAK        -4.3140    7.7030   -3.7930 nh        1 VSB     -0.949500
     22 C5         -4.0600    5.7820   -2.3120 ca        1 VSB     -0.359400
     23 CAI        -2.6470    5.5510   -2.1550 cd        1 VSB     -0.067400
     24 CAJ        -1.5470    6.2830   -2.7440 ca        1 VSB     -0.047800
     25 CAP        -0.5480    6.8270   -1.9230 ca        1 VSB     -0.102500
     26 CAO         0.5300    7.5140   -2.4740 ca        1 VSB     -0.163000
     27 CAL        -1.4460    6.4310   -4.1360 ca        1 VSB     -0.102500
     28 CAM        -0.3800    7.1200   -4.7030 ca        1 VSB     -0.163000
     29 CAN         0.6090    7.6580   -3.8630 ca        1 VSB      0.107100
     30 OBD         1.6880    8.2450   -4.5150 os        1 VSB     -0.249200
     31 CBE         2.3460    9.2740   -3.8450 ca        1 VSB      0.102100
     32 CBF         3.7350    9.3320   -4.0370 ca        1 VSB     -0.155000
     33 CBG         4.4430   10.3990   -3.4890 ca        1 VSB     -0.109000
     34 CBH         3.7830   11.3850   -2.7550 ca        1 VSB     -0.147000
     35 CBI         2.4020   11.3120   -2.5670 ca        1 VSB     -0.109000
     36 CBJ         1.6720   10.2570   -3.1120 ca        1 VSB     -0.155000
     37 H1         -0.2040   -0.8770    0.1490 h1        1 VSB      0.033450
     38 H2          2.1880   -0.9890   -0.1450 h1        1 VSB      0.058700
     39 H3          2.4410    0.7250    0.4260 h1        1 VSB      0.058700
     40 H5          2.4050   -2.6650    1.4350 h1        1 VSB      0.031367
     41 H6          2.1030   -2.3320    3.2000 h1        1 VSB      0.031367
     42 H7          0.7140   -2.3200    2.0200 h1        1 VSB      0.031367
     43 H8          1.4970   -0.2210    3.9250 h1        1 VSB      0.058700
     44 H9          2.0180    1.1910    2.8950 h1        1 VSB      0.058700
     45 H10        -0.3720    1.3630    3.2880 h1        1 VSB      0.033450
     46 H11        -2.3360    0.5120    1.5360 h1        1 VSB      0.023700
     47 H12        -1.9020    0.1700   -0.9030 hc        1 VSB      0.050950
     48 H13        -3.8490    1.4100   -1.7480 hc        1 VSB      0.056200
     49 H14        -4.1690    0.6730   -0.1280 hc        1 VSB      0.056200
     50 H15        -1.7980    2.7290    2.6120 hc        1 VSB      0.050950
     51 H16        -1.4450    3.4420    0.9960 hc        1 VSB      0.050950
     52 H17        -3.7510    3.9730    1.7590 hc        1 VSB      0.056200
     53 H18        -4.1150    2.2160    1.9810 hc        1 VSB      0.056200
     54 H19        -5.1800    2.7600   -0.0060 h1        1 VSB      0.092700
     55 H20        -1.5870    3.9750   -0.9590 h4        1 VSB      0.181000
     56 H22        -7.8620    5.5940   -2.0790 h5        1 VSB      0.048100
     57 H23        -4.8820    8.4530   -4.1100 hn        1 VSB      0.430300
     58 H24        -3.3510    7.8910   -3.6410 hn        1 VSB      0.430300
     59 H26        -0.6160    6.7050   -0.8310 ha        1 VSB      0.145500
     60 H27         1.3140    7.9380   -1.8290 ha        1 VSB      0.151500
     61 H28        -2.2170    5.9880   -4.7870 ha        1 VSB      0.145500
     62 H29        -0.2910    7.2330   -5.7930 ha        1 VSB      0.151500
     63 H30         4.2390    8.5500   -4.6210 ha        1 VSB      0.148500
     64 H31         5.5320   10.4590   -3.6360 ha        1 VSB      0.135500
     65 H32         4.3520   12.2210   -2.3240 ha        1 VSB      0.135000
     66 H33         1.8830   12.0920   -1.9900 ha        1 VSB      0.135500
     67 H34         0.5840   10.1910   -2.9700 ha        1 VSB      0.148500
     68 H35         0.3350    0.6200   -0.7470 h1        1 VSB      0.033450
     69 H4         -0.6620   -0.3790    2.8460 h1        1 VSB      0.033450
     70 H36        -1.5080    1.9250   -1.1000 hc        1 VSB      0.050950
@<TRIPOS>BOND
     1    1    2 1   
     2    1    7 1   
     3    1   37 1   
     4    1   68 1   
     5    2    3 1   
     6    2   38 1   
     7    2   39 1   
     8    3    4 1   
     9    3    5 1   
    10    4   40 1   
    11    4   41 1   
    12    4   42 1   
    13    5    6 1   
    14    5   43 1   
    15    5   44 1   
    16    6    7 1   
    17    6   45 1   
    18    6   69 1   
    19    7    8 1   
    20    8    9 1   
    21    8   11 1   
    22    8   46 1   
    23    9   10 1   
    24    9   47 1   
    25    9   70 1   
    26   10   13 1   
    27   10   48 1   
    28   10   49 1   
    29   11   12 1   
    30   11   50 1   
    31   11   51 1   
    32   12   13 1   
    33   12   52 1   
    34   12   53 1   
    35   13   14 1   
    36   13   54 1   
    37   14   15 1   
    38   14   16 1   
    39   15   23 2   
    40   15   55 1   
    41   16   17 ar  
    42   16   22 ar  
    43   17   18 ar  
    44   18   19 ar  
    45   18   56 1   
    46   19   20 ar  
    47   20   21 1   
    48   20   22 ar  
    49   21   57 1   
    50   21   58 1   
    51   22   23 1   
    52   23   24 1   
    53   24   25 ar  
    54   24   27 ar  
    55   25   26 ar  
    56   25   59 1   
    57   26   29 ar  
    58   26   60 1   
    59   27   28 ar  
    60   27   61 1   
    61   28   29 ar  
    62   28   62 1   
    63   29   30 1   
    64   30   31 1   
    65   31   32 ar  
    66   31   36 ar  
    67   32   33 ar  
    68   32   63 1   
    69   33   34 ar  
    70   33   64 1   
    71   34   35 ar  
    72   34   65 1   
    73   35   36 ar  
    74   35   66 1   
    75   36   67 1   
@<TRIPOS>SUBSTRUCTURE
     1 VSB         1 TEMP              0 ****  ****    0 ROOT
