@<TRIPOS>MOLECULE
VSC
   79    82     1     0     0
SMALL
bcc


@<TRIPOS>ATOM
      1 C22        -2.5220   -0.1690    0.7230 c         1 VSC      0.741100
      2 O23        -2.1350    0.7110    1.5160 o         1 VSC     -0.616000
      3 O24        -3.7480   -0.0250    0.1120 os        1 VSC     -0.431900
      4 C25        -4.4070    1.2350    0.3740 c3        1 VSC      0.198700
      5 C26        -5.6410    1.2640   -0.4610 ca        1 VSC     -0.101300
      6 C31        -5.9730    2.4310   -1.1590 ca        1 VSC     -0.108000
      7 C30        -7.1480    2.4850   -1.9060 ca        1 VSC     -0.132000
      8 C29        -7.9910    1.3750   -1.9680 ca        1 VSC     -0.120000
      9 C28        -7.6580    0.2080   -1.2800 ca        1 VSC     -0.132000
     10 C27        -6.4870    0.1520   -0.5260 ca        1 VSC     -0.108000
     11 N21        -1.8460   -1.2960    0.3160 n         1 VSC     -0.532900
     12 C13        -0.6780   -1.7510    1.0340 c3        1 VSC      0.049700
     13 C11         0.5880   -1.0010    0.5290 c         1 VSC      0.647100
     14 O12         1.4210   -1.5740   -0.2030 o         1 VSC     -0.628100
     15 C14        -0.4320   -3.2600    0.8720 c3        1 VSC     -0.044100
     16 C15        -1.5960   -4.0650    1.3270 ca        1 VSC     -0.098300
     17 C16        -2.5100   -4.5730    0.3970 ca        1 VSC     -0.127000
     18 C20        -1.7810   -4.3340    2.6890 ca        1 VSC     -0.127000
     19 C17        -3.5960   -5.3370    0.8240 ca        1 VSC     -0.124500
     20 C19        -2.8670   -5.0970    3.1130 ca        1 VSC     -0.124500
     21 C18        -3.7760   -5.5990    2.1820 ca        1 VSC     -0.124000
     22 C1          1.2180    2.6270    0.2790 c3        1 VSC     -0.090400
     23 C9          1.7370    1.1840    0.4080 c3        1 VSC      0.105700
     24 C32         3.0410    1.2300    1.2280 c3        1 VSC     -0.056400
     25 C33         3.6830   -0.1320    1.3560 c3        1 VSC     -0.385600
     26 S34         5.3480   -0.1170    1.6070 s6        1 VSC      1.579500
     27 O37         5.9650    0.9790    1.0370 o         1 VSC     -0.643800
     28 O36         5.6670   -0.5220    2.8870 o         1 VSC     -0.643800
     29 O35         5.8190   -1.4520    0.6780 os        1 VSC     -0.472800
     30 N10         0.7420    0.2910    0.9630 n         1 VSC     -0.554900
     31 C3         -0.3920    4.1410   -0.8490 ca        1 VSC     -0.080300
     32 C4          0.3530    4.9320   -1.7330 ca        1 VSC     -0.128000
     33 C5         -0.0100    6.2570   -1.9670 ca        1 VSC     -0.128500
     34 C6         -1.1190    6.8040   -1.3210 ca        1 VSC     -0.131000
     35 C7         -1.8650    6.0210   -0.4410 ca        1 VSC     -0.128500
     36 C8         -1.5050    4.6940   -0.2060 ca        1 VSC     -0.128000
     37 C36         5.8460   -1.4420   -0.6920 ca        1 VSC      0.130100
     38 C37         6.9670   -0.9240   -1.3600 ca        1 VSC     -0.143000
     39 C38         7.0230   -1.0110   -2.7490 ca        1 VSC     -0.115500
     40 C39         5.9810   -1.6040   -3.4620 ca        1 VSC     -0.139000
     41 C40         4.8700   -2.1130   -2.7890 ca        1 VSC     -0.115500
     42 C41         4.7890   -2.0370   -1.4000 ca        1 VSC     -0.143000
     43 H251       -4.6540    1.2770    1.4690 h1        1 VSC      0.064200
     44 H252       -3.7020    2.0710    0.1200 h1        1 VSC      0.064200
     45 H311       -5.3060    3.3050   -1.1200 ha        1 VSC      0.138000
     46 H301       -7.4090    3.4050   -2.4500 ha        1 VSC      0.134500
     47 H291       -8.9170    1.4200   -2.5600 ha        1 VSC      0.134000
     48 H281       -8.3190   -0.6690   -1.3310 ha        1 VSC      0.134500
     49 H271       -6.2150   -0.7670    0.0140 ha        1 VSC      0.138000
     50 H21        -2.3300   -1.9600   -0.2480 hn        1 VSC      0.340500
     51 H131       -0.8080   -1.5250    2.1370 h1        1 VSC      0.078700
     52 H141       -0.1850   -3.4870   -0.2010 hc        1 VSC      0.080700
     53 H142        0.4790   -3.5140    1.4780 hc        1 VSC      0.080700
     54 H161       -2.3650   -4.3800   -0.6770 ha        1 VSC      0.133000
     55 H201       -1.0620   -3.9430    3.4250 ha        1 VSC      0.133000
     56 H171       -4.3090   -5.7350    0.0870 ha        1 VSC      0.135500
     57 H191       -3.0040   -5.3060    4.1840 ha        1 VSC      0.135500
     58 H181       -4.6320   -6.2020    2.5170 ha        1 VSC      0.135000
     59 H11         0.9850    3.0420    1.2940 hc        1 VSC      0.057700
     60 H12         2.0430    3.2480   -0.1600 hc        1 VSC      0.057700
     61 H91         2.0010    0.8020   -0.6270 h1        1 VSC      0.073700
     62 H321        3.7430    1.9330    0.7010 hc        1 VSC      0.062700
     63 H322        2.8320    1.6510    2.2460 hc        1 VSC      0.062700
     64 H331        3.1620   -0.6920    2.1820 h1        1 VSC      0.146200
     65 H332        3.4190   -0.7280    0.4280 h1        1 VSC      0.146200
     66 H10         0.0130    0.7090    1.5040 hn        1 VSC      0.341500
     67 H21A        0.1990    2.2190   -1.5890 hc        1 VSC      0.055700
     68 H22        -0.8700    2.1800   -0.1270 hc        1 VSC      0.055700
     69 H41         1.2280    4.5020   -2.2430 ha        1 VSC      0.132500
     70 H51         0.5800    6.8720   -2.6620 ha        1 VSC      0.131000
     71 H61        -1.4040    7.8500   -1.5050 ha        1 VSC      0.131000
     72 H71        -2.7390    6.4490    0.0710 ha        1 VSC      0.131000
     73 H81        -2.0960    4.0790    0.4890 ha        1 VSC      0.132500
     74 H371        7.7770   -0.4530   -0.7850 ha        1 VSC      0.155500
     75 H381        7.8970   -0.6100   -3.2830 ha        1 VSC      0.136500
     76 H391        6.0340   -1.6690   -4.5590 ha        1 VSC      0.133000
     77 H401        4.0480   -2.5780   -3.3540 ha        1 VSC      0.136500
     78 H411        3.9150   -2.4410   -0.8650 ha        1 VSC      0.155500
     79 C2         -0.0090    2.7230   -0.6060 c3        1 VSC     -0.042100
@<TRIPOS>BOND
     1    1    2 2   
     2    1    3 1   
     3    1   11 1   
     4    3    4 1   
     5    4    5 1   
     6    4   43 1   
     7    4   44 1   
     8    5    6 ar  
     9    5   10 ar  
    10    6    7 ar  
    11    6   45 1   
    12    7    8 ar  
    13    7   46 1   
    14    8    9 ar  
    15    8   47 1   
    16    9   10 ar  
    17    9   48 1   
    18   10   49 1   
    19   11   12 1   
    20   11   50 1   
    21   12   13 1   
    22   12   15 1   
    23   12   51 1   
    24   13   14 2   
    25   13   30 1   
    26   15   16 1   
    27   15   52 1   
    28   15   53 1   
    29   16   17 ar  
    30   16   18 ar  
    31   17   19 ar  
    32   17   54 1   
    33   18   20 ar  
    34   18   55 1   
    35   19   21 ar  
    36   19   56 1   
    37   20   21 ar  
    38   20   57 1   
    39   21   58 1   
    40   22   23 1   
    41   22   59 1   
    42   22   60 1   
    43   22   79 1   
    44   23   24 1   
    45   23   30 1   
    46   23   61 1   
    47   24   25 1   
    48   24   62 1   
    49   24   63 1   
    50   25   26 1   
    51   25   64 1   
    52   25   65 1   
    53   26   27 2   
    54   26   28 2   
    55   26   29 1   
    56   29   37 1   
    57   30   66 1   
    58   31   32 ar  
    59   31   36 ar  
    60   31   79 1   
    61   32   33 ar  
    62   32   69 1   
    63   33   34 ar  
    64   33   70 1   
    65   34   35 ar  
    66   34   71 1   
    67   35   36 ar  
    68   35   72 1   
    69   36   73 1   
    70   37   38 ar  
    71   37   42 ar  
    72   38   39 ar  
    73   38   74 1   
    74   39   40 ar  
    75   39   75 1   
    76   40   41 ar  
    77   40   76 1   
    78   41   42 ar  
    79   41   77 1   
    80   42   78 1   
    81   67   79 1   
    82   68   79 1   
@<TRIPOS>SUBSTRUCTURE
     1 VSC         1 TEMP              0 ****  ****    0 ROOT
