@<TRIPOS>MOLECULE
VSE
   71    76     1     0     0
SMALL
bcc


@<TRIPOS>ATOM
      1 NAK         0.2270   -0.8650   -0.7560 n4        1 VSE     -0.825300
      2 C6          1.6740   -0.6010   -0.6160 ca        1 VSE      0.508200
      3 C5          2.2300   -0.5530    0.6710 ca        1 VSE     -0.281400
      4 CAI         1.7820   -0.6910    2.0270 cc        1 VSE     -0.101400
      5 CAJ         0.4240   -0.9420    2.4550 ca        1 VSE     -0.122800
      6 CAL         0.0670   -2.1910    2.9890 ca        1 VSE     -0.104500
      7 CAM        -1.2340   -2.4390    3.4050 ca        1 VSE     -0.175000
      8 CAN        -2.1990   -1.4180    3.2930 ca        1 VSE      0.152100
      9 OBD        -3.4710   -1.7780    3.6860 os        1 VSE     -0.235200
     10 CBE        -4.4030   -0.7450    3.8500 ca        1 VSE      0.061100
     11 CBF        -5.6000   -0.8600    3.1310 ca        1 VSE     -0.137000
     12 CBG        -6.6150    0.0660    3.3730 ca        1 VSE     -0.112000
     13 CBH        -6.4300    1.0870    4.3060 ca        1 VSE     -0.121000
     14 CBI        -5.2300    1.1890    5.0120 ca        1 VSE     -0.112000
     15 CBJ        -4.2050    0.2710    4.7910 ca        1 VSE     -0.137000
     16 CAO        -1.8540   -0.1620    2.7750 ca        1 VSE     -0.175000
     17 CAP        -0.5440    0.0700    2.3650 ca        1 VSE     -0.104500
     18 CAH         2.9160   -0.5350    2.8380 cd        1 VSE     -0.012100
     19 NAG         4.0580   -0.3040    2.0700 na        1 VSE     -0.137100
     20 C4          3.6870   -0.3040    0.7210 ca        1 VSE      0.469800
     21 N3          4.4380   -0.1230   -0.4000 nb        1 VSE     -0.632000
     22 C2          3.7430   -0.1940   -1.5600 ca        1 VSE      0.662900
     23 N1          2.4090   -0.4220   -1.7420 nb        1 VSE     -0.693000
     24 CAQ         5.4040   -0.0900    2.5880 c3        1 VSE      0.035000
     25 CAV         5.9150   -1.3030    3.3850 c3        1 VSE     -0.087900
     26 CAU         7.3450   -1.0650    3.8250 c3        1 VSE     -0.097400
     27 CAT         7.4310    0.1830    4.7210 c3        1 VSE      0.190500
     28 CAS         6.9220    1.3880    3.9100 c3        1 VSE     -0.097400
     29 CAR         5.4930    1.1720    3.4640 c3        1 VSE     -0.087900
     30 NAW         8.7480    0.3260    5.3310 n3        1 VSE     -0.732600
     31 CAX         9.8150    0.6510    4.3990 c3        1 VSE      0.171300
     32 CAY        11.1930    0.7570    5.0820 c3        1 VSE      0.167800
     33 NAZ        11.1810    1.6480    6.2330 n3        1 VSE     -0.733600
     34 CBC        12.4740    1.7490    6.8710 c3        1 VSE      0.155100
     35 CBA        10.1210    1.3080    7.1710 c3        1 VSE      0.167800
     36 CBB         8.7390    1.2000    6.4960 c3        1 VSE      0.171300
     37 H1         -0.2150   -0.7720    0.1750 hn        1 VSE      0.474133
     38 H2         -0.1960   -0.2000   -1.4140 hn        1 VSE      0.474133
     39 H3          0.8290   -2.9810    3.0870 ha        1 VSE      0.146500
     40 H4         -1.5230   -3.4130    3.8290 ha        1 VSE      0.169500
     41 H5         -5.7370   -1.6810    2.4130 ha        1 VSE      0.149500
     42 H6         -7.5670   -0.0160    2.8270 ha        1 VSE      0.147500
     43 H7         -7.2380    1.8120    4.4910 ha        1 VSE      0.148000
     44 H8         -5.0940    1.9910    5.7530 ha        1 VSE      0.147500
     45 H9         -3.2600    0.3320    5.3490 ha        1 VSE      0.149500
     46 H10        -2.6080    0.6390    2.7190 ha        1 VSE      0.169500
     47 H11        -0.2600    1.0710    2.0040 ha        1 VSE      0.146500
     48 H12         2.9830   -0.5720    3.9320 h4        1 VSE      0.205000
     49 H13         4.3320   -0.0480   -2.4950 h5        1 VSE      0.093100
     50 H14         6.0820    0.0540    1.6930 h1        1 VSE      0.103700
     51 H15         5.2630   -1.4740    4.2810 hc        1 VSE      0.053950
     52 H16         5.8750   -2.2250    2.7490 hc        1 VSE      0.053950
     53 H17         7.7070   -1.9640    4.3890 hc        1 VSE      0.062950
     54 H18         8.0010   -0.9420    2.9240 hc        1 VSE      0.062950
     55 H19         6.7060    0.0250    5.5790 h1        1 VSE      0.054700
     56 H20         6.9690    2.3180    4.5370 hc        1 VSE      0.062950
     57 H21         7.5780    1.5510    3.0150 hc        1 VSE      0.062950
     58 H22         4.8260    1.0630    4.3590 hc        1 VSE      0.053950
     59 H23         5.1460    2.0670    2.8850 hc        1 VSE      0.053950
     60 H25         9.6140    1.6180    3.8520 h1        1 VSE      0.035950
     61 H26         9.8760   -0.1750    3.6360 h1        1 VSE      0.035950
     62 H27        11.9170    1.1770    4.3290 h1        1 VSE      0.041700
     63 H28        11.5410   -0.2810    5.3580 h1        1 VSE      0.041700
     64 H30        12.4120    2.5110    7.6910 h1        1 VSE      0.037033
     65 H31        12.8320    0.7770    7.3110 h1        1 VSE      0.037033
     66 H32        13.2240    2.0950    6.1120 h1        1 VSE      0.037033
     67 H33        10.3340    0.3410    7.7130 h1        1 VSE      0.041700
     68 H34        10.0630    2.1300    7.9380 h1        1 VSE      0.041700
     69 H35         8.3840    2.2400    6.2360 h1        1 VSE      0.035950
     70 H36         8.0250    0.7680    7.2510 h1        1 VSE      0.035950
     71 HAK3        0.0880   -1.8180   -1.1110 hn        1 VSE      0.474133
@<TRIPOS>BOND
     1    1    2 1   
     2    1   37 1   
     3    1   38 1   
     4    1   71 1   
     5    2    3 ar  
     6    2   23 ar  
     7    3    4 1   
     8    3   20 ar  
     9    4    5 1   
    10    4   18 2   
    11    5    6 ar  
    12    5   17 ar  
    13    6    7 ar  
    14    6   39 1   
    15    7    8 ar  
    16    7   40 1   
    17    8    9 1   
    18    8   16 ar  
    19    9   10 1   
    20   10   11 ar  
    21   10   15 ar  
    22   11   12 ar  
    23   11   41 1   
    24   12   13 ar  
    25   12   42 1   
    26   13   14 ar  
    27   13   43 1   
    28   14   15 ar  
    29   14   44 1   
    30   15   45 1   
    31   16   17 ar  
    32   16   46 1   
    33   17   47 1   
    34   18   19 1   
    35   18   48 1   
    36   19   20 1   
    37   19   24 1   
    38   20   21 ar  
    39   21   22 ar  
    40   22   23 ar  
    41   22   49 1   
    42   24   25 1   
    43   24   29 1   
    44   24   50 1   
    45   25   26 1   
    46   25   51 1   
    47   25   52 1   
    48   26   27 1   
    49   26   53 1   
    50   26   54 1   
    51   27   28 1   
    52   27   30 1   
    53   27   55 1   
    54   28   29 1   
    55   28   56 1   
    56   28   57 1   
    57   29   58 1   
    58   29   59 1   
    59   30   31 1   
    60   30   36 1   
    61   31   32 1   
    62   31   60 1   
    63   31   61 1   
    64   32   33 1   
    65   32   62 1   
    66   32   63 1   
    67   33   34 1   
    68   33   35 1   
    69   34   64 1   
    70   34   65 1   
    71   34   66 1   
    72   35   36 1   
    73   35   67 1   
    74   35   68 1   
    75   36   69 1   
    76   36   70 1   
@<TRIPOS>SUBSTRUCTURE
     1 VSE         1 TEMP              0 ****  ****    0 ROOT
