@<TRIPOS>MOLECULE
VSE
   70    75     1     0     0
SMALL
bcc


@<TRIPOS>ATOM
      1 NAK         0.0550   -0.4270   -0.3730 nv        1 VSE     -0.948500
      2 C6          1.4340   -0.3390   -0.3210 ca        1 VSE      0.725200
      3 C5          2.1050   -0.3160    0.9430 ca        1 VSE     -0.361400
      4 CAI         1.7250   -0.4330    2.3290 cc        1 VSE     -0.060400
      5 CAJ         0.3990   -0.5870    2.8830 ca        1 VSE     -0.050800
      6 CAL         0.1110   -1.6750    3.7240 ca        1 VSE     -0.101000
      7 CAM        -1.1520   -1.8280    4.2840 ca        1 VSE     -0.164000
      8 CAN        -2.1400   -0.8690    4.0080 ca        1 VSE      0.109100
      9 OBD        -3.3420   -1.0440    4.6860 os        1 VSE     -0.249200
     10 CBE        -4.4890   -0.5400    4.0760 ca        1 VSE      0.101100
     11 CBF        -4.7420   -0.6780    2.7070 ca        1 VSE     -0.153500
     12 CBG        -5.9660   -0.2460    2.2000 ca        1 VSE     -0.109500
     13 CBH        -6.9230    0.3120    3.0480 ca        1 VSE     -0.146000
     14 CBI        -6.6590    0.4430    4.4120 ca        1 VSE     -0.109500
     15 CBJ        -5.4400    0.0240    4.9400 ca        1 VSE     -0.153500
     16 CAO        -1.8710    0.2240    3.1770 ca        1 VSE     -0.164000
     17 CAP        -0.6030    0.3590    2.6190 ca        1 VSE     -0.101000
     18 CAH         2.9040   -0.3630    3.0780 cd        1 VSE     -0.105100
     19 NAG         4.0130   -0.2020    2.2380 na        1 VSE     -0.158100
     20 C4          3.5530   -0.1660    0.9140 ca        1 VSE      0.473800
     21 N3          4.2750   -0.0310   -0.2450 nb        1 VSE     -0.740000
     22 C2          3.5090   -0.0660   -1.3540 ca        1 VSE      0.678900
     23 N1          2.1610   -0.2200   -1.4790 nb        1 VSE     -0.792000
     24 CAQ         5.3870   -0.0600    2.6700 c3        1 VSE      0.050000
     25 CAV         5.8850   -1.2920    3.4490 c3        1 VSE     -0.089400
     26 CAU         7.3480   -1.1330    3.8010 c3        1 VSE     -0.092900
     27 CAT         7.5550    0.1130    4.6780 c3        1 VSE      0.186500
     28 CAS         7.0680    1.3400    3.8890 c3        1 VSE     -0.092900
     29 CAR         5.6060    1.1990    3.5290 c3        1 VSE     -0.089400
     30 NAW         8.9130    0.1890    5.2120 n3        1 VSE     -0.733600
     31 CAX         9.9400    0.4460    4.2160 c3        1 VSE      0.170800
     32 CAY        11.3600    0.4650    4.8160 c3        1 VSE      0.167800
     33 NAZ        11.4770    1.3520    5.9640 n3        1 VSE     -0.732600
     34 CBC        12.8040    1.3420    6.5360 c3        1 VSE      0.157100
     35 CBA        10.4410    1.1070    6.9570 c3        1 VSE      0.167800
     36 CBB         9.0230    1.0860    6.3540 c3        1 VSE      0.170800
     37 H1         -0.3940   -0.7740    0.4420 hn        1 VSE      0.428800
     38 H2         -0.3720   -0.6260   -1.2470 hn        1 VSE      0.428800
     39 H3          0.8950   -2.4170    3.9370 ha        1 VSE      0.145500
     40 H4         -1.3840   -2.6760    4.9440 ha        1 VSE      0.151500
     41 H5         -3.9820   -1.1210    2.0480 ha        1 VSE      0.148000
     42 H6         -6.1780   -0.3510    1.1250 ha        1 VSE      0.136000
     43 H7         -7.8880    0.6490    2.6410 ha        1 VSE      0.135000
     44 H8         -7.4170    0.8820    5.0790 ha        1 VSE      0.136000
     45 H9         -5.2180    0.1170    6.0120 ha        1 VSE      0.148000
     46 H10        -2.6540    0.9700    2.9740 ha        1 VSE      0.151500
     47 H11        -0.3790    1.2240    1.9750 ha        1 VSE      0.145500
     48 H12         3.0360   -0.4100    4.1610 h4        1 VSE      0.174000
     49 H13         4.0540    0.0380   -2.3170 h5        1 VSE      0.049100
     50 H14         6.0210    0.0410    1.7370 h1        1 VSE      0.095700
     51 H15         5.2780   -1.4230    4.3820 hc        1 VSE      0.051950
     52 H16         5.7550   -2.2140    2.8240 hc        1 VSE      0.051950
     53 H17         7.9540   -1.0480    2.8610 hc        1 VSE      0.052700
     54 H18         7.6970   -2.0470    4.3490 hc        1 VSE      0.052700
     55 H19         6.8750    0.0000    5.5790 h1        1 VSE      0.054700
     56 H20         7.2050    2.2690    4.5000 hc        1 VSE      0.052700
     57 H21         7.6760    1.4570    2.9540 hc        1 VSE      0.052700
     58 H22         4.9860    1.1350    4.4610 hc        1 VSE      0.051950
     59 H23         5.2750    2.1080    2.9620 hc        1 VSE      0.051950
     60 H25         9.9030   -0.3830    3.4550 h1        1 VSE      0.037200
     61 H26         9.7680    1.4230    3.6760 h1        1 VSE      0.037200
     62 H27        11.6580   -0.5930    5.0740 h1        1 VSE      0.036700
     63 H28        12.0640    0.8380    4.0210 h1        1 VSE      0.036700
     64 H30        12.8490    2.1070    7.3560 h1        1 VSE      0.032033
     65 H31        13.5420    1.6210    5.7400 h1        1 VSE      0.032033
     66 H32        13.1000    0.3440    6.9630 h1        1 VSE      0.032033
     67 H33        10.4820    1.9450    7.7080 h1        1 VSE      0.036700
     68 H34        10.6140    0.1380    7.5090 h1        1 VSE      0.036700
     69 H35         8.7300    2.1430    6.0890 h1        1 VSE      0.037200
     70 H36         8.3190    0.7210    7.1530 h1        1 VSE      0.037200
@<TRIPOS>BOND
     1    1    2 1   
     2    1   37 1   
     3    1   38 1   
     4    2    3 ar  
     5    2   23 ar  
     6    3    4 1   
     7    3   20 ar  
     8    4    5 1   
     9    4   18 2   
    10    5    6 ar  
    11    5   17 ar  
    12    6    7 ar  
    13    6   39 1   
    14    7    8 ar  
    15    7   40 1   
    16    8    9 1   
    17    8   16 ar  
    18    9   10 1   
    19   10   11 ar  
    20   10   15 ar  
    21   11   12 ar  
    22   11   41 1   
    23   12   13 ar  
    24   12   42 1   
    25   13   14 ar  
    26   13   43 1   
    27   14   15 ar  
    28   14   44 1   
    29   15   45 1   
    30   16   17 ar  
    31   16   46 1   
    32   17   47 1   
    33   18   19 1   
    34   18   48 1   
    35   19   20 1   
    36   19   24 1   
    37   20   21 ar  
    38   21   22 ar  
    39   22   23 ar  
    40   22   49 1   
    41   24   25 1   
    42   24   29 1   
    43   24   50 1   
    44   25   26 1   
    45   25   51 1   
    46   25   52 1   
    47   26   27 1   
    48   26   53 1   
    49   26   54 1   
    50   27   28 1   
    51   27   30 1   
    52   27   55 1   
    53   28   29 1   
    54   28   56 1   
    55   28   57 1   
    56   29   58 1   
    57   29   59 1   
    58   30   31 1   
    59   30   36 1   
    60   31   32 1   
    61   31   60 1   
    62   31   61 1   
    63   32   33 1   
    64   32   62 1   
    65   32   63 1   
    66   33   34 1   
    67   33   35 1   
    68   34   64 1   
    69   34   65 1   
    70   34   66 1   
    71   35   36 1   
    72   35   67 1   
    73   35   68 1   
    74   36   69 1   
    75   36   70 1   
@<TRIPOS>SUBSTRUCTURE
     1 VSE         1 TEMP              0 ****  ****    0 ROOT
