@<TRIPOS>MOLECULE
VSE
   70    75     1     0     0
SMALL
bcc


@<TRIPOS>ATOM
      1 NAK         0.0620   -0.4340   -0.3790 nh        1 VSE     -0.948500
      2 C6          1.4420   -0.3450   -0.3240 ca        1 VSE      0.725200
      3 C5          2.1100   -0.3200    0.9420 ca        1 VSE     -0.361400
      4 CAI         1.7280   -0.4340    2.3270 cc        1 VSE     -0.060400
      5 CAJ         0.4000   -0.5880    2.8790 ca        1 VSE     -0.050800
      6 CAL         0.1110   -1.6730    3.7210 ca        1 VSE     -0.101000
      7 CAM        -1.1540   -1.8260    4.2790 ca        1 VSE     -0.164000
      8 CAN        -2.1420   -0.8680    3.9990 ca        1 VSE      0.109100
      9 OBD        -3.3450   -1.0420    4.6740 os        1 VSE     -0.249200
     10 CBE        -4.4900   -0.5400    4.0600 ca        1 VSE      0.101100
     11 CBF        -4.7400   -0.6820    2.6900 ca        1 VSE     -0.153500
     12 CBG        -5.9640   -0.2520    2.1790 ca        1 VSE     -0.109500
     13 CBH        -6.9230    0.3070    3.0240 ca        1 VSE     -0.146000
     14 CBI        -6.6630    0.4410    4.3880 ca        1 VSE     -0.109500
     15 CBJ        -5.4450    0.0240    4.9200 ca        1 VSE     -0.153500
     16 CAO        -1.8710    0.2240    3.1660 ca        1 VSE     -0.164000
     17 CAP        -0.6020    0.3570    2.6110 ca        1 VSE     -0.101000
     18 CAH         2.9050   -0.3630    3.0780 cd        1 VSE     -0.105100
     19 NAG         4.0150   -0.2030    2.2400 na        1 VSE     -0.158100
     20 C4          3.5580   -0.1690    0.9160 ca        1 VSE      0.473800
     21 N3          4.2820   -0.0370   -0.2420 nb        1 VSE     -0.740000
     22 C2          3.5180   -0.0750   -1.3530 ca        1 VSE      0.678900
     23 N1          2.1710   -0.2290   -1.4800 nb        1 VSE     -0.792000
     24 CAQ         5.3880   -0.0610    2.6750 c3        1 VSE      0.050000
     25 CAV         5.8840   -1.2910    3.4580 c3        1 VSE     -0.089400
     26 CAU         7.3470   -1.1320    3.8120 c3        1 VSE     -0.092900
     27 CAT         7.5530    0.1170    4.6870 c3        1 VSE      0.186500
     28 CAS         7.0680    1.3420    3.8930 c3        1 VSE     -0.092900
     29 CAR         5.6060    1.2000    3.5310 c3        1 VSE     -0.089400
     30 NAW         8.9100    0.1930    5.2230 n3        1 VSE     -0.733600
     31 CAX         9.9390    0.4460    4.2270 c3        1 VSE      0.170800
     32 CAY        11.3580    0.4660    4.8300 c3        1 VSE      0.167800
     33 NAZ        11.4740    1.3570    5.9760 n3        1 VSE     -0.732600
     34 CBC        12.7990    1.3480    6.5510 c3        1 VSE      0.157100
     35 CBA        10.4360    1.1160    6.9680 c3        1 VSE      0.167800
     36 CBB         9.0190    1.0930    6.3620 c3        1 VSE      0.170800
     37 H1         -0.3630   -0.6350   -1.2530 hn        1 VSE      0.428800
     38 H2         -0.3880   -0.7800    0.4360 hn        1 VSE      0.428800
     39 H3          0.8950   -2.4150    3.9380 ha        1 VSE      0.145500
     40 H4         -1.3870   -2.6720    4.9400 ha        1 VSE      0.151500
     41 H5         -3.9780   -1.1260    2.0340 ha        1 VSE      0.148000
     42 H6         -6.1720   -0.3600    1.1040 ha        1 VSE      0.136000
     43 H7         -7.8860    0.6420    2.6130 ha        1 VSE      0.135000
     44 H8         -7.4220    0.8810    5.0520 ha        1 VSE      0.136000
     45 H9         -5.2260    0.1190    5.9920 ha        1 VSE      0.148000
     46 H10        -2.6540    0.9690    2.9600 ha        1 VSE      0.151500
     47 H11        -0.3770    1.2210    1.9650 ha        1 VSE      0.145500
     48 H12         3.0340   -0.4080    4.1620 h4        1 VSE      0.174000
     49 H13         4.0660    0.0280   -2.3140 h5        1 VSE      0.049100
     50 H14         6.0250    0.0370    1.7430 h1        1 VSE      0.095700
     51 H15         5.2760   -1.4190    4.3910 hc        1 VSE      0.051950
     52 H16         5.7550   -2.2150    2.8360 hc        1 VSE      0.051950
     53 H17         7.9540   -1.0500    2.8730 hc        1 VSE      0.052700
     54 H18         7.6940   -2.0450    4.3640 hc        1 VSE      0.052700
     55 H19         6.8720    0.0060    5.5870 h1        1 VSE      0.054700
     56 H20         7.6780    1.4560    2.9590 hc        1 VSE      0.052700
     57 H21         7.2040    2.2720    4.5030 hc        1 VSE      0.052700
     58 H22         5.2770    2.1080    2.9610 hc        1 VSE      0.051950
     59 H23         4.9850    1.1390    4.4630 hc        1 VSE      0.051950
     60 H25         9.7690    1.4210    3.6850 h1        1 VSE      0.037200
     61 H26         9.9020   -0.3850    3.4690 h1        1 VSE      0.037200
     62 H27        12.0630    0.8360    4.0350 h1        1 VSE      0.036700
     63 H28        11.6550   -0.5920    5.0920 h1        1 VSE      0.036700
     64 H30        13.5390    1.6240    5.7540 h1        1 VSE      0.032033
     65 H31        13.0940    0.3510    6.9810 h1        1 VSE      0.032033
     66 H32        12.8440    2.1150    7.3670 h1        1 VSE      0.032033
     67 H33        10.4750    1.9550    7.7160 h1        1 VSE      0.036700
     68 H34        10.6060    0.1470    7.5230 h1        1 VSE      0.036700
     69 H35         8.3130    0.7310    7.1610 h1        1 VSE      0.037200
     70 H36         8.7260    2.1500    6.0930 h1        1 VSE      0.037200
@<TRIPOS>BOND
     1    1    2 1   
     2    1   37 1   
     3    1   38 1   
     4    2    3 ar  
     5    2   23 ar  
     6    3    4 1   
     7    3   20 ar  
     8    4    5 1   
     9    4   18 2   
    10    5    6 ar  
    11    5   17 ar  
    12    6    7 ar  
    13    6   39 1   
    14    7    8 ar  
    15    7   40 1   
    16    8    9 1   
    17    8   16 ar  
    18    9   10 1   
    19   10   11 ar  
    20   10   15 ar  
    21   11   12 ar  
    22   11   41 1   
    23   12   13 ar  
    24   12   42 1   
    25   13   14 ar  
    26   13   43 1   
    27   14   15 ar  
    28   14   44 1   
    29   15   45 1   
    30   16   17 ar  
    31   16   46 1   
    32   17   47 1   
    33   18   19 1   
    34   18   48 1   
    35   19   20 1   
    36   19   24 1   
    37   20   21 ar  
    38   21   22 ar  
    39   22   23 ar  
    40   22   49 1   
    41   24   25 1   
    42   24   29 1   
    43   24   50 1   
    44   25   26 1   
    45   25   51 1   
    46   25   52 1   
    47   26   27 1   
    48   26   53 1   
    49   26   54 1   
    50   27   28 1   
    51   27   30 1   
    52   27   55 1   
    53   28   29 1   
    54   28   56 1   
    55   28   57 1   
    56   29   58 1   
    57   29   59 1   
    58   30   31 1   
    59   30   36 1   
    60   31   32 1   
    61   31   60 1   
    62   31   61 1   
    63   32   33 1   
    64   32   62 1   
    65   32   63 1   
    66   33   34 1   
    67   33   35 1   
    68   34   64 1   
    69   34   65 1   
    70   34   66 1   
    71   35   36 1   
    72   35   67 1   
    73   35   68 1   
    74   36   69 1   
    75   36   70 1   
@<TRIPOS>SUBSTRUCTURE
     1 VSE         1 TEMP              0 ****  ****    0 ROOT
