@<TRIPOS>MOLECULE
VSE
   70    75     1     0     0
SMALL
bcc


@<TRIPOS>ATOM
      1 NAK         3.2540    3.2130    0.1270 nh        1 VSE     -0.948500
      2 C6          1.8780    3.3550    0.1270 ca        1 VSE      0.725200
      3 C5          1.0370    2.1990    0.1960 ca        1 VSE     -0.361400
      4 CAI         1.2260    0.7770    0.3440 cc        1 VSE     -0.060400
      5 CAJ         2.4700    0.0450    0.4370 ca        1 VSE     -0.050800
      6 CAL         2.7090   -0.7940    1.5370 ca        1 VSE     -0.101000
      7 CAM         3.8890   -1.5240    1.6340 ca        1 VSE     -0.164000
      8 CAN         4.8390   -1.4210    0.6060 ca        1 VSE      0.109100
      9 OBD         5.9430   -2.2560    0.7330 os        1 VSE     -0.249200
     10 CBE         7.1280   -1.8320    0.1350 ca        1 VSE      0.101100
     11 CBF         7.5790   -0.5080    0.2030 ca        1 VSE     -0.153500
     12 CBG         8.8310   -0.1950   -0.3240 ca        1 VSE     -0.109500
     13 CBH         9.6200   -1.1870   -0.9060 ca        1 VSE     -0.146000
     14 CBI         9.1590   -2.5030   -0.9660 ca        1 VSE     -0.109500
     15 CBJ         7.9090   -2.8390   -0.4520 ca        1 VSE     -0.153500
     16 CAO         4.6170   -0.5930   -0.5010 ca        1 VSE     -0.164000
     17 CAP         3.4330    0.1350   -0.5780 ca        1 VSE     -0.101000
     18 CAH        -0.0480    0.2020    0.3770 cd        1 VSE     -0.105100
     19 NAG        -1.0360    1.1860    0.2510 na        1 VSE     -0.158100
     20 C4         -0.3990    2.4280    0.1340 ca        1 VSE      0.473800
     21 N3         -0.9600    3.6740   -0.0020 nb        1 VSE     -0.740000
     22 C2         -0.0450    4.6630   -0.0580 ca        1 VSE      0.678900
     23 N1          1.3140    4.6000    0.0080 nb        1 VSE     -0.792000
     24 CAQ        -2.4640    0.9490    0.2110 c3        1 VSE      0.050000
     25 CAV        -2.9830    0.2820    1.4990 c3        1 VSE     -0.089400
     26 CAU        -4.4880    0.1370    1.4450 c3        1 VSE     -0.092900
     27 CAT        -4.8980   -0.7360    0.2470 c3        1 VSE      0.186500
     28 CAS        -4.3880   -0.0570   -1.0360 c3        1 VSE     -0.092900
     29 CAR        -2.8840    0.0950   -1.0000 c3        1 VSE     -0.089400
     30 NAW        -6.3190   -1.0740    0.2760 n3        1 VSE     -0.733600
     31 CAX        -7.2120    0.0510    0.0480 c3        1 VSE      0.170800
     32 CAY        -8.6990   -0.3430    0.1390 c3        1 VSE      0.167800
     33 NAZ        -9.0350   -1.4860   -0.6980 n3        1 VSE     -0.732600
     34 CBC       -10.4250   -1.8650   -0.5840 c3        1 VSE      0.157100
     35 CBA        -8.1340   -2.6090   -0.4830 c3        1 VSE      0.167800
     36 CBB        -6.6470   -2.2120   -0.5710 c3        1 VSE      0.170800
     37 H1          3.6070    2.3530    0.4780 hn        1 VSE      0.428800
     38 H2          3.8120    4.0230    0.2650 hn        1 VSE      0.428800
     39 H3          1.9540   -0.8710    2.3340 ha        1 VSE      0.145500
     40 H4          4.0820   -2.1840    2.4920 ha        1 VSE      0.151500
     41 H5          6.9500    0.2650    0.6650 ha        1 VSE      0.148000
     42 H6          9.1970    0.8420   -0.2750 ha        1 VSE      0.136000
     43 H7         10.6070   -0.9320   -1.3180 ha        1 VSE      0.135000
     44 H8          9.7850   -3.2840   -1.4250 ha        1 VSE      0.136000
     45 H9          7.5340   -3.8710   -0.4880 ha        1 VSE      0.148000
     46 H10         5.3690   -0.5270   -1.3010 ha        1 VSE      0.151500
     47 H11         3.2440    0.7780   -1.4530 ha        1 VSE      0.145500
     48 H12        -0.3260   -0.8500    0.4740 h4        1 VSE      0.174000
     49 H13        -0.4560    5.6900   -0.1660 h5        1 VSE      0.049100
     50 H14        -2.9670    1.9590    0.1160 h1        1 VSE      0.095700
     51 H15        -2.5040   -0.7240    1.6270 hc        1 VSE      0.051950
     52 H16        -2.7050    0.9070    2.3880 hc        1 VSE      0.051950
     53 H17        -4.8470   -0.3310    2.3980 hc        1 VSE      0.052700
     54 H18        -4.9600    1.1510    1.3630 hc        1 VSE      0.052700
     55 H19        -4.3440   -1.7200    0.3490 h1        1 VSE      0.054700
     56 H20        -4.6710   -0.6680   -1.9320 hc        1 VSE      0.052700
     57 H21        -4.8670    0.9510   -1.1490 hc        1 VSE      0.052700
     58 H22        -2.5380    0.5850   -1.9470 hc        1 VSE      0.051950
     59 H23        -2.3980   -0.9130   -0.9410 hc        1 VSE      0.051950
     60 H25        -7.0130    0.8200    0.8440 h1        1 VSE      0.037200
     61 H26        -7.0320    0.5340   -0.9570 h1        1 VSE      0.037200
     62 H27        -8.9590   -0.5280    1.2220 h1        1 VSE      0.036700
     63 H28        -9.3090    0.5330   -0.2180 h1        1 VSE      0.036700
     64 H30       -11.0620   -0.9790   -0.8450 h1        1 VSE      0.032033
     65 H31       -10.6350   -2.6890   -1.3150 h1        1 VSE      0.032033
     66 H32       -10.7100   -2.2180    0.4450 h1        1 VSE      0.032033
     67 H33        -8.3160   -3.1050    0.5150 h1        1 VSE      0.036700
     68 H34        -8.3350   -3.3690   -1.2880 h1        1 VSE      0.036700
     69 H35        -6.3910   -2.0200   -1.6540 h1        1 VSE      0.037200
     70 H36        -6.0390   -3.0930   -0.2230 h1        1 VSE      0.037200
@<TRIPOS>BOND
     1    1    2 1   
     2    1   37 1   
     3    1   38 1   
     4    2    3 ar  
     5    2   23 ar  
     6    3    4 1   
     7    3   20 ar  
     8    4    5 1   
     9    4   18 2   
    10    5    6 ar  
    11    5   17 ar  
    12    6    7 ar  
    13    6   39 1   
    14    7    8 ar  
    15    7   40 1   
    16    8    9 1   
    17    8   16 ar  
    18    9   10 1   
    19   10   11 ar  
    20   10   15 ar  
    21   11   12 ar  
    22   11   41 1   
    23   12   13 ar  
    24   12   42 1   
    25   13   14 ar  
    26   13   43 1   
    27   14   15 ar  
    28   14   44 1   
    29   15   45 1   
    30   16   17 ar  
    31   16   46 1   
    32   17   47 1   
    33   18   19 1   
    34   18   48 1   
    35   19   20 1   
    36   19   24 1   
    37   20   21 ar  
    38   21   22 ar  
    39   22   23 ar  
    40   22   49 1   
    41   24   25 1   
    42   24   29 1   
    43   24   50 1   
    44   25   26 1   
    45   25   51 1   
    46   25   52 1   
    47   26   27 1   
    48   26   53 1   
    49   26   54 1   
    50   27   28 1   
    51   27   30 1   
    52   27   55 1   
    53   28   29 1   
    54   28   56 1   
    55   28   57 1   
    56   29   58 1   
    57   29   59 1   
    58   30   31 1   
    59   30   36 1   
    60   31   32 1   
    61   31   60 1   
    62   31   61 1   
    63   32   33 1   
    64   32   62 1   
    65   32   63 1   
    66   33   34 1   
    67   33   35 1   
    68   34   64 1   
    69   34   65 1   
    70   34   66 1   
    71   35   36 1   
    72   35   67 1   
    73   35   68 1   
    74   36   69 1   
    75   36   70 1   
@<TRIPOS>SUBSTRUCTURE
     1 VSE         1 TEMP              0 ****  ****    0 ROOT
