@<TRIPOS>MOLECULE
VSE
   70    63     1     0     0
SMALL
bcc


@<TRIPOS>ATOM
      1 NAK        -5.3070   -0.0330   -3.1920 n3        1 VSE     -0.346000
      2 C6         -3.8290    0.0250   -3.0290 c1        1 VSE      0.207000
      3 C5         -2.7100    0.0240   -2.1920 c1        1 VSE     -0.220000
      4 CAI        -2.5810    0.0420   -0.8290 c1        1 VSE     -0.084000
      5 CAJ        -3.7410    0.0600    0.2270 c1        1 VSE     -0.036000
      6 CAL        -4.2830    1.2850    0.6500 c2        1 VSE     -0.106000
      7 CAM        -5.3110    1.3050    1.5690 c1        1 VSE     -0.146000
      8 CAN        -5.8040    0.1380    2.0680 c1        1 VSE      0.062000
      9 OBD        -6.9460    0.1580    2.8950 o         1 VSE     -0.159000
     10 CBE        -6.5280    0.2780    4.3180 c2        1 VSE      0.057000
     11 CBF        -6.1800    1.5170    4.8360 c2        1 VSE     -0.171000
     12 CBG        -5.8550    1.6430    6.1700 c1        1 VSE     -0.108000
     13 CBH        -5.8750    0.5180    7.0070 c1        1 VSE     -0.129000
     14 CBI        -6.2260   -0.7340    6.4870 c1        1 VSE     -0.129000
     15 CBJ        -6.5490   -0.8570    5.1580 c1        1 VSE     -0.140000
     16 CAO        -5.2510   -1.1130    1.6370 c1        1 VSE     -0.177000
     17 CAP        -4.2380   -1.1300    0.7320 c1        1 VSE     -0.099000
     18 CAH        -1.2180    0.1030   -0.5270 c1        1 VSE     -0.080000
     19 NAG        -0.5450    0.1220   -1.6700 n2        1 VSE     -0.141000
     20 C4         -1.4730    0.0730   -2.7250 c1        1 VSE      0.083000
     21 N3         -1.3150    0.1240   -4.0970 n1        1 VSE     -0.215000
     22 C2         -2.4270    0.1240   -4.9230 c1        1 VSE      0.016000
     23 N1         -3.6680    0.0750   -4.3910 n1        1 VSE     -0.267000
     24 CAQ         0.8360    0.0450   -1.9870 c2        1 VSE      0.031000
     25 CAV         1.3630   -1.2700   -1.5200 c3        1 VSE     -0.170500
     26 CAU         2.8740   -1.3640   -1.6430 c3        1 VSE     -0.158000
     27 CAT         3.5710   -0.2190   -1.0000 c3        1 VSE     -0.008000
     28 CAS         3.0410    1.1130   -1.4690 c3        1 VSE     -0.158000
     29 CAR         1.5460    1.2080   -1.3430 c3        1 VSE     -0.170500
     30 NAW         5.0200   -0.3030   -1.3030 n3        1 VSE     -0.261000
     31 CAX         5.6340    0.9170   -0.9990 c3        1 VSE     -0.064500
     32 CAY         7.1690    0.8520   -1.1430 c3        1 VSE     -0.069500
     33 NAZ         7.7290   -0.2200   -0.4370 n3        1 VSE     -0.258000
     34 CBC         9.1300   -0.3050   -0.7370 c3        1 VSE     -0.119000
     35 CBA         7.1070   -1.4570   -0.7370 c3        1 VSE     -0.069500
     36 CBB         5.5910   -1.3940   -0.5860 c3        1 VSE     -0.064500
     37 H1         -5.6890   -0.0110   -4.0540 hn        1 VSE      0.226500
     38 H2         -5.8500   -0.0910   -2.4500 hn        1 VSE      0.226500
     39 H3         -3.9270    2.1310    0.2870 ha        1 VSE      0.152000
     40 H4         -5.6740    2.1260    1.8520 ha        1 VSE      0.153000
     41 H5         -6.1640    2.3180    4.2410 ha        1 VSE      0.148000
     42 H6         -5.6050    2.5330    6.5390 ha        1 VSE      0.135000
     43 H7         -5.6320    0.6120    8.0050 ha        1 VSE      0.135500
     44 H8         -6.2410   -1.5370    7.0840 ha        1 VSE      0.135500
     45 H9         -6.7960   -1.7370    4.7900 ha        1 VSE      0.150000
     46 H10        -5.6320   -2.0230    2.0220 ha        1 VSE      0.150000
     47 H11        -3.8930   -1.9080    0.4620 ha        1 VSE      0.140000
     48 H12        -0.8290    0.1320    0.3620 DU        1 VSE      0.172000
     49 H13        -2.3020    0.1640   -5.9810 ha        1 VSE      0.186000
     50 H14         0.9500    0.1060   -3.0220 ha        1 VSE      0.137000
     51 H15         1.0950   -1.4050   -0.5090 hc        1 VSE      0.091250
     52 H16         0.9380   -2.0130   -2.0790 hc        1 VSE      0.091250
     53 H17         3.1620   -2.1540   -1.2410 hc        1 VSE      0.093250
     54 H18         3.1170   -1.3880   -2.6090 hc        1 VSE      0.093250
     55 H19         3.4510   -0.2810   -0.0520 h1        1 VSE      0.064000
     56 H20         3.2970    1.2430   -2.4320 hc        1 VSE      0.093250
     57 H21         3.4520    1.8250   -0.9320 hc        1 VSE      0.093250
     58 H22         1.3300    1.2300   -0.4630 hc        1 VSE      0.091250
     59 H23         1.2400    2.0520   -1.7710 hc        1 VSE      0.091250
     60 H25         5.4060    1.1670   -0.0620 h1        1 VSE      0.075500
     61 H26         5.2970    1.5880   -1.5900 h1        1 VSE      0.075500
     62 H27         7.4110    0.7560   -2.1540 h1        1 VSE      0.076500
     63 H28         7.5400    1.6630   -0.8140 h1        1 VSE      0.076500
     64 H30         9.6050    0.5670   -0.4230 h1        1 VSE      0.071667
     65 H31         9.5580   -1.1540   -0.2260 h1        1 VSE      0.071667
     66 H32         9.2500   -0.4120   -1.7000 h1        1 VSE      0.071667
     67 H33         7.3370   -1.7240   -1.7230 h1        1 VSE      0.076500
     68 H34         7.4830   -2.1860   -0.0880 h1        1 VSE      0.076500
     69 H35         5.1990   -2.2410   -0.9220 h1        1 VSE      0.075500
     70 H36         5.3680   -1.2970    0.3820 h1        1 VSE      0.075500
@<TRIPOS>BOND
     1    1    2 1   
     2    1   37 1   
     3    1   38 1   
     4    2    3 1   
     5    4   18 1   
     6    5    6 1   
     7    5   17 1   
     8    6    7 1   
     9    6   39 1   
    10    7   40 1   
    11    8   16 1   
    12    9   10 1   
    13   10   11 1   
    14   10   15 1   
    15   11   12 1   
    16   11   41 1   
    17   12   42 1   
    18   13   14 1   
    19   13   43 1   
    20   14   44 1   
    21   15   45 1   
    22   16   46 1   
    23   17   47 1   
    24   18   19 1   
    25   19   20 1   
    26   20   21 1   
    27   22   23 1   
    28   22   49 1   
    29   24   25 1   
    30   24   29 1   
    31   24   50 1   
    32   25   26 1   
    33   25   51 1   
    34   25   52 1   
    35   26   27 1   
    36   26   53 1   
    37   26   54 1   
    38   27   28 1   
    39   27   30 1   
    40   27   55 1   
    41   28   29 1   
    42   28   56 1   
    43   28   57 1   
    44   29   58 1   
    45   29   59 1   
    46   30   31 1   
    47   30   36 1   
    48   31   32 1   
    49   31   60 1   
    50   31   61 1   
    51   32   33 1   
    52   32   62 1   
    53   32   63 1   
    54   33   34 1   
    55   33   35 1   
    56   34   64 1   
    57   34   65 1   
    58   34   66 1   
    59   35   36 1   
    60   35   67 1   
    61   35   68 1   
    62   36   69 1   
    63   36   70 1   
@<TRIPOS>SUBSTRUCTURE
     1 VSE         1 TEMP              0 ****  ****    0 ROOT
