@<TRIPOS>MOLECULE
VSF
   51    42     1     0     0
SMALL
bcc


@<TRIPOS>ATOM
      1 NAK        -3.2640   -0.1120    3.1560 n3        1 VSF     -0.347000
      2 C6         -1.8180   -0.0980    3.2110 c1        1 VSF      0.209000
      3 N1         -1.8170   -0.1440    4.5550 n1        1 VSF     -0.267000
      4 C2         -0.6240   -0.1450    5.2440 c1        1 VSF      0.018000
      5 N3          0.5730   -0.1010    4.5570 n1        1 VSF     -0.218000
      6 C4          0.5770   -0.0550    3.1950 c1        1 VSF      0.083000
      7 C5         -0.6040   -0.0530    2.5100 c1        1 VSF     -0.221000
      8 NAG         1.6140   -0.0050    2.2660 n1        1 VSF     -0.143000
      9 CAQ         3.0180    0.1340    2.7610 c2        1 VSF      0.034000
     10 CAV         3.6300    1.3250    2.1360 c3        1 VSF     -0.206500
     11 CAU         5.1170    1.4360    2.4370 c3        1 VSF     -0.024000
     12 OAT         5.8410    0.2110    2.1300 os        1 VSF     -0.270000
     13 CAS         5.2380   -0.9790    2.7480 c3        1 VSF     -0.024000
     14 CAR         3.7580   -1.1010    2.4490 c3        1 VSF     -0.206500
     15 CAH         1.0630    0.0280    1.0190 c1        1 VSF     -0.080000
     16 CAI        -0.3130   -0.0020    1.1590 c1        1 VSF     -0.082000
     17 CAJ        -1.2260    0.0190   -0.0710 c1        1 VSF     -0.038000
     18 CAL        -1.6150   -1.1700   -0.6630 c2        1 VSF     -0.098000
     19 CAM        -2.4750   -1.1530   -1.7570 c1        1 VSF     -0.177000
     20 CAN        -2.9430    0.0570   -2.2550 c1        1 VSF      0.063000
     21 CAO        -2.5520    1.2480   -1.6610 c1        1 VSF     -0.147000
     22 CAP        -1.6930    1.2310   -0.5680 c1        1 VSF     -0.106000
     23 OBD        -3.9100    0.0690   -3.3070 o         1 VSF     -0.159000
     24 CBE        -3.2450   -0.0530   -4.5680 c2        1 VSF      0.056000
     25 CBJ        -3.0590   -1.3080   -5.1330 c2        1 VSF     -0.140000
     26 CBI        -2.5510   -1.4220   -6.4140 c1        1 VSF     -0.110000
     27 CBH        -2.2280   -0.2840   -7.1340 c1        1 VSF     -0.127500
     28 CBG        -2.4140    0.9690   -6.5710 c1        1 VSF     -0.127500
     29 CBF        -2.9220    1.0830   -5.2880 c1        1 VSF     -0.170000
     30 H1         -3.7030   -0.8290    2.7830 hn        1 VSF      0.227500
     31 H2         -3.7460    0.5970    3.5000 hn        1 VSF      0.227500
     32 H3         -0.6250   -0.1790    6.2280 ha        1 VSF      0.186000
     33 H4          3.0030    0.2580    3.7330 ha        1 VSF      0.134000
     34 H5          3.5050    1.2730    1.1670 hc        1 VSF      0.101500
     35 H6          3.1790    2.1240    2.4700 hc        1 VSF      0.101500
     36 H7          5.4950    2.1700    1.9020 h1        1 VSF      0.092750
     37 H8          5.2340    1.6440    3.3870 h1        1 VSF      0.092750
     38 H9          5.3620   -0.9290    3.7210 h1        1 VSF      0.092750
     39 H10         5.6990   -1.7830    2.4080 h1        1 VSF      0.092750
     40 H11         3.6420   -1.3090    1.4940 hc        1 VSF      0.101500
     41 H12         3.3870   -1.8360    2.9810 hc        1 VSF      0.101500
     42 H13         1.5580    0.0590    0.1680 DU        1 VSF      0.174000
     43 H14        -1.2830   -2.0290   -0.3090 ha        1 VSF      0.140000
     44 H15        -2.7510   -1.9950   -2.1760 ha        1 VSF      0.150000
     45 H16        -2.8830    2.1060   -2.0130 ha        1 VSF      0.154000
     46 H17        -1.4150    2.0770   -0.1470 ha        1 VSF      0.151000
     47 H18        -3.2840   -2.1050   -4.6280 ha        1 VSF      0.150000
     48 H19        -2.4210   -2.3060   -6.8110 ha        1 VSF      0.136000
     49 H20        -1.8720   -0.3650   -8.0340 ha        1 VSF      0.135000
     50 H21        -2.1860    1.7700   -7.0770 ha        1 VSF      0.135000
     51 H22        -3.0520    1.9620   -4.8930 ha        1 VSF      0.148000
@<TRIPOS>BOND
     1    1    2 1   
     2    1   30 1   
     3    1   31 1   
     4    2    7 1   
     5    3    4 1   
     6    4   32 1   
     7    5    6 1   
     8    8   15 1   
     9    9   10 1   
    10    9   14 1   
    11    9   33 1   
    12   10   11 1   
    13   10   34 1   
    14   10   35 1   
    15   11   12 1   
    16   11   36 1   
    17   11   37 1   
    18   12   13 1   
    19   13   14 1   
    20   13   38 1   
    21   13   39 1   
    22   14   40 1   
    23   14   41 1   
    24   15   16 1   
    25   17   18 1   
    26   17   22 1   
    27   18   19 1   
    28   18   43 1   
    29   19   44 1   
    30   20   21 1   
    31   21   45 1   
    32   22   46 1   
    33   23   24 1   
    34   24   25 1   
    35   24   29 1   
    36   25   26 1   
    37   25   47 1   
    38   26   48 1   
    39   27   28 1   
    40   27   49 1   
    41   28   50 1   
    42   29   51 1   
@<TRIPOS>SUBSTRUCTURE
     1 VSF         1 TEMP              0 ****  ****    0 ROOT
