@<TRIPOS>MOLECULE
VSF
   51    55     1     0     0
SMALL
bcc


@<TRIPOS>ATOM
      1 NAK         0.2230    0.5240    0.3160 nh        1 VSF     -0.948500
      2 C6          1.5920    0.3700    0.1980 ca        1 VSF      0.727200
      3 N1          2.3730    0.2730    1.3220 nb        1 VSF     -0.792000
      4 C2          3.7040    0.0520    1.1370 ca        1 VSF      0.679900
      5 N3          4.4090   -0.0700   -0.0070 nb        1 VSF     -0.743000
      6 C4          3.6320    0.0430   -1.1330 ca        1 VSF      0.473800
      7 C5          2.1930    0.2580   -1.0960 ca        1 VSF     -0.361400
      8 NAG         4.0230   -0.0060   -2.4780 na        1 VSF     -0.159100
      9 CAQ         5.3640   -0.2250   -2.9700 c3        1 VSF      0.054000
     10 CAV         5.8840    0.9510   -3.8170 c3        1 VSF     -0.127900
     11 CAU         7.3000    0.6580   -4.2800 c3        1 VSF      0.126400
     12 OAT         7.3790   -0.5570   -5.0160 os        1 VSF     -0.412600
     13 CAS         6.9250   -1.6810   -4.2690 c3        1 VSF      0.126400
     14 CAR         5.4890   -1.5120   -3.8040 c3        1 VSF     -0.127900
     15 CAH         2.8800    0.1670   -3.2690 cc        1 VSF     -0.105100
     16 CAI         1.7470    0.3270   -2.4660 cd        1 VSF     -0.058400
     17 CAJ         0.4000    0.5150   -2.9580 ca        1 VSF     -0.052800
     18 CAL         0.1150    1.5750   -3.8330 ca        1 VSF     -0.100000
     19 CAM        -1.1690    1.7600   -4.3340 ca        1 VSF     -0.164500
     20 CAN        -2.1810    0.8600   -3.9640 ca        1 VSF      0.111100
     21 CAO        -1.9150   -0.2060   -3.0970 ca        1 VSF     -0.164500
     22 CAP        -0.6250   -0.3720   -2.5990 ca        1 VSF     -0.100000
     23 OBD        -3.4080    1.0600   -4.5850 os        1 VSF     -0.249200
     24 CBE        -4.5400    0.6210   -3.9020 ca        1 VSF      0.100100
     25 CBJ        -4.7240    0.8290   -2.5290 ca        1 VSF     -0.152500
     26 CBI        -5.9360    0.4610   -1.9480 ca        1 VSF     -0.110000
     27 CBH        -6.9490   -0.1010   -2.7250 ca        1 VSF     -0.145000
     28 CBG        -6.7550   -0.3010   -4.0930 ca        1 VSF     -0.110000
     29 CBF        -5.5490    0.0520   -4.6940 ca        1 VSF     -0.152500
     30 H1         -0.1510    0.7790    1.1990 hn        1 VSF      0.429800
     31 H2         -0.2560    0.8460   -0.4930 hn        1 VSF      0.429800
     32 H3          4.2950   -0.0310    2.0750 h5        1 VSF      0.049100
     33 H4          6.0400   -0.3280   -2.0660 h1        1 VSF      0.094700
     34 H5          5.2210    1.1020   -4.7070 hc        1 VSF      0.061950
     35 H6          5.8810    1.8950   -3.2150 hc        1 VSF      0.061950
     36 H7          7.9990    0.6120   -3.4030 h1        1 VSF      0.053450
     37 H8          7.6520    1.4380   -5.0060 h1        1 VSF      0.053450
     38 H9          7.6050   -1.8480   -3.3920 h1        1 VSF      0.053450
     39 H10         7.0130   -2.5380   -4.9880 h1        1 VSF      0.053450
     40 H11         4.8100   -1.4570   -4.6940 hc        1 VSF      0.061950
     41 H12         5.1920   -2.4020   -3.1930 hc        1 VSF      0.061950
     42 H13         2.9560    0.1570   -4.3580 h4        1 VSF      0.175000
     43 H14         0.9170    2.2710   -4.1210 ha        1 VSF      0.145500
     44 H15        -1.3990    2.5870   -5.0210 ha        1 VSF      0.152000
     45 H16        -2.7160   -0.9070   -2.8200 ha        1 VSF      0.152000
     46 H17        -0.4050   -1.2170   -1.9270 ha        1 VSF      0.145500
     47 H18        -3.9200    1.2740   -1.9270 ha        1 VSF      0.147500
     48 H19        -6.0930    0.6210   -0.8710 ha        1 VSF      0.136000
     49 H20        -7.9040   -0.3870   -2.2590 ha        1 VSF      0.135000
     50 H21        -7.5560   -0.7440   -4.7030 ha        1 VSF      0.136000
     51 H22        -5.3810   -0.0950   -5.7700 ha        1 VSF      0.147500
@<TRIPOS>BOND
     1    1    2 1   
     2    1   30 1   
     3    1   31 1   
     4    2    3 ar  
     5    2    7 ar  
     6    3    4 ar  
     7    4    5 ar  
     8    4   32 1   
     9    5    6 ar  
    10    6    7 ar  
    11    6    8 1   
    12    7   16 1   
    13    8    9 1   
    14    8   15 1   
    15    9   10 1   
    16    9   14 1   
    17    9   33 1   
    18   10   11 1   
    19   10   34 1   
    20   10   35 1   
    21   11   12 1   
    22   11   36 1   
    23   11   37 1   
    24   12   13 1   
    25   13   14 1   
    26   13   38 1   
    27   13   39 1   
    28   14   40 1   
    29   14   41 1   
    30   15   16 2   
    31   15   42 1   
    32   16   17 1   
    33   17   18 ar  
    34   17   22 ar  
    35   18   19 ar  
    36   18   43 1   
    37   19   20 ar  
    38   19   44 1   
    39   20   21 ar  
    40   20   23 1   
    41   21   22 ar  
    42   21   45 1   
    43   22   46 1   
    44   23   24 1   
    45   24   25 ar  
    46   24   29 ar  
    47   25   26 ar  
    48   25   47 1   
    49   26   27 ar  
    50   26   48 1   
    51   27   28 ar  
    52   27   49 1   
    53   28   29 ar  
    54   28   50 1   
    55   29   51 1   
@<TRIPOS>SUBSTRUCTURE
     1 VSF         1 TEMP              0 ****  ****    0 ROOT
