@<TRIPOS>MOLECULE
VSF
   51    55     1     0     0
SMALL
bcc


@<TRIPOS>ATOM
      1 NAK         0.5040    3.0330    0.3670 nh        1 VSF     -0.948500
      2 C6         -0.8650    2.8550    0.2800 ca        1 VSF      0.727200
      3 N1         -1.6980    3.9440    0.2250 nb        1 VSF     -0.792000
      4 C2         -3.0290    3.7010    0.0690 ca        1 VSF      0.679900
      5 N3         -3.6880    2.5280   -0.0220 nb        1 VSF     -0.743000
      6 C4         -2.8580    1.4370    0.0490 ca        1 VSF      0.473800
      7 C5         -1.4140    1.5360    0.1930 ca        1 VSF     -0.361400
      8 NAG        -3.1920    0.0760    0.0160 na        1 VSF     -0.159100
      9 CAQ        -4.5200   -0.4740   -0.1380 c3        1 VSF      0.054000
     10 CAV        -4.9430   -1.3450    1.0590 c3        1 VSF     -0.127900
     11 CAU        -6.3510   -1.8700    0.8340 c3        1 VSF      0.126400
     12 OAT        -6.4560   -2.6070   -0.3790 os        1 VSF     -0.412600
     13 CAS        -6.0910   -1.8400   -1.5200 c3        1 VSF      0.126400
     14 CAR        -4.6710   -1.3120   -1.4210 c3        1 VSF     -0.127900
     15 CAH        -2.0080   -0.6640    0.1310 cc        1 VSF     -0.105100
     16 CAI        -0.9050    0.1880    0.2360 cd        1 VSF     -0.058400
     17 CAJ         0.4700   -0.2450    0.3570 ca        1 VSF     -0.052800
     18 CAL         0.8450   -1.1080    1.3990 ca        1 VSF     -0.100000
     19 CAM         2.1570   -1.5520    1.5190 ca        1 VSF     -0.164500
     20 CAN         3.1060   -1.1370    0.5710 ca        1 VSF      0.111100
     21 CAO         2.7500   -0.2820   -0.4780 ca        1 VSF     -0.164500
     22 CAP         1.4330    0.1590   -0.5790 ca        1 VSF     -0.100000
     23 OBD         4.3680   -1.7040    0.7090 os        1 VSF     -0.249200
     24 CBE         5.4460   -0.9720    0.2170 ca        1 VSF      0.100100
     25 CBJ         5.5790    0.4070    0.4190 ca        1 VSF     -0.152500
     26 CBI         6.7450    1.0420   -0.0060 ca        1 VSF     -0.110000
     27 CBH         7.7620    0.3100   -0.6190 ca        1 VSF     -0.145000
     28 CBG         7.6190   -1.0650   -0.8130 ca        1 VSF     -0.110000
     29 CBF         6.4590   -1.7180   -0.4030 ca        1 VSF     -0.152500
     30 H1          1.0330    2.2460    0.6630 hn        1 VSF      0.429800
     31 H2          0.8500    3.9320    0.6060 hn        1 VSF      0.429800
     32 H3         -3.6640    4.6120    0.0180 h5        1 VSF      0.049100
     33 H4         -5.2390    0.3990   -0.2060 h1        1 VSF      0.094700
     34 H5         -4.2350   -2.2050    1.1750 hc        1 VSF      0.061950
     35 H6         -4.9210   -0.7440    2.0040 hc        1 VSF      0.061950
     36 H7         -6.6320   -2.6110    1.6280 h1        1 VSF      0.053450
     37 H8         -7.0890   -1.0240    0.8250 h1        1 VSF      0.053450
     38 H9         -6.1900   -2.5610   -2.3750 h1        1 VSF      0.053450
     39 H10        -6.8170   -0.9930   -1.6520 h1        1 VSF      0.053450
     40 H11        -4.4450   -0.6880   -2.3220 hc        1 VSF      0.061950
     41 H12        -3.9510   -2.1710   -1.4020 hc        1 VSF      0.061950
     42 H13        -2.0370   -1.7560    0.1210 h4        1 VSF      0.175000
     43 H14         0.0910   -1.4310    2.1330 ha        1 VSF      0.145500
     44 H15         2.4570   -2.2290    2.3320 ha        1 VSF      0.152000
     45 H16         3.5030    0.0300   -1.2160 ha        1 VSF      0.152000
     46 H17         1.1420    0.8210   -1.4100 ha        1 VSF      0.145500
     47 H18         4.7720    0.9730    0.9050 ha        1 VSF      0.147500
     48 H19         6.8620    2.1240    0.1480 ha        1 VSF      0.136000
     49 H20         8.6800    0.8170   -0.9500 ha        1 VSF      0.135000
     50 H21         8.4230   -1.6390   -1.2960 ha        1 VSF      0.136000
     51 H22         6.3320   -2.8010   -0.5440 ha        1 VSF      0.147500
@<TRIPOS>BOND
     1    1    2 1   
     2    1   30 1   
     3    1   31 1   
     4    2    3 ar  
     5    2    7 ar  
     6    3    4 ar  
     7    4    5 ar  
     8    4   32 1   
     9    5    6 ar  
    10    6    7 ar  
    11    6    8 1   
    12    7   16 1   
    13    8    9 1   
    14    8   15 1   
    15    9   10 1   
    16    9   14 1   
    17    9   33 1   
    18   10   11 1   
    19   10   34 1   
    20   10   35 1   
    21   11   12 1   
    22   11   36 1   
    23   11   37 1   
    24   12   13 1   
    25   13   14 1   
    26   13   38 1   
    27   13   39 1   
    28   14   40 1   
    29   14   41 1   
    30   15   16 2   
    31   15   42 1   
    32   16   17 1   
    33   17   18 ar  
    34   17   22 ar  
    35   18   19 ar  
    36   18   43 1   
    37   19   20 ar  
    38   19   44 1   
    39   20   21 ar  
    40   20   23 1   
    41   21   22 ar  
    42   21   45 1   
    43   22   46 1   
    44   23   24 1   
    45   24   25 ar  
    46   24   29 ar  
    47   25   26 ar  
    48   25   47 1   
    49   26   27 ar  
    50   26   48 1   
    51   27   28 ar  
    52   27   49 1   
    53   28   29 ar  
    54   28   50 1   
    55   29   51 1   
@<TRIPOS>SUBSTRUCTURE
     1 VSF         1 TEMP              0 ****  ****    0 ROOT
