@<TRIPOS>MOLECULE
VSF
   52    56     1     0     0
SMALL
bcc


@<TRIPOS>ATOM
      1 NAK         0.4790    0.9880    0.5980 n4        1 VSF     -0.826300
      2 C6          1.8830    0.5970    0.3580 ca        1 VSF      0.509200
      3 N1          2.7000    0.4380    1.4290 nb        1 VSF     -0.692000
      4 C2          3.9920    0.0880    1.1550 ca        1 VSF      0.664900
      5 N3          4.5720   -0.1220   -0.0500 nb        1 VSF     -0.634000
      6 C4          3.7400    0.0400   -1.1140 ca        1 VSF      0.470800
      7 C5          2.3170    0.4120   -0.9630 ca        1 VSF     -0.280400
      8 NAG         3.9870   -0.0870   -2.4860 na        1 VSF     -0.139100
      9 CAQ         5.2600   -0.4470   -3.0960 c3        1 VSF      0.039000
     10 CAV         5.7980    0.6620   -4.0160 c3        1 VSF     -0.128900
     11 CAU         7.1230    0.2180   -4.6180 c3        1 VSF      0.123400
     12 OAT         6.9890   -1.0060   -5.3280 os        1 VSF     -0.397600
     13 CAS         6.5320   -2.0690   -4.5040 c3        1 VSF      0.123400
     14 CAR         5.1730   -1.7590   -3.8950 c3        1 VSF     -0.128900
     15 CAH         2.8010    0.1830   -3.1720 cc        1 VSF     -0.012100
     16 CAI         1.7610    0.4900   -2.2840 cd        1 VSF     -0.098400
     17 CAJ         0.3930    0.8210   -2.6150 ca        1 VSF     -0.125800
     18 CAL         0.0850    2.0560   -3.2090 ca        1 VSF     -0.103500
     19 CAM        -1.2240    2.3800   -3.5340 ca        1 VSF     -0.175000
     20 CAN        -2.2510    1.4520   -3.2650 ca        1 VSF      0.153100
     21 CAO        -1.9560    0.2100   -2.6840 ca        1 VSF     -0.175000
     22 CAP        -0.6370   -0.0990   -2.3680 ca        1 VSF     -0.103500
     23 OBD        -3.5210    1.8860   -3.5780 os        1 VSF     -0.234200
     24 CBE        -4.5400    0.9250   -3.5830 ca        1 VSF      0.060100
     25 CBJ        -5.6530    1.1850   -2.7740 ca        1 VSF     -0.137000
     26 CBI        -6.7530    0.3320   -2.8580 ca        1 VSF     -0.112000
     27 CBH        -6.7330   -0.7620   -3.7250 ca        1 VSF     -0.121000
     28 CBG        -5.6140   -1.0080   -4.5230 ca        1 VSF     -0.112000
     29 CBF        -4.5060   -0.1650   -4.4600 ca        1 VSF     -0.137000
     30 H1          0.0660    0.4070    1.3370 hn        1 VSF      0.474800
     31 H2         -0.0500    0.8680   -0.2840 hn        1 VSF      0.474800
     32 H3          4.6490   -0.0390    2.0470 h5        1 VSF      0.094100
     33 H4          6.0010   -0.5960   -2.2520 h1        1 VSF      0.102700
     34 H5          5.0660    0.8670   -4.8390 hc        1 VSF      0.065200
     35 H6          5.9550    1.6090   -3.4400 hc        1 VSF      0.065200
     36 H7          7.9030    0.1120   -3.8180 h1        1 VSF      0.066200
     37 H8          7.4700    0.9500   -5.3960 h1        1 VSF      0.066200
     38 H9          6.4620   -2.9470   -5.2010 h1        1 VSF      0.066200
     39 H10         7.2850   -2.2800   -3.6990 h1        1 VSF      0.066200
     40 H11         4.4120   -1.6610   -4.7130 hc        1 VSF      0.065200
     41 H12         4.8660   -2.6050   -3.2290 hc        1 VSF      0.065200
     42 H13         2.7740    0.1370   -4.2680 h4        1 VSF      0.206000
     43 H14         0.8930    2.7720   -3.4300 ha        1 VSF      0.146500
     44 H15        -1.4760    3.3430   -4.0050 ha        1 VSF      0.170000
     45 H16        -2.7610   -0.5200   -2.5060 ha        1 VSF      0.170000
     46 H17        -0.3980   -1.0930   -1.9580 ha        1 VSF      0.146500
     47 H18        -5.6610    2.0610   -2.1090 ha        1 VSF      0.149500
     48 H19        -7.6410    0.5270   -2.2380 ha        1 VSF      0.147500
     49 H20        -7.6060   -1.4290   -3.7850 ha        1 VSF      0.148000
     50 H21        -5.6080   -1.8660   -5.2130 ha        1 VSF      0.147500
     51 H22        -3.6240   -0.3400   -5.0930 ha        1 VSF      0.149500
     52 HAK3        0.4440    1.9720    0.8890 hn        1 VSF      0.474800
@<TRIPOS>BOND
     1    1    2 1   
     2    1   30 1   
     3    1   31 1   
     4    1   52 1   
     5    2    3 ar  
     6    2    7 ar  
     7    3    4 ar  
     8    4    5 ar  
     9    4   32 1   
    10    5    6 ar  
    11    6    7 ar  
    12    6    8 1   
    13    7   16 1   
    14    8    9 1   
    15    8   15 1   
    16    9   10 1   
    17    9   14 1   
    18    9   33 1   
    19   10   11 1   
    20   10   34 1   
    21   10   35 1   
    22   11   12 1   
    23   11   36 1   
    24   11   37 1   
    25   12   13 1   
    26   13   14 1   
    27   13   38 1   
    28   13   39 1   
    29   14   40 1   
    30   14   41 1   
    31   15   16 2   
    32   15   42 1   
    33   16   17 1   
    34   17   18 ar  
    35   17   22 ar  
    36   18   19 ar  
    37   18   43 1   
    38   19   20 ar  
    39   19   44 1   
    40   20   21 ar  
    41   20   23 1   
    42   21   22 ar  
    43   21   45 1   
    44   22   46 1   
    45   23   24 1   
    46   24   25 ar  
    47   24   29 ar  
    48   25   26 ar  
    49   25   47 1   
    50   26   27 ar  
    51   26   48 1   
    52   27   28 ar  
    53   27   49 1   
    54   28   29 ar  
    55   28   50 1   
    56   29   51 1   
@<TRIPOS>SUBSTRUCTURE
     1 VSF         1 TEMP              0 ****  ****    0 ROOT
