@<TRIPOS>MOLECULE
VSF
   51    55     1     0     0
SMALL
bcc


@<TRIPOS>ATOM
      1 NAK         0.2170    0.4730    0.3200 nv        1 VSF     -0.948500
      2 C6          1.5860    0.3220    0.2020 ca        1 VSF      0.727200
      3 N1          2.3650    0.2070    1.3260 nb        1 VSF     -0.792000
      4 C2          3.6970   -0.0100    1.1400 ca        1 VSF      0.679900
      5 N3          4.4040   -0.1130   -0.0040 nb        1 VSF     -0.743000
      6 C4          3.6290    0.0180   -1.1290 ca        1 VSF      0.473800
      7 C5          2.1900    0.2310   -1.0920 ca        1 VSF     -0.362400
      8 NAG         4.0230   -0.0090   -2.4750 na        1 VSF     -0.159100
      9 CAQ         5.3650   -0.2190   -2.9680 c3        1 VSF      0.054000
     10 CAV         5.8860    0.9720   -3.7940 c3        1 VSF     -0.127900
     11 CAU         7.3030    0.6860   -4.2600 c3        1 VSF      0.126400
     12 OAT         7.3830   -0.5170   -5.0150 os        1 VSF     -0.412600
     13 CAS         6.9280   -1.6520   -4.2890 c3        1 VSF      0.126400
     14 CAR         5.4920   -1.4920   -3.8230 c3        1 VSF     -0.127900
     15 CAH         2.8810    0.1770   -3.2650 cc        1 VSF     -0.105100
     16 CAI         1.7460    0.3220   -2.4610 cd        1 VSF     -0.058400
     17 CAJ         0.4000    0.5170   -2.9530 ca        1 VSF     -0.052800
     18 CAL         0.1150    1.5920   -3.8100 ca        1 VSF     -0.100000
     19 CAM        -1.1670    1.7840   -4.3110 ca        1 VSF     -0.164500
     20 CAN        -2.1790    0.8770   -3.9570 ca        1 VSF      0.111100
     21 CAO        -1.9140   -0.2030   -3.1080 ca        1 VSF     -0.164500
     22 CAP        -0.6250   -0.3770   -2.6100 ca        1 VSF     -0.100000
     23 OBD        -3.4060    1.0860   -4.5770 os        1 VSF     -0.249200
     24 CBE        -4.5380    0.6330   -3.9050 ca        1 VSF      0.100100
     25 CBJ        -4.7260    0.8170   -2.5290 ca        1 VSF     -0.152500
     26 CBI        -5.9390    0.4380   -1.9570 ca        1 VSF     -0.110000
     27 CBH        -6.9490   -0.1130   -2.7460 ca        1 VSF     -0.145000
     28 CBG        -6.7510   -0.2890   -4.1160 ca        1 VSF     -0.110000
     29 CBF        -5.5440    0.0760   -4.7090 ca        1 VSF     -0.152500
     30 H1         -0.2600    0.8080   -0.4840 hn        1 VSF      0.429800
     31 H2         -0.1580    0.7130    1.2070 hn        1 VSF      0.429800
     32 H3          4.2860   -0.1080    2.0770 h5        1 VSF      0.049100
     33 H4          6.0390   -0.3370   -2.0650 h1        1 VSF      0.094700
     34 H5          5.2240    1.1370   -4.6830 hc        1 VSF      0.061950
     35 H6          5.8810    1.9050   -3.1770 hc        1 VSF      0.061950
     36 H7          7.6560    1.4790   -4.9720 h1        1 VSF      0.053450
     37 H8          8.0000    0.6260   -3.3820 h1        1 VSF      0.053450
     38 H9          7.6070   -1.8340   -3.4130 h1        1 VSF      0.053450
     39 H10         7.0180   -2.4980   -5.0210 h1        1 VSF      0.053450
     40 H11         5.1940   -2.3920   -3.2270 hc        1 VSF      0.061950
     41 H12         4.8140   -1.4230   -4.7130 hc        1 VSF      0.061950
     42 H13         2.9590    0.1850   -4.3540 h4        1 VSF      0.175000
     43 H14         0.9180    2.2930   -4.0850 ha        1 VSF      0.145500
     44 H15        -1.3970    2.6220   -4.9840 ha        1 VSF      0.152000
     45 H16        -2.7150   -0.9090   -2.8440 ha        1 VSF      0.152000
     46 H17        -0.4050   -1.2320   -1.9520 ha        1 VSF      0.145500
     47 H18        -3.9240    1.2540   -1.9180 ha        1 VSF      0.147500
     48 H19        -6.0980    0.5790   -0.8780 ha        1 VSF      0.136000
     49 H20        -7.9040   -0.4080   -2.2880 ha        1 VSF      0.135000
     50 H21        -7.5500   -0.7230   -4.7360 ha        1 VSF      0.136000
     51 H22        -5.3740   -0.0520   -5.7870 ha        1 VSF      0.147500
@<TRIPOS>BOND
     1    1    2 1   
     2    1   30 1   
     3    1   31 1   
     4    2    3 ar  
     5    2    7 ar  
     6    3    4 ar  
     7    4    5 ar  
     8    4   32 1   
     9    5    6 ar  
    10    6    7 ar  
    11    6    8 1   
    12    7   16 1   
    13    8    9 1   
    14    8   15 1   
    15    9   10 1   
    16    9   14 1   
    17    9   33 1   
    18   10   11 1   
    19   10   34 1   
    20   10   35 1   
    21   11   12 1   
    22   11   36 1   
    23   11   37 1   
    24   12   13 1   
    25   13   14 1   
    26   13   38 1   
    27   13   39 1   
    28   14   40 1   
    29   14   41 1   
    30   15   16 2   
    31   15   42 1   
    32   16   17 1   
    33   17   18 ar  
    34   17   22 ar  
    35   18   19 ar  
    36   18   43 1   
    37   19   20 ar  
    38   19   44 1   
    39   20   21 ar  
    40   20   23 1   
    41   21   22 ar  
    42   21   45 1   
    43   22   46 1   
    44   23   24 1   
    45   24   25 ar  
    46   24   29 ar  
    47   25   26 ar  
    48   25   47 1   
    49   26   27 ar  
    50   26   48 1   
    51   27   28 ar  
    52   27   49 1   
    53   28   29 ar  
    54   28   50 1   
    55   29   51 1   
@<TRIPOS>SUBSTRUCTURE
     1 VSF         1 TEMP              0 ****  ****    0 ROOT
