@<TRIPOS>MOLECULE
VSG
   55    59     1     0     0
SMALL
bcc


@<TRIPOS>ATOM
      1 CAR        -3.9250    1.7460   -1.2190 c3        1 VSG     -0.091900
      2 CAS        -5.1940    2.5940   -1.1990 c3        1 VSG      0.168800
      3 NAT        -5.4000    3.2920    0.0630 n3        1 VSG     -0.735600
      4 CAW        -6.5900    4.1120    0.0510 c3        1 VSG      0.158100
      5 CAU        -5.3540    2.3970    1.2120 c3        1 VSG      0.168800
      6 CAV        -4.0900    1.5430    1.2620 c3        1 VSG     -0.091900
      7 CAQ        -3.9410    0.7500   -0.0480 c3        1 VSG      0.051000
      8 NAG        -2.7850   -0.1190   -0.0430 na        1 VSG     -0.158100
      9 CAH        -1.4540    0.2940    0.0880 cc        1 VSG     -0.105100
     10 C4         -2.7980   -1.5170   -0.1440 ca        1 VSG      0.473800
     11 N3         -3.8720   -2.3590   -0.2950 nb        1 VSG     -0.743000
     12 C2         -3.5180   -3.6570   -0.3870 ca        1 VSG      0.678900
     13 N1         -2.2830   -4.2290   -0.3590 nb        1 VSG     -0.793000
     14 C6         -1.2080   -3.3910   -0.1920 ca        1 VSG      0.728200
     15 NAK         0.0680   -3.9130   -0.0850 nh        1 VSG     -0.949500
     16 C5         -1.4210   -1.9810   -0.0740 ca        1 VSG     -0.362400
     17 CAI        -0.5940   -0.8090    0.0780 cd        1 VSG     -0.061400
     18 CAJ         0.8450   -0.7430    0.2040 ca        1 VSG     -0.047800
     19 CAP         1.5060   -1.4290    1.2360 ca        1 VSG     -0.102500
     20 CAO         2.8870   -1.3470    1.3730 ca        1 VSG     -0.161500
     21 CAL         1.5940    0.0360   -0.6910 ca        1 VSG     -0.102500
     22 CAM         2.9780    0.1230   -0.5720 ca        1 VSG     -0.161500
     23 CAN         3.6190   -0.5720    0.4600 ca        1 VSG      0.107100
     24 OAX         5.0020   -0.6270    0.6000 os        1 VSG     -0.250200
     25 CAY         5.7150    0.5140    0.2430 ca        1 VSG      0.102100
     26 CAZ         5.2660    1.8110    0.5170 ca        1 VSG     -0.155500
     27 CBA         6.0970    2.8900    0.2200 ca        1 VSG     -0.108500
     28 CBB         7.3570    2.6770   -0.3400 ca        1 VSG     -0.148000
     29 CBC         7.7940    1.3790   -0.6070 ca        1 VSG     -0.108500
     30 CBD         6.9790    0.2860   -0.3240 ca        1 VSG     -0.155500
     31 H1         -3.8830    1.1980   -2.1950 hc        1 VSG      0.058700
     32 H2         -3.0210    2.4040   -1.1510 hc        1 VSG      0.058700
     33 H3         -5.1130    3.3750   -2.0070 h1        1 VSG      0.036200
     34 H4         -6.0730    1.9300   -1.4540 h1        1 VSG      0.036200
     35 H6         -7.5390    3.5190   -0.0600 h1        1 VSG      0.033700
     36 H7         -6.6400    4.6890    1.0120 h1        1 VSG      0.033700
     37 H8         -6.5200    4.8370   -0.8020 h1        1 VSG      0.033700
     38 H9         -5.3870    3.0370    2.1390 h1        1 VSG      0.036200
     39 H10        -6.2520    1.7110    1.2390 h1        1 VSG      0.036200
     40 H11        -3.1920    2.1930    1.4210 hc        1 VSG      0.058700
     41 H12        -4.1710    0.8440    2.1330 hc        1 VSG      0.058700
     42 H13        -4.8550    0.0900   -0.1620 h1        1 VSG      0.093700
     43 H14        -1.2140    1.3540    0.1880 h4        1 VSG      0.175000
     44 H15        -4.3580   -4.3750   -0.5120 h5        1 VSG      0.048100
     45 H16         0.2160   -4.8610   -0.3410 hn        1 VSG      0.431300
     46 H17         0.8190   -3.2790   -0.2250 hn        1 VSG      0.431300
     47 H18         0.9210   -2.0280    1.9520 ha        1 VSG      0.145500
     48 H19         3.4110   -1.8820    2.1780 ha        1 VSG      0.151500
     49 H20         1.0810    0.5780   -1.5000 ha        1 VSG      0.145500
     50 H21         3.5650    0.7300   -1.2770 ha        1 VSG      0.151500
     51 H22         4.2720    1.9680    0.9600 ha        1 VSG      0.149000
     52 H23         5.7550    3.9140    0.4330 ha        1 VSG      0.135500
     53 H24         8.0070    3.5330   -0.5700 ha        1 VSG      0.135000
     54 H25         8.7890    1.2140   -1.0470 ha        1 VSG      0.135500
     55 H26         7.3100   -0.7430   -0.5240 ha        1 VSG      0.149000
@<TRIPOS>BOND
     1    1    2 1   
     2    1    7 1   
     3    1   31 1   
     4    1   32 1   
     5    2    3 1   
     6    2   33 1   
     7    2   34 1   
     8    3    4 1   
     9    3    5 1   
    10    4   35 1   
    11    4   36 1   
    12    4   37 1   
    13    5    6 1   
    14    5   38 1   
    15    5   39 1   
    16    6    7 1   
    17    6   40 1   
    18    6   41 1   
    19    7    8 1   
    20    7   42 1   
    21    8    9 1   
    22    8   10 1   
    23    9   17 2   
    24    9   43 1   
    25   10   11 ar  
    26   10   16 ar  
    27   11   12 ar  
    28   12   13 ar  
    29   12   44 1   
    30   13   14 ar  
    31   14   15 1   
    32   14   16 ar  
    33   15   45 1   
    34   15   46 1   
    35   16   17 1   
    36   17   18 1   
    37   18   19 ar  
    38   18   21 ar  
    39   19   20 ar  
    40   19   47 1   
    41   20   23 ar  
    42   20   48 1   
    43   21   22 ar  
    44   21   49 1   
    45   22   23 ar  
    46   22   50 1   
    47   23   24 1   
    48   24   25 1   
    49   25   26 ar  
    50   25   30 ar  
    51   26   27 ar  
    52   26   51 1   
    53   27   28 ar  
    54   27   52 1   
    55   28   29 ar  
    56   28   53 1   
    57   29   30 ar  
    58   29   54 1   
    59   30   55 1   
@<TRIPOS>SUBSTRUCTURE
     1 VSG         1 TEMP              0 ****  ****    0 ROOT
