@<TRIPOS>MOLECULE
VSG
   55    59     1     0     0
SMALL
bcc


@<TRIPOS>ATOM
      1 CAR         0.0950   -0.1580    0.1440 c3        1 VSG     -0.091900
      2 CAS         1.6150   -0.0690    0.0380 c3        1 VSG      0.168800
      3 NAT         2.2610    0.2690    1.2990 n3        1 VSG     -0.735600
      4 CAW         3.7010    0.3180    1.1850 c3        1 VSG      0.158100
      5 CAU         1.7120    1.4740    1.9050 c3        1 VSG      0.168800
      6 CAV         0.1940    1.4310    2.0650 c3        1 VSG     -0.091900
      7 CAQ        -0.4690    1.1590    0.7040 c3        1 VSG      0.051000
      8 NAG        -1.9130    1.1550    0.7810 na        1 VSG     -0.158100
      9 CAH        -2.6880    0.2810    1.5540 cc        1 VSG     -0.105100
     10 C4         -2.7810    2.0340    0.1180 ca        1 VSG      0.473800
     11 N3         -2.4760    3.0510   -0.7520 nb        1 VSG     -0.743000
     12 C2         -3.5670    3.6840   -1.2300 ca        1 VSG      0.678900
     13 N1         -4.8870    3.4570   -0.9820 nb        1 VSG     -0.793000
     14 C6         -5.1940    2.4500   -0.1000 ca        1 VSG      0.728200
     15 NAK        -6.5100    2.2120    0.2480 nv        1 VSG     -0.949500
     16 C5         -4.1420    1.6860    0.4970 ca        1 VSG     -0.362400
     17 CAI        -4.0480    0.5750    1.4120 cd        1 VSG     -0.061400
     18 CAJ        -5.1240   -0.1250    2.0780 ca        1 VSG     -0.047800
     19 CAP        -6.0260    0.5660    2.9020 ca        1 VSG     -0.102500
     20 CAO        -7.0470   -0.1090    3.5620 ca        1 VSG     -0.161500
     21 CAL        -5.2560   -1.5140    1.9300 ca        1 VSG     -0.102500
     22 CAM        -6.2760   -2.2050    2.5790 ca        1 VSG     -0.161500
     23 CAN        -7.1690   -1.4970    3.3910 ca        1 VSG      0.106100
     24 OAX        -8.2760   -2.0800    3.9990 os        1 VSG     -0.250200
     25 CAY        -8.1330   -3.3950    4.4350 ca        1 VSG      0.102100
     26 CAZ        -6.9610   -3.8780    5.0290 ca        1 VSG     -0.155500
     27 CBA        -6.9460   -5.1780    5.5320 ca        1 VSG     -0.108500
     28 CBB        -8.0840   -5.9800    5.4470 ca        1 VSG     -0.148000
     29 CBC        -9.2470   -5.4870    4.8550 ca        1 VSG     -0.108500
     30 CBD        -9.2830   -4.1940    4.3390 ca        1 VSG     -0.155500
     31 H1         -0.3190   -0.3550   -0.8780 hc        1 VSG      0.058700
     32 H2         -0.1950   -1.0130    0.8070 hc        1 VSG      0.058700
     33 H3          2.0080   -1.0750   -0.2830 h1        1 VSG      0.036200
     34 H4          1.8750    0.6740   -0.7730 h1        1 VSG      0.036200
     35 H6          4.0660   -0.6700    0.7980 h1        1 VSG      0.033700
     36 H7          4.1390    0.4910    2.2020 h1        1 VSG      0.033700
     37 H8          4.0670    1.1280    0.4950 h1        1 VSG      0.033700
     38 H9          1.9840    2.3970    1.3120 h1        1 VSG      0.036200
     39 H10         2.1740    1.5780    2.9280 h1        1 VSG      0.036200
     40 H11        -0.0930    0.6340    2.7980 hc        1 VSG      0.058700
     41 H12        -0.1450    2.4170    2.4730 hc        1 VSG      0.058700
     42 H13        -0.1740    1.9940   -0.0020 h1        1 VSG      0.093700
     43 H14        -2.2080   -0.4890    2.1610 h4        1 VSG      0.175000
     44 H15        -3.3660    4.5150   -1.9400 h5        1 VSG      0.048100
     45 H16        -6.7050    1.3350    0.6710 hn        1 VSG      0.431300
     46 H17        -7.2280    2.6260   -0.2990 hn        1 VSG      0.431300
     47 H18        -5.9170    1.6540    3.0350 ha        1 VSG      0.145500
     48 H19        -7.7580    0.4260    4.2080 ha        1 VSG      0.151500
     49 H20        -4.5490   -2.0620    1.2880 ha        1 VSG      0.145500
     50 H21        -6.3820   -3.2930    2.4590 ha        1 VSG      0.151500
     51 H22        -6.0700   -3.2370    5.0920 ha        1 VSG      0.149000
     52 H23        -6.0310   -5.5680    6.0030 ha        1 VSG      0.135500
     53 H24        -8.0650   -7.0040    5.8480 ha        1 VSG      0.135000
     54 H25       -10.1430   -6.1220    4.7900 ha        1 VSG      0.135500
     55 H26       -10.1930   -3.7880    3.8730 ha        1 VSG      0.149000
@<TRIPOS>BOND
     1    1    2 1   
     2    1    7 1   
     3    1   31 1   
     4    1   32 1   
     5    2    3 1   
     6    2   33 1   
     7    2   34 1   
     8    3    4 1   
     9    3    5 1   
    10    4   35 1   
    11    4   36 1   
    12    4   37 1   
    13    5    6 1   
    14    5   38 1   
    15    5   39 1   
    16    6    7 1   
    17    6   40 1   
    18    6   41 1   
    19    7    8 1   
    20    7   42 1   
    21    8    9 1   
    22    8   10 1   
    23    9   17 2   
    24    9   43 1   
    25   10   11 ar  
    26   10   16 ar  
    27   11   12 ar  
    28   12   13 ar  
    29   12   44 1   
    30   13   14 ar  
    31   14   15 1   
    32   14   16 ar  
    33   15   45 1   
    34   15   46 1   
    35   16   17 1   
    36   17   18 1   
    37   18   19 ar  
    38   18   21 ar  
    39   19   20 ar  
    40   19   47 1   
    41   20   23 ar  
    42   20   48 1   
    43   21   22 ar  
    44   21   49 1   
    45   22   23 ar  
    46   22   50 1   
    47   23   24 1   
    48   24   25 1   
    49   25   26 ar  
    50   25   30 ar  
    51   26   27 ar  
    52   26   51 1   
    53   27   28 ar  
    54   27   52 1   
    55   28   29 ar  
    56   28   53 1   
    57   29   30 ar  
    58   29   54 1   
    59   30   55 1   
@<TRIPOS>SUBSTRUCTURE
     1 VSG         1 TEMP              0 ****  ****    0 ROOT
