@<TRIPOS>MOLECULE
VSG
   56    60     1     0     0
SMALL
bcc


@<TRIPOS>ATOM
      1 CAR         0.1970   -0.1390    0.2030 c3        1 VSG     -0.092400
      2 CAS         1.7110    0.0030    0.0460 c3        1 VSG      0.167800
      3 NAT         2.3580    0.5020    1.2490 n3        1 VSG     -0.736600
      4 CAW         3.7980    0.5530    1.1290 c3        1 VSG      0.155100
      5 CAU         1.7870    1.7620    1.7020 c3        1 VSG      0.167800
      6 CAV         0.2770    1.6850    1.9190 c3        1 VSG     -0.092400
      7 CAQ        -0.4070    1.2090    0.6270 c3        1 VSG      0.037000
      8 NAG        -1.8570    1.1400    0.7670 na        1 VSG     -0.138100
      9 CAH        -2.5490    0.3330    1.6720 cc        1 VSG     -0.012100
     10 C4         -2.7920    1.8730    0.0290 ca        1 VSG      0.469800
     11 N3         -2.6100    2.7860   -0.9630 nb        1 VSG     -0.633000
     12 C2         -3.7540    3.3040   -1.4680 ca        1 VSG      0.662900
     13 N1         -5.0440    3.0270   -1.1130 nb        1 VSG     -0.693000
     14 C6         -5.2100    2.1150   -0.1230 ca        1 VSG      0.508200
     15 NAK        -6.5860    1.7720    0.2890 n4        1 VSG     -0.826300
     16 C5         -4.1330    1.4830    0.5170 ca        1 VSG     -0.279400
     17 CAI        -3.9340    0.5110    1.5540 cd        1 VSG     -0.100400
     18 CAJ        -4.9700   -0.1440    2.3220 ca        1 VSG     -0.122800
     19 CAP        -5.7210    0.5850    3.2600 ca        1 VSG     -0.105000
     20 CAO        -6.7170   -0.0310    4.0050 ca        1 VSG     -0.174000
     21 CAL        -5.2170   -1.5150    2.1590 ca        1 VSG     -0.105000
     22 CAM        -6.2120   -2.1480    2.8980 ca        1 VSG     -0.174000
     23 CAN        -6.9660   -1.4050    3.8170 ca        1 VSG      0.152100
     24 OAX        -8.0060   -1.9120    4.5670 os        1 VSG     -0.237200
     25 CAY        -8.1390   -3.3070    4.6060 ca        1 VSG      0.060100
     26 CAZ        -7.1510   -4.1090    5.1890 ca        1 VSG     -0.134500
     27 CBA        -7.3960   -5.4730    5.3350 ca        1 VSG     -0.112500
     28 CBB        -8.6070   -6.0200    4.9060 ca        1 VSG     -0.119000
     29 CBC        -9.5830   -5.2060    4.3290 ca        1 VSG     -0.112500
     30 CBD        -9.3570   -3.8400    4.1690 ca        1 VSG     -0.134500
     31 H1         -0.0350   -0.9240    0.9680 hc        1 VSG      0.060950
     32 H2         -0.2300   -0.4690   -0.7790 hc        1 VSG      0.060950
     33 H3          1.9190    0.6630   -0.8480 h1        1 VSG      0.046950
     34 H4          2.1390   -1.0160   -0.1750 h1        1 VSG      0.046950
     35 H6          4.2320    0.8560    2.1180 h1        1 VSG      0.042367
     36 H7          4.1520    1.2770    0.3440 h1        1 VSG      0.042367
     37 H8          4.1740   -0.4710    0.8690 h1        1 VSG      0.042367
     38 H9          2.0040    2.6050    0.9810 h1        1 VSG      0.046950
     39 H10         2.2710    2.0230    2.6860 h1        1 VSG      0.046950
     40 H11        -0.0920    2.7030    2.2050 hc        1 VSG      0.060950
     41 H12         0.0480    0.9800    2.7590 hc        1 VSG      0.060950
     42 H13        -0.1910    1.9660   -0.1880 h1        1 VSG      0.100700
     43 H14        -1.9990   -0.3260    2.3560 h4        1 VSG      0.207000
     44 H15        -3.6370    4.0570   -2.2820 h5        1 VSG      0.093100
     45 H16        -7.1360    2.6250    0.4420 hn        1 VSG      0.474133
     46 H17        -6.5390    1.2210    1.1630 hn        1 VSG      0.474133
     47 H18        -5.4850    1.6460    3.4430 ha        1 VSG      0.145500
     48 H19        -7.3010    0.5270    4.7530 ha        1 VSG      0.169000
     49 H20        -4.6170   -2.0990    1.4440 ha        1 VSG      0.145500
     50 H21        -6.4000   -3.2270    2.7730 ha        1 VSG      0.169000
     51 H22        -6.2070   -3.6630    5.5330 ha        1 VSG      0.149000
     52 H23        -6.6340   -6.1180    5.7970 ha        1 VSG      0.147500
     53 H24        -8.7950   -7.0980    5.0290 ha        1 VSG      0.148000
     54 H25       -10.5400   -5.6410    4.0010 ha        1 VSG      0.147500
     55 H26       -10.1230   -3.1840    3.7300 ha        1 VSG      0.149000
     56 HAK3       -7.0340    1.2150   -0.4480 hn        1 VSG      0.474133
@<TRIPOS>BOND
     1    1    2 1   
     2    1    7 1   
     3    1   31 1   
     4    1   32 1   
     5    2    3 1   
     6    2   33 1   
     7    2   34 1   
     8    3    4 1   
     9    3    5 1   
    10    4   35 1   
    11    4   36 1   
    12    4   37 1   
    13    5    6 1   
    14    5   38 1   
    15    5   39 1   
    16    6    7 1   
    17    6   40 1   
    18    6   41 1   
    19    7    8 1   
    20    7   42 1   
    21    8    9 1   
    22    8   10 1   
    23    9   17 2   
    24    9   43 1   
    25   10   11 ar  
    26   10   16 ar  
    27   11   12 ar  
    28   12   13 ar  
    29   12   44 1   
    30   13   14 ar  
    31   14   15 1   
    32   14   16 ar  
    33   15   45 1   
    34   15   46 1   
    35   15   56 1   
    36   16   17 1   
    37   17   18 1   
    38   18   19 ar  
    39   18   21 ar  
    40   19   20 ar  
    41   19   47 1   
    42   20   23 ar  
    43   20   48 1   
    44   21   22 ar  
    45   21   49 1   
    46   22   23 ar  
    47   22   50 1   
    48   23   24 1   
    49   24   25 1   
    50   25   26 ar  
    51   25   30 ar  
    52   26   27 ar  
    53   26   51 1   
    54   27   28 ar  
    55   27   52 1   
    56   28   29 ar  
    57   28   53 1   
    58   29   30 ar  
    59   29   54 1   
    60   30   55 1   
@<TRIPOS>SUBSTRUCTURE
     1 VSG         1 TEMP              0 ****  ****    0 ROOT
