@<TRIPOS>MOLECULE
VSG
   55    59     1     0     0
SMALL
bcc


@<TRIPOS>ATOM
      1 CAR         0.0970   -0.1600    0.1480 c3        1 VSG     -0.091900
      2 CAS         1.6170   -0.0730    0.0450 c3        1 VSG      0.168800
      3 NAT         2.2620    0.2630    1.3070 n3        1 VSG     -0.735600
      4 CAW         3.7020    0.3100    1.1950 c3        1 VSG      0.158100
      5 CAU         1.7130    1.4680    1.9130 c3        1 VSG      0.168800
      6 CAV         0.1960    1.4270    2.0700 c3        1 VSG     -0.091900
      7 CAQ        -0.4660    1.1570    0.7080 c3        1 VSG      0.051000
      8 NAG        -1.9110    1.1550    0.7830 na        1 VSG     -0.158100
      9 CAH        -2.6870    0.2810    1.5540 cc        1 VSG     -0.105100
     10 C4         -2.7770    2.0350    0.1190 ca        1 VSG      0.473800
     11 N3         -2.4700    3.0510   -0.7500 nb        1 VSG     -0.743000
     12 C2         -3.5590    3.6860   -1.2290 ca        1 VSG      0.678900
     13 N1         -4.8790    3.4590   -0.9840 nb        1 VSG     -0.793000
     14 C6         -5.1890    2.4530   -0.1030 ca        1 VSG      0.728200
     15 NAK        -6.5060    2.2160    0.2440 nh        1 VSG     -0.949500
     16 C5         -4.1380    1.6870    0.4960 ca        1 VSG     -0.362400
     17 CAI        -4.0470    0.5750    1.4110 cd        1 VSG     -0.061400
     18 CAJ        -5.1240   -0.1240    2.0750 ca        1 VSG     -0.047800
     19 CAP        -6.0270    0.5680    2.8980 ca        1 VSG     -0.102500
     20 CAO        -7.0490   -0.1060    3.5570 ca        1 VSG     -0.161500
     21 CAL        -5.2570   -1.5120    1.9270 ca        1 VSG     -0.102500
     22 CAM        -6.2790   -2.2020    2.5740 ca        1 VSG     -0.161500
     23 CAN        -7.1720   -1.4940    3.3860 ca        1 VSG      0.106100
     24 OAX        -8.2800   -2.0760    3.9920 os        1 VSG     -0.250200
     25 CAY        -8.1380   -3.3920    4.4280 ca        1 VSG      0.102100
     26 CAZ        -6.9670   -3.8750    5.0230 ca        1 VSG     -0.155500
     27 CBA        -6.9540   -5.1750    5.5270 ca        1 VSG     -0.108500
     28 CBB        -8.0920   -5.9760    5.4410 ca        1 VSG     -0.148000
     29 CBC        -9.2540   -5.4820    4.8470 ca        1 VSG     -0.108500
     30 CBD        -9.2890   -4.1890    4.3310 ca        1 VSG     -0.155500
     31 H1         -0.1950   -1.0150    0.8100 hc        1 VSG      0.058700
     32 H2         -0.3150   -0.3560   -0.8750 hc        1 VSG      0.058700
     33 H3          2.0100   -1.0790   -0.2770 h1        1 VSG      0.036200
     34 H4          1.8800    0.6700   -0.7660 h1        1 VSG      0.036200
     35 H6          4.1380    0.4820    2.2130 h1        1 VSG      0.033700
     36 H7          4.0660   -0.6780    0.8080 h1        1 VSG      0.033700
     37 H8          4.0700    1.1200    0.5070 h1        1 VSG      0.033700
     38 H9          1.9870    2.3920    1.3210 h1        1 VSG      0.036200
     39 H10         2.1740    1.5720    2.9360 h1        1 VSG      0.036200
     40 H11        -0.1440    2.4140    2.4780 hc        1 VSG      0.058700
     41 H12        -0.0940    0.6300    2.8030 hc        1 VSG      0.058700
     42 H13        -0.1690    1.9920    0.0030 h1        1 VSG      0.093700
     43 H14        -2.2090   -0.4900    2.1620 h4        1 VSG      0.175000
     44 H15        -3.3560    4.5160   -1.9390 h5        1 VSG      0.048100
     45 H16        -6.7020    1.3390    0.6660 hn        1 VSG      0.431300
     46 H17        -7.2230    2.6300   -0.3030 hn        1 VSG      0.431300
     47 H18        -5.9170    1.6560    3.0320 ha        1 VSG      0.145500
     48 H19        -7.7600    0.4290    4.2020 ha        1 VSG      0.151500
     49 H20        -4.5500   -2.0600    1.2860 ha        1 VSG      0.145500
     50 H21        -6.3860   -3.2900    2.4540 ha        1 VSG      0.151500
     51 H22        -6.0760   -3.2340    5.0870 ha        1 VSG      0.149000
     52 H23        -6.0390   -5.5650    5.9980 ha        1 VSG      0.135500
     53 H24        -8.0730   -7.0000    5.8430 ha        1 VSG      0.135000
     54 H25       -10.1510   -6.1170    4.7830 ha        1 VSG      0.135500
     55 H26       -10.1980   -3.7840    3.8650 ha        1 VSG      0.149000
@<TRIPOS>BOND
     1    1    2 1   
     2    1    7 1   
     3    1   31 1   
     4    1   32 1   
     5    2    3 1   
     6    2   33 1   
     7    2   34 1   
     8    3    4 1   
     9    3    5 1   
    10    4   35 1   
    11    4   36 1   
    12    4   37 1   
    13    5    6 1   
    14    5   38 1   
    15    5   39 1   
    16    6    7 1   
    17    6   40 1   
    18    6   41 1   
    19    7    8 1   
    20    7   42 1   
    21    8    9 1   
    22    8   10 1   
    23    9   17 2   
    24    9   43 1   
    25   10   11 ar  
    26   10   16 ar  
    27   11   12 ar  
    28   12   13 ar  
    29   12   44 1   
    30   13   14 ar  
    31   14   15 1   
    32   14   16 ar  
    33   15   45 1   
    34   15   46 1   
    35   16   17 1   
    36   17   18 1   
    37   18   19 ar  
    38   18   21 ar  
    39   19   20 ar  
    40   19   47 1   
    41   20   23 ar  
    42   20   48 1   
    43   21   22 ar  
    44   21   49 1   
    45   22   23 ar  
    46   22   50 1   
    47   23   24 1   
    48   24   25 1   
    49   25   26 ar  
    50   25   30 ar  
    51   26   27 ar  
    52   26   51 1   
    53   27   28 ar  
    54   27   52 1   
    55   28   29 ar  
    56   28   53 1   
    57   29   30 ar  
    58   29   54 1   
    59   30   55 1   
@<TRIPOS>SUBSTRUCTURE
     1 VSG         1 TEMP              0 ****  ****    0 ROOT
