@<TRIPOS>MOLECULE
VSH
   55    57     1     0     0
SMALL
bcc


@<TRIPOS>ATOM
      1 O27        -0.4360    0.0820    0.3890 o         1 VSH     -0.582000
      2 C12         0.7720   -0.0890    0.1670 c         1 VSH      0.754100
      3 O29         1.6710   -0.2260    1.1980 os        1 VSH     -0.450900
      4 C20         1.2230   -0.0310    2.5660 c3        1 VSH      0.187800
      5 C17         0.2160   -1.1000    2.9550 c3        1 VSH     -0.114767
      6 C16         2.5140   -0.1990    3.3650 c3        1 VSH     -0.114767
      7 C15         0.6600    1.3670    2.7550 c3        1 VSH     -0.114767
      8 N26         1.4320   -0.1380   -1.0530 ns        1 VSH     -0.435100
      9 C7          0.7860   -0.2900   -2.2900 ca        1 VSH      0.061600
     10 C2         -0.5550    0.0820   -2.4980 ca        1 VSH     -0.140000
     11 C8          1.5140   -0.8000   -3.4100 ca        1 VSH      0.067100
     12 O28         2.8190   -1.2020   -3.1660 os        1 VSH     -0.346900
     13 C18         3.6890   -1.1980   -4.2950 c3        1 VSH      0.116700
     14 C3          0.9140   -0.9160   -4.6630 ca        1 VSH     -0.164000
     15 C6         -0.4240   -0.5420   -4.8380 ca        1 VSH     -0.102900
     16 C1         -1.1460   -0.0380   -3.7530 ca        1 VSH     -0.101000
     17 C9         -1.0480   -0.6670   -6.1480 cc        1 VSH      0.419500
     18 N23        -1.6290    0.3690   -6.8080 nd        1 VSH     -0.500100
     19 N24        -2.1170   -0.0790   -7.9800 na        1 VSH      0.001200
     20 C19        -2.7570    0.7860   -8.9760 c3        1 VSH      0.079000
     21 C14        -3.9800    1.5110   -8.4150 c3        1 VSH     -0.109100
     22 C13        -1.7900    1.8110   -9.5660 c3        1 VSH     -0.109100
     23 C10        -1.8590   -1.4530   -8.1470 ca        1 VSH      0.471800
     24 N21        -2.1770   -2.3010   -9.1750 nb        1 VSH     -0.740000
     25 C5         -1.1590   -1.8750   -6.9430 ca        1 VSH     -0.493500
     26 C11        -0.8140   -3.2570   -6.8410 ca        1 VSH      0.753200
     27 N25        -0.1150   -3.7230   -5.7490 nv        1 VSH     -0.951500
     28 N22        -1.1450   -4.1100   -7.8680 nb        1 VSH     -0.799000
     29 C4         -1.7840   -3.5720   -8.9430 ca        1 VSH      0.693900
     30 H1          0.6180   -2.1120    2.7110 hc        1 VSH      0.052811
     31 H2         -0.7450   -0.9520    2.4060 hc        1 VSH      0.052811
     32 H3          0.0200   -1.0420    4.0520 hc        1 VSH      0.052811
     33 H4          2.9470   -1.2120    3.1890 hc        1 VSH      0.052811
     34 H5          3.2610    0.5700    3.0560 hc        1 VSH      0.052811
     35 H6          2.2870   -0.0780    4.4500 hc        1 VSH      0.052811
     36 H7          1.3780    2.1260    2.3630 hc        1 VSH      0.052811
     37 H8         -0.3110    1.4750    2.2140 hc        1 VSH      0.052811
     38 H9          0.4910    1.5530    3.8420 hc        1 VSH      0.052811
     39 H10         2.4050   -0.3660   -1.0300 hn        1 VSH      0.346500
     40 H11        -1.1540    0.4760   -1.6570 ha        1 VSH      0.179000
     41 H12         4.7070   -1.2980   -3.8410 h1        1 VSH      0.047700
     42 H13         3.4660   -2.0740   -4.9520 h1        1 VSH      0.047700
     43 H14         3.6010   -0.2440   -4.8690 h1        1 VSH      0.047700
     44 H15         1.4900   -1.2930   -5.5220 ha        1 VSH      0.154000
     45 H16        -2.1930    0.2740   -3.8890 ha        1 VSH      0.152000
     46 H17        -3.0990    0.0950   -9.8050 h1        1 VSH      0.086700
     47 H18        -4.4680    2.0740   -9.2470 hc        1 VSH      0.050033
     48 H19        -4.7170    0.7870   -7.9930 hc        1 VSH      0.050033
     49 H20        -3.6870    2.2330   -7.6160 hc        1 VSH      0.050033
     50 H21        -0.9000    1.3100  -10.0170 hc        1 VSH      0.050033
     51 H22        -1.4410    2.5290   -8.7860 hc        1 VSH      0.050033
     52 H23        -2.3220    2.3800  -10.3670 hc        1 VSH      0.050033
     53 H24        -0.0870   -3.1380   -4.9470 hn        1 VSH      0.437800
     54 H25        -0.0200   -4.7010   -5.6170 hn        1 VSH      0.437800
     55 H26        -2.0210   -4.3000   -9.7500 h5        1 VSH      0.052100
@<TRIPOS>BOND
     1    1    2 2   
     2    2    3 1   
     3    2    8 1   
     4    3    4 1   
     5    4    5 1   
     6    4    6 1   
     7    4    7 1   
     8    5   30 1   
     9    5   31 1   
    10    5   32 1   
    11    6   33 1   
    12    6   34 1   
    13    6   35 1   
    14    7   36 1   
    15    7   37 1   
    16    7   38 1   
    17    8    9 1   
    18    8   39 1   
    19    9   10 ar  
    20    9   11 ar  
    21   10   16 ar  
    22   10   40 1   
    23   11   12 1   
    24   11   14 ar  
    25   12   13 1   
    26   13   41 1   
    27   13   42 1   
    28   13   43 1   
    29   14   15 ar  
    30   14   44 1   
    31   15   16 ar  
    32   15   17 1   
    33   16   45 1   
    34   17   18 2   
    35   17   25 1   
    36   18   19 1   
    37   19   20 1   
    38   19   23 1   
    39   20   21 1   
    40   20   22 1   
    41   20   46 1   
    42   21   47 1   
    43   21   48 1   
    44   21   49 1   
    45   22   50 1   
    46   22   51 1   
    47   22   52 1   
    48   23   24 ar  
    49   23   25 ar  
    50   24   29 ar  
    51   25   26 ar  
    52   26   27 1   
    53   26   28 ar  
    54   27   53 1   
    55   27   54 1   
    56   28   29 ar  
    57   29   55 1   
@<TRIPOS>SUBSTRUCTURE
     1 VSH         1 TEMP              0 ****  ****    0 ROOT
