@<TRIPOS>MOLECULE
VSH
   57    59     1     0     0
SMALL
bcc


@<TRIPOS>ATOM
      1 O27        -0.2650   -0.9210    0.2530 o         1 VSH     -0.452000
      2 C12         0.6150   -0.0740    0.2270 c         1 VSH      0.643100
      3 O29         1.6360    0.1250    1.0540 os        1 VSH     -0.418900
      4 C20         1.7800   -0.7330    2.2850 c3        1 VSH      0.207800
      5 C17         1.9870   -2.1660    1.8540 c3        1 VSH     -0.131767
      6 C16         3.0290   -0.1290    2.9050 c3        1 VSH     -0.131767
      7 C15         0.5580   -0.5460    3.1540 c3        1 VSH     -0.131767
      8 N26         0.6560    0.9880   -0.8590 n4        1 VSH     -0.507200
      9 C7          0.2040    0.5020   -2.1600 ca        1 VSH     -0.087400
     10 C2         -1.1400    0.1310   -2.3490 ca        1 VSH     -0.036000
     11 C8          1.1080    0.4390   -3.2550 ca        1 VSH      0.197100
     12 O28         2.3980    0.8070   -2.9880 os        1 VSH     -0.347900
     13 C18         3.3140    0.8680   -4.0910 c3        1 VSH      0.113700
     14 C3          0.6460    0.0220   -4.5140 ca        1 VSH     -0.169000
     15 C6         -0.6940   -0.3260   -4.6890 ca        1 VSH     -0.013900
     16 C1         -1.5820   -0.2790   -3.6000 ca        1 VSH     -0.200000
     17 C9         -1.1790   -0.6680   -6.0210 cc        1 VSH      0.335500
     18 N23        -0.9580    0.1470   -7.0970 nd        1 VSH     -0.409100
     19 N24        -1.5240   -0.3650   -8.1820 na        1 VSH      0.057200
     20 C19        -1.5170    0.2930   -9.5190 c3        1 VSH      0.070000
     21 C14        -2.2990    1.6010   -9.5070 c3        1 VSH     -0.119100
     22 C13        -0.0980    0.5340  -10.0210 c3        1 VSH     -0.119100
     23 C10        -2.1720   -1.5810   -7.8870 ca        1 VSH      0.454800
     24 N21        -2.8680   -2.4360   -8.6900 nb        1 VSH     -0.604000
     25 C5         -1.9500   -1.8160   -6.4450 ca        1 VSH     -0.410500
     26 C11        -2.4930   -3.0210   -5.9610 ca        1 VSH      0.548200
     27 N25        -2.3010   -3.4020   -4.5430 n4        1 VSH     -0.832300
     28 N22        -3.1860   -3.8770   -6.7400 nb        1 VSH     -0.678000
     29 C4         -3.3370   -3.5310   -8.0610 ca        1 VSH      0.692900
     30 H1          2.8400   -2.2440    1.1370 hc        1 VSH      0.075811
     31 H2          1.0640   -2.5770    1.3770 hc        1 VSH      0.075811
     32 H3          2.2250   -2.7840    2.7560 hc        1 VSH      0.075811
     33 H4          3.2550   -0.6860    3.8480 hc        1 VSH      0.075811
     34 H5          2.8680    0.9490    3.1500 hc        1 VSH      0.075811
     35 H6          3.8980   -0.2180    2.2110 hc        1 VSH      0.075811
     36 H7         -0.3520   -0.9680    2.6620 hc        1 VSH      0.075811
     37 H8          0.3910    0.5360    3.3750 hc        1 VSH      0.075811
     38 H9          0.7170   -1.0830    4.1220 hc        1 VSH      0.075811
     39 H10         0.0460    1.7620   -0.5610 hn        1 VSH      0.486300
     40 H11        -1.8520    0.1680   -1.5040 ha        1 VSH      0.177000
     41 H12         4.2560    1.2350   -3.6040 h1        1 VSH      0.078033
     42 H13         3.4590   -0.1500   -4.5250 h1        1 VSH      0.078033
     43 H14         2.9500    1.5930   -4.8580 h1        1 VSH      0.078033
     44 H15         1.3400   -0.0030   -5.3720 ha        1 VSH      0.188000
     45 H16        -2.6550   -0.4790   -3.7510 ha        1 VSH      0.160000
     46 H17        -2.0340   -0.4430  -10.2070 h1        1 VSH      0.106700
     47 H18        -1.8070    2.3640   -8.8570 hc        1 VSH      0.068700
     48 H19        -3.3480    1.4490   -9.1590 hc        1 VSH      0.068700
     49 H20        -2.3290    1.9940  -10.5540 hc        1 VSH      0.068700
     50 H21         0.4960   -0.4110  -10.0400 hc        1 VSH      0.068700
     51 H22        -0.1670    0.9280  -11.0660 hc        1 VSH      0.068700
     52 H23         0.4340    1.2870   -9.3930 hc        1 VSH      0.068700
     53 H24        -1.8980   -2.6060   -4.0340 hn        1 VSH      0.477133
     54 H25        -1.6650   -4.2100   -4.4900 hn        1 VSH      0.477133
     55 H26        -3.9200   -4.2590   -8.6790 h5        1 VSH      0.115100
     56 H262        1.6250    1.3410   -0.9380 hn        1 VSH      0.486300
     57 H253       -3.2040   -3.6680   -4.1230 hn        1 VSH      0.477133
@<TRIPOS>BOND
     1    1    2 2   
     2    2    3 1   
     3    2    8 1   
     4    3    4 1   
     5    4    5 1   
     6    4    6 1   
     7    4    7 1   
     8    5   30 1   
     9    5   31 1   
    10    5   32 1   
    11    6   33 1   
    12    6   34 1   
    13    6   35 1   
    14    7   36 1   
    15    7   37 1   
    16    7   38 1   
    17    8    9 1   
    18    8   39 1   
    19    8   56 1   
    20    9   10 ar  
    21    9   11 ar  
    22   10   16 ar  
    23   10   40 1   
    24   11   12 1   
    25   11   14 ar  
    26   12   13 1   
    27   13   41 1   
    28   13   42 1   
    29   13   43 1   
    30   14   15 ar  
    31   14   44 1   
    32   15   16 ar  
    33   15   17 1   
    34   16   45 1   
    35   17   18 2   
    36   17   25 1   
    37   18   19 1   
    38   19   20 1   
    39   19   23 1   
    40   20   21 1   
    41   20   22 1   
    42   20   46 1   
    43   21   47 1   
    44   21   48 1   
    45   21   49 1   
    46   22   50 1   
    47   22   51 1   
    48   22   52 1   
    49   23   24 ar  
    50   23   25 ar  
    51   24   29 ar  
    52   25   26 ar  
    53   26   27 1   
    54   26   28 ar  
    55   27   53 1   
    56   27   54 1   
    57   27   57 1   
    58   28   29 ar  
    59   29   55 1   
@<TRIPOS>SUBSTRUCTURE
     1 VSH         1 TEMP              0 ****  ****    0 ROOT
