@<TRIPOS>MOLECULE
VSH
   55    57     1     0     0
SMALL
bcc


@<TRIPOS>ATOM
      1 O27        -0.4390    0.0820    0.3880 o         1 VSH     -0.582000
      2 C12         0.7700   -0.0890    0.1670 c         1 VSH      0.754100
      3 O29         1.6680   -0.2250    1.1990 os        1 VSH     -0.450900
      4 C20         1.2180   -0.0300    2.5660 c3        1 VSH      0.187800
      5 C17         0.2110   -1.0990    2.9550 c3        1 VSH     -0.114767
      6 C16         2.5090   -0.1970    3.3670 c3        1 VSH     -0.114767
      7 C15         0.6540    1.3680    2.7550 c3        1 VSH     -0.114767
      8 N26         1.4310   -0.1380   -1.0520 n         1 VSH     -0.435100
      9 C7          0.7870   -0.2900   -2.2900 ca        1 VSH      0.061600
     10 C2         -0.5550    0.0810   -2.4990 ca        1 VSH     -0.140000
     11 C8          1.5160   -0.7990   -3.4090 ca        1 VSH      0.067100
     12 O28         2.8210   -1.2010   -3.1640 os        1 VSH     -0.346900
     13 C18         3.6920   -1.1950   -4.2920 c3        1 VSH      0.116700
     14 C3          0.9170   -0.9160   -4.6630 ca        1 VSH     -0.164000
     15 C6         -0.4210   -0.5420   -4.8390 ca        1 VSH     -0.102900
     16 C1         -1.1440   -0.0390   -3.7550 ca        1 VSH     -0.101000
     17 C9         -1.0430   -0.6670   -6.1490 cc        1 VSH      0.419500
     18 N23        -1.6250    0.3680   -6.8100 nd        1 VSH     -0.500100
     19 N24        -2.1110   -0.0800   -7.9830 na        1 VSH      0.001200
     20 C19        -2.7550    0.7840   -8.9780 c3        1 VSH      0.079000
     21 C14        -3.9850    1.4960   -8.4180 c3        1 VSH     -0.109100
     22 C13        -1.7940    1.8200   -9.5590 c3        1 VSH     -0.109100
     23 C10        -1.8520   -1.4530   -8.1500 ca        1 VSH      0.471800
     24 N21        -2.1680   -2.3020   -9.1780 nb        1 VSH     -0.740000
     25 C5         -1.1530   -1.8750   -6.9450 ca        1 VSH     -0.493500
     26 C11        -0.8060   -3.2580   -6.8430 ca        1 VSH      0.753200
     27 N25        -0.1080   -3.7230   -5.7510 nh        1 VSH     -0.951500
     28 N22        -1.1360   -4.1100   -7.8710 nb        1 VSH     -0.799000
     29 C4         -1.7740   -3.5730   -8.9470 ca        1 VSH      0.693900
     30 H1          0.6140   -2.1110    2.7110 hc        1 VSH      0.052811
     31 H2          0.0150   -1.0410    4.0510 hc        1 VSH      0.052811
     32 H3         -0.7490   -0.9520    2.4050 hc        1 VSH      0.052811
     33 H4          2.2800   -0.0760    4.4520 hc        1 VSH      0.052811
     34 H5          2.9430   -1.2100    3.1910 hc        1 VSH      0.052811
     35 H6          3.2560    0.5720    3.0580 hc        1 VSH      0.052811
     36 H7         -0.3170    1.4750    2.2130 hc        1 VSH      0.052811
     37 H8          1.3720    2.1270    2.3630 hc        1 VSH      0.052811
     38 H9          0.4840    1.5540    3.8420 hc        1 VSH      0.052811
     39 H10         2.4040   -0.3650   -1.0290 hn        1 VSH      0.346500
     40 H11        -1.1550    0.4750   -1.6590 ha        1 VSH      0.179000
     41 H12         3.6040   -0.2420   -4.8660 h1        1 VSH      0.047700
     42 H13         3.4700   -2.0710   -4.9500 h1        1 VSH      0.047700
     43 H14         4.7100   -1.2960   -3.8370 h1        1 VSH      0.047700
     44 H15         1.4950   -1.2920   -5.5210 ha        1 VSH      0.154000
     45 H16        -2.1920    0.2720   -3.8910 ha        1 VSH      0.152000
     46 H17        -3.0870    0.0940   -9.8110 h1        1 VSH      0.086700
     47 H18        -4.7180    0.7640   -8.0020 hc        1 VSH      0.050033
     48 H19        -3.7020    2.2160   -7.6140 hc        1 VSH      0.050033
     49 H20        -4.4750    2.0590   -9.2490 hc        1 VSH      0.050033
     50 H21        -2.3270    2.3880  -10.3590 hc        1 VSH      0.050033
     51 H22        -1.4550    2.5380   -8.7740 hc        1 VSH      0.050033
     52 H23        -0.8970    1.3290  -10.0080 hc        1 VSH      0.050033
     53 H24        -0.0120   -4.7010   -5.6190 hn        1 VSH      0.437800
     54 H25        -0.0820   -3.1390   -4.9480 hn        1 VSH      0.437800
     55 H26        -2.0100   -4.3000   -9.7540 h5        1 VSH      0.052100
@<TRIPOS>BOND
     1    1    2 2   
     2    2    3 1   
     3    2    8 1   
     4    3    4 1   
     5    4    5 1   
     6    4    6 1   
     7    4    7 1   
     8    5   30 1   
     9    5   31 1   
    10    5   32 1   
    11    6   33 1   
    12    6   34 1   
    13    6   35 1   
    14    7   36 1   
    15    7   37 1   
    16    7   38 1   
    17    8    9 1   
    18    8   39 1   
    19    9   10 ar  
    20    9   11 ar  
    21   10   16 ar  
    22   10   40 1   
    23   11   12 1   
    24   11   14 ar  
    25   12   13 1   
    26   13   41 1   
    27   13   42 1   
    28   13   43 1   
    29   14   15 ar  
    30   14   44 1   
    31   15   16 ar  
    32   15   17 1   
    33   16   45 1   
    34   17   18 2   
    35   17   25 1   
    36   18   19 1   
    37   19   20 1   
    38   19   23 1   
    39   20   21 1   
    40   20   22 1   
    41   20   46 1   
    42   21   47 1   
    43   21   48 1   
    44   21   49 1   
    45   22   50 1   
    46   22   51 1   
    47   22   52 1   
    48   23   24 ar  
    49   23   25 ar  
    50   24   29 ar  
    51   25   26 ar  
    52   26   27 1   
    53   26   28 ar  
    54   27   53 1   
    55   27   54 1   
    56   28   29 ar  
    57   29   55 1   
@<TRIPOS>SUBSTRUCTURE
     1 VSH         1 TEMP              0 ****  ****    0 ROOT
