@<TRIPOS>MOLECULE
VSH
   55    57     1     0     0
SMALL
bcc


@<TRIPOS>ATOM
      1 O27        -4.0640   -1.3820    1.1090 o         1 VSH     -0.582000
      2 C12        -4.2290   -0.4850    0.2670 c         1 VSH      0.754100
      3 O29        -5.4780    0.0300    0.0140 os        1 VSH     -0.450900
      4 C20        -6.6400   -0.5760    0.6420 c3        1 VSH      0.187800
      5 C17        -6.5850   -0.3980    2.1500 c3        1 VSH     -0.114767
      6 C16        -7.7950    0.2330    0.0510 c3        1 VSH     -0.114767
      7 C15        -6.7630   -2.0390    0.2520 c3        1 VSH     -0.114767
      8 N26        -3.2880    0.1150   -0.5580 n         1 VSH     -0.435100
      9 C7         -1.9010    0.0070   -0.3750 ca        1 VSH      0.061600
     10 C2         -1.3050   -1.0710    0.3070 ca        1 VSH     -0.140000
     11 C8         -1.0340    0.9970   -0.9350 ca        1 VSH      0.067100
     12 O28        -1.6490    2.0720   -1.5610 os        1 VSH     -0.346900
     13 C18        -0.8660    2.7460   -2.5410 c3        1 VSH      0.116700
     14 C3          0.3500    0.8920   -0.8110 ca        1 VSH     -0.164000
     15 C6          0.9130   -0.1900   -0.1230 ca        1 VSH     -0.102900
     16 C1          0.0790   -1.1680    0.4250 ca        1 VSH     -0.101000
     17 C9          2.3600   -0.2960    0.0060 cc        1 VSH      0.419500
     18 N23         3.0770   -1.3720   -0.4120 nd        1 VSH     -0.500100
     19 N24         4.3790   -1.1610   -0.1410 na        1 VSH      0.001200
     20 C19         5.4480   -2.0930   -0.5140 c3        1 VSH      0.079000
     21 C14         5.2470   -3.4790    0.0960 c3        1 VSH     -0.109100
     22 C13         5.6020   -2.2270   -2.0290 c3        1 VSH     -0.109100
     23 C10         4.5750    0.0940    0.4650 ca        1 VSH      0.471800
     24 N21         5.7220    0.7040    0.9020 nb        1 VSH     -0.740000
     25 C5          3.2530    0.6890    0.5860 ca        1 VSH     -0.493500
     26 C11         3.1680    1.9690    1.2160 ca        1 VSH      0.753200
     27 N25         1.9550    2.6110    1.3290 nh        1 VSH     -0.951500
     28 N22         4.3190    2.5730    1.6660 nb        1 VSH     -0.799000
     29 C4          5.4900    1.9070    1.4700 ca        1 VSH      0.693900
     30 H1         -6.3940    0.6720    2.4030 hc        1 VSH      0.052811
     31 H2         -7.5610   -0.7070    2.5940 hc        1 VSH      0.052811
     32 H3         -5.7710   -1.0240    2.5890 hc        1 VSH      0.052811
     33 H4         -7.6770    1.3130    0.3030 hc        1 VSH      0.052811
     34 H5         -7.8140    0.1230   -1.0590 hc        1 VSH      0.052811
     35 H6         -8.7550   -0.1430    0.4760 hc        1 VSH      0.052811
     36 H7         -7.7500   -2.4310    0.5950 hc        1 VSH      0.052811
     37 H8         -6.6940   -2.1480   -0.8560 hc        1 VSH      0.052811
     38 H9         -5.9490   -2.6400    0.7260 hc        1 VSH      0.052811
     39 H10        -3.6030    0.8800   -1.1190 hn        1 VSH      0.346500
     40 H11        -1.9400   -1.8550    0.7580 ha        1 VSH      0.179000
     41 H12        -1.6130    3.3820   -3.0800 h1        1 VSH      0.047700
     42 H13        -0.0970    3.3850   -2.0420 h1        1 VSH      0.047700
     43 H14        -0.3810    2.0220   -3.2400 h1        1 VSH      0.047700
     44 H15         1.0080    1.6510   -1.2620 ha        1 VSH      0.154000
     45 H16         0.5160   -2.0300    0.9530 ha        1 VSH      0.152000
     46 H17         6.4000   -1.6500   -0.0930 h1        1 VSH      0.086700
     47 H18         4.3360   -3.9730   -0.3170 hc        1 VSH      0.050033
     48 H19         6.1390   -4.1050   -0.1510 hc        1 VSH      0.050033
     49 H20         5.1500   -3.4190    1.2060 hc        1 VSH      0.050033
     50 H21         5.7850   -1.2330   -2.5030 hc        1 VSH      0.050033
     51 H22         6.4770   -2.8880   -2.2380 hc        1 VSH      0.050033
     52 H23         4.6910   -2.6800   -2.4860 hc        1 VSH      0.050033
     53 H24         1.1380    2.0630    1.1960 hn        1 VSH      0.437800
     54 H25         1.8870    3.4180    1.9020 hn        1 VSH      0.437800
     55 H26         6.3920    2.4410    1.8420 h5        1 VSH      0.052100
@<TRIPOS>BOND
     1    1    2 2   
     2    2    3 1   
     3    2    8 1   
     4    3    4 1   
     5    4    5 1   
     6    4    6 1   
     7    4    7 1   
     8    5   30 1   
     9    5   31 1   
    10    5   32 1   
    11    6   33 1   
    12    6   34 1   
    13    6   35 1   
    14    7   36 1   
    15    7   37 1   
    16    7   38 1   
    17    8    9 1   
    18    8   39 1   
    19    9   10 ar  
    20    9   11 ar  
    21   10   16 ar  
    22   10   40 1   
    23   11   12 1   
    24   11   14 ar  
    25   12   13 1   
    26   13   41 1   
    27   13   42 1   
    28   13   43 1   
    29   14   15 ar  
    30   14   44 1   
    31   15   16 ar  
    32   15   17 1   
    33   16   45 1   
    34   17   18 2   
    35   17   25 1   
    36   18   19 1   
    37   19   20 1   
    38   19   23 1   
    39   20   21 1   
    40   20   22 1   
    41   20   46 1   
    42   21   47 1   
    43   21   48 1   
    44   21   49 1   
    45   22   50 1   
    46   22   51 1   
    47   22   52 1   
    48   23   24 ar  
    49   23   25 ar  
    50   24   29 ar  
    51   25   26 ar  
    52   26   27 1   
    53   26   28 ar  
    54   27   53 1   
    55   27   54 1   
    56   28   29 ar  
    57   29   55 1   
@<TRIPOS>SUBSTRUCTURE
     1 VSH         1 TEMP              0 ****  ****    0 ROOT
