@<TRIPOS>MOLECULE
VSH
   55    48     1     0     0
SMALL
bcc


@<TRIPOS>ATOM
      1 O27         1.2980    1.8590    3.0340 o         1 VSH     -0.392000
      2 C12         1.6790    0.7730    3.5410 c1        1 VSH      0.410000
      3 O29         2.3300    0.7690    4.8270 o         1 VSH     -0.289000
      4 C20         3.2200    1.8410    5.0180 c3        1 VSH      0.116000
      5 C17         2.5410    3.1790    4.5460 c3        1 VSH     -0.232667
      6 C16         3.5840    1.9540    6.5210 c3        1 VSH     -0.232667
      7 C15         4.4940    1.5950    4.2060 c3        1 VSH     -0.232667
      8 N26         1.4390   -0.5020    2.8280 n3        1 VSH     -0.291000
      9 C7          0.6600   -0.5140    1.6220 c2        1 VSH      0.082000
     10 C2         -0.3370    0.4440    1.4250 c1        1 VSH     -0.159000
     11 C8          0.8830   -1.4950    0.6550 c2        1 VSH     -0.004000
     12 O28         1.8410   -2.5240    0.8890 os        1 VSH     -0.231000
     13 C18         3.0260   -2.3820    0.1520 c3        1 VSH     -0.074000
     14 C3          0.1030   -1.5160   -0.5140 c1        1 VSH     -0.104000
     15 C6         -0.8950   -0.5560   -0.7080 c1        1 VSH     -0.033000
     16 C1         -1.1170    0.4170    0.2490 c1        1 VSH     -0.109000
     17 C9         -1.7470   -0.5810   -1.9940 c1        1 VSH      0.023500
     18 N23        -2.7370   -1.5190   -2.1760 n2        1 VSH     -0.084500
     19 N24        -3.3100   -1.3010   -3.4230 n2        1 VSH     -0.084500
     20 C19        -4.3170   -2.0450   -4.1110 c2        1 VSH      0.058000
     21 C14        -3.8340   -3.4280   -4.3400 c3        1 VSH     -0.227000
     22 C13        -5.5940   -2.0830   -3.2630 c3        1 VSH     -0.227000
     23 C10        -2.6670   -0.2220   -4.0090 c1        1 VSH      0.023500
     24 N21        -2.8300    0.3930   -5.2070 n1        1 VSH     -0.217000
     25 C5         -1.7030    0.2260   -3.1330 c1        1 VSH     -0.282000
     26 C11        -0.9030    1.3040   -3.4790 c1        1 VSH      0.242000
     27 N25         0.1900    2.1640   -3.1530 n2        1 VSH     -0.360000
     28 N22        -1.0720    1.9190   -4.6860 n1        1 VSH     -0.276000
     29 C4         -2.0230    1.4760   -5.5500 c1        1 VSH      0.032000
     30 H1          1.5540    3.0980    4.6370 hc        1 VSH      0.092556
     31 H2          2.8690    3.9400    5.1160 hc        1 VSH      0.092556
     32 H3          2.7710    3.3500    3.6120 hc        1 VSH      0.092556
     33 H4          4.1910    2.7370    6.6590 hc        1 VSH      0.092556
     34 H5          4.0400    1.1310    6.8130 hc        1 VSH      0.092556
     35 H6          2.8000    2.0740    7.0240 hc        1 VSH      0.092556
     36 H7          4.7770    0.6580    4.3180 hc        1 VSH      0.092556
     37 H8          4.3220    1.7700    3.2740 hc        1 VSH      0.092556
     38 H9          5.2020    2.1890    4.5230 hc        1 VSH      0.092556
     39 H10         1.7950   -1.2730    3.1460 hn        1 VSH      0.261000
     40 H11        -0.4910    1.1140    2.0840 ha        1 VSH      0.180000
     41 H12         2.8270   -2.4390   -0.7950 h1        1 VSH      0.082333
     42 H13         3.4320   -1.5100    0.3500 h1        1 VSH      0.082333
     43 H14         3.6310   -3.0760    0.3910 h1        1 VSH      0.082333
     44 H15         0.2510   -2.1740   -1.1630 ha        1 VSH      0.156000
     45 H16        -1.8030    1.0750    0.1130 ha        1 VSH      0.151000
     46 H17        -4.5080   -1.6220   -4.9670 ha        1 VSH      0.126000
     47 H18        -2.9290   -3.4010   -4.7600 hc        1 VSH      0.089333
     48 H19        -3.7830   -3.9060   -3.4770 hc        1 VSH      0.089333
     49 H20        -4.4410   -3.8850   -4.9220 hc        1 VSH      0.089333
     50 H21        -6.3490   -2.5230   -3.8010 hc        1 VSH      0.089333
     51 H22        -5.8650   -1.1240   -3.0090 hc        1 VSH      0.089333
     52 H23        -5.4230   -2.6200   -2.4220 hc        1 VSH      0.089333
     53 H24         0.5590    2.6610   -3.7770 hn        1 VSH      0.239000
     54 H25         0.5120    2.1880   -2.3000 hn        1 VSH      0.239000
     55 H26        -2.1440    1.9280   -6.4310 ha        1 VSH      0.188000
@<TRIPOS>BOND
     1    1    2 1   
     2    2    8 1   
     3    3    4 1   
     4    4    5 1   
     5    4    6 1   
     6    4    7 1   
     7    5   30 1   
     8    5   31 1   
     9    5   32 1   
    10    6   33 1   
    11    6   34 1   
    12    6   35 1   
    13    7   36 1   
    14    7   37 1   
    15    7   38 1   
    16    8    9 1   
    17    8   39 1   
    18    9   10 1   
    19    9   11 1   
    20   10   40 1   
    21   11   12 1   
    22   11   14 1   
    23   12   13 1   
    24   13   41 1   
    25   13   42 1   
    26   13   43 1   
    27   14   44 1   
    28   15   16 1   
    29   16   45 1   
    30   17   18 1   
    31   17   25 1   
    32   18   19 1   
    33   19   23 1   
    34   20   21 1   
    35   20   22 1   
    36   20   46 1   
    37   21   47 1   
    38   21   48 1   
    39   21   49 1   
    40   22   50 1   
    41   22   51 1   
    42   22   52 1   
    43   23   25 1   
    44   24   29 1   
    45   26   28 1   
    46   27   53 1   
    47   27   54 1   
    48   29   55 1   
@<TRIPOS>SUBSTRUCTURE
     1 VSH         1 TEMP              0 ****  ****    0 ROOT
