@<TRIPOS>MOLECULE
VSI
   51    53     1     0     0
SMALL
bcc


@<TRIPOS>ATOM
      1 CBB         0.6040    0.5020    3.3050 c3        1 VSI     -0.173100
      2 CBA         1.7990    0.7980    2.4420 c         1 VSI      0.674100
      3 OBC         2.7560    1.4910    2.7980 o         1 VSI     -0.517100
      4 NAZ         1.7610    0.2410    1.1290 n         1 VSI     -0.481100
      5 CAU         2.8050    0.2670    0.2270 ca        1 VSI      0.191600
      6 CAV         4.1310   -0.1460    0.5730 ca        1 VSI     -0.032100
      7 CLX         4.4650   -0.8610    2.0670 cl        1 VSI     -0.008900
      8 CAW         5.1780   -0.0070   -0.3280 ca        1 VSI     -0.056500
      9 CAT         2.5870    0.6630   -1.1330 ca        1 VSI     -0.032100
     10 CLY         1.0270    1.0480   -1.6670 cl        1 VSI     -0.008900
     11 CAS         3.6380    0.7710   -2.0310 ca        1 VSI     -0.056500
     12 CAR         4.9490    0.4700   -1.6290 ca        1 VSI     -0.261300
     13 CAQ         6.0810    0.7220   -2.5330 c3        1 VSI      0.208100
     14 NAO         6.4110   -0.5790   -3.2830 n4        1 VSI     -0.800000
     15 CAN         7.5190   -0.4380   -4.2820 c2        1 VSI      0.607100
     16 NAP         8.2810    0.5670   -4.4830 n2        1 VSI     -0.627100
     17 NAL         7.7720   -1.6570   -5.1290 n4        1 VSI     -0.679800
     18 C           8.3170   -2.8680   -4.3490 c         1 VSI      0.538100
     19 O           8.0670   -2.8780   -3.1590 o         1 VSI     -0.436100
     20 CA          9.1450   -3.9020   -5.1530 c3        1 VSI      0.013300
     21 N           8.8640   -3.9090   -6.5280 na        1 VSI     -0.149400
     22 CAD         9.5670   -3.1160   -7.4780 ca        1 VSI     -0.097200
     23 CAC        10.3160   -1.9540   -7.3040 ca        1 VSI     -0.176000
     24 CAB        10.8290   -1.3410   -8.4600 ca        1 VSI      0.053000
     25 CBD        11.5810   -0.1420   -8.3140 cg        1 VSI      0.186800
     26 NBE        12.1920    0.8400   -8.1920 n1        1 VSI     -0.279800
     27 CAA        10.6170   -1.8860   -9.7370 ca        1 VSI     -0.086000
     28 CAF         9.8850   -3.0630   -9.9040 ca        1 VSI     -0.047000
     29 CAE         9.3530   -3.6880   -8.7840 ca        1 VSI     -0.062800
     30 CAI         8.5650   -4.9000   -8.5860 cc        1 VSI     -0.087200
     31 CAH         8.3160   -5.0270   -7.2380 cd        1 VSI     -0.122100
     32 H1          0.4590   -0.6000    3.4160 hc        1 VSI      0.091700
     33 H2          0.7800    0.9510    4.3160 hc        1 VSI      0.091700
     34 H3         -0.3200    0.9530    2.8660 hc        1 VSI      0.091700
     35 H4          0.8460    0.1010    0.7470 hn        1 VSI      0.342500
     36 H5          6.2010   -0.2700   -0.0090 ha        1 VSI      0.153500
     37 H6          3.4410    1.1370   -3.0540 ha        1 VSI      0.153500
     38 H7          7.0080    1.0140   -1.9600 hx        1 VSI      0.112200
     39 H8          5.8300    1.5000   -3.3080 hx        1 VSI      0.112200
     40 H9          6.6780   -1.2910   -2.5770 hn        1 VSI      0.475300
     41 H10         8.2070    1.4250   -3.9700 hn        1 VSI      0.517400
     42 H11         6.9070   -1.9310   -5.6150 hn        1 VSI      0.501300
     43 H12         8.9050   -4.9010   -4.6710 h1        1 VSI      0.149700
     44 H13        10.2210   -3.6180   -4.9230 h1        1 VSI      0.149700
     45 H14        10.5760   -1.5570   -6.3130 ha        1 VSI      0.129000
     46 H15        11.0480   -1.3810  -10.6200 ha        1 VSI      0.183000
     47 H16         9.7380   -3.4920  -10.9110 ha        1 VSI      0.182000
     48 H17         8.2430   -5.5760   -9.3800 ha        1 VSI      0.202000
     49 H18         7.7870   -5.8120   -6.6910 h4        1 VSI      0.193000
     50 HAO2        5.5470   -0.8980   -3.7440 hn        1 VSI      0.475300
     51 HAL2        8.4700   -1.4070   -5.8700 hn        1 VSI      0.501300
@<TRIPOS>BOND
     1    1    2 1   
     2    1   32 1   
     3    1   33 1   
     4    1   34 1   
     5    2    3 2   
     6    2    4 1   
     7    4    5 1   
     8    4   35 1   
     9    5    6 ar  
    10    5    9 ar  
    11    6    7 1   
    12    6    8 ar  
    13    8   12 ar  
    14    8   36 1   
    15    9   10 1   
    16    9   11 ar  
    17   11   12 ar  
    18   11   37 1   
    19   12   13 1   
    20   13   14 1   
    21   13   38 1   
    22   13   39 1   
    23   14   15 1   
    24   14   40 1   
    25   14   50 1   
    26   15   16 2   
    27   15   17 1   
    28   16   41 1   
    29   17   18 1   
    30   17   42 1   
    31   17   51 1   
    32   18   19 2   
    33   18   20 1   
    34   20   21 1   
    35   20   43 1   
    36   20   44 1   
    37   21   22 1   
    38   21   31 1   
    39   22   23 ar  
    40   22   29 ar  
    41   23   24 ar  
    42   23   45 1   
    43   24   25 1   
    44   24   27 ar  
    45   25   26 3   
    46   27   28 ar  
    47   27   46 1   
    48   28   29 ar  
    49   28   47 1   
    50   29   30 1   
    51   30   31 2   
    52   30   48 1   
    53   31   49 1   
@<TRIPOS>SUBSTRUCTURE
     1 VSI         1 TEMP              0 ****  ****    0 ROOT
