@<TRIPOS>MOLECULE
VSI
   49    51     1     0     0
SMALL
bcc


@<TRIPOS>ATOM
      1 CBB        -7.3770    3.0160    0.8290 c3        1 VSI     -0.174100
      2 CBA        -6.4070    1.9910    0.2910 c         1 VSI      0.665100
      3 OBC        -6.5360    1.4980   -0.8410 o         1 VSI     -0.570100
      4 NAZ        -5.3440    1.6550    1.1330 n         1 VSI     -0.486100
      5 CAU        -4.3880    0.6700    0.8250 ca        1 VSI      0.068600
      6 CAV        -3.4290    0.8640   -0.1980 ca        1 VSI      0.013400
      7 CLX        -3.3930    2.3050   -1.0940 cl        1 VSI     -0.075900
      8 CAW        -2.4820   -0.1210   -0.4890 ca        1 VSI     -0.100000
      9 CAT        -4.3200   -0.5370    1.5640 ca        1 VSI      0.013400
     10 CLY        -5.4200   -0.8230    2.8320 cl        1 VSI     -0.075900
     11 CAS        -3.3580   -1.5070    1.2840 ca        1 VSI     -0.100000
     12 CAR        -2.4450   -1.3050    0.2480 ca        1 VSI     -0.093300
     13 CAQ        -1.4490   -2.3780   -0.0910 c3        1 VSI      0.238100
     14 NAO        -0.0810   -1.8990   -0.0040 nh        1 VSI     -0.798200
     15 CAN         0.9550   -2.8560   -0.1990 c2        1 VSI      0.658800
     16 NAP         0.7070   -4.0430   -0.6830 n2        1 VSI     -0.852100
     17 NAL         2.3040   -2.3930    0.0850 n         1 VSI     -0.542400
     18 C           2.6510   -1.5900    1.1500 c         1 VSI      0.644100
     19 O           1.8400   -1.2470    2.0320 o         1 VSI     -0.597100
     20 CA          4.1250   -1.1710    1.3250 c3        1 VSI     -0.029700
     21 N           4.9140   -1.0400    0.1490 na        1 VSI     -0.089400
     22 CAD         5.0380    0.1150   -0.6440 ca        1 VSI     -0.049200
     23 CAC         4.5900    1.4250   -0.4320 ca        1 VSI     -0.099000
     24 CAB         4.9030    2.3770   -1.4040 ca        1 VSI      0.003000
     25 CBD         4.4680    3.7200   -1.2280 cg        1 VSI      0.231800
     26 NBE         4.1150    4.8200   -1.0870 n1        1 VSI     -0.359800
     27 CAA         5.6440    2.0420   -2.5600 ca        1 VSI     -0.117000
     28 CAF         6.0890    0.7470   -2.7710 ca        1 VSI     -0.085000
     29 CAE         5.7950   -0.2350   -1.8250 ca        1 VSI     -0.076800
     30 CAI         6.0940   -1.6460   -1.7220 cc        1 VSI     -0.171200
     31 CAH         5.5370   -2.1000   -0.5340 cd        1 VSI     -0.116100
     32 H1         -7.8720    2.6390    1.7560 hc        1 VSI      0.069367
     33 H2         -6.8480    3.9720    1.0580 hc        1 VSI      0.069367
     34 H3         -8.1570    3.2080    0.0530 hc        1 VSI      0.069367
     35 H4         -5.4300    1.8810    2.0980 hn        1 VSI      0.320500
     36 H5         -1.7540    0.0400   -1.3020 ha        1 VSI      0.159500
     37 H6         -3.3280   -2.4350    1.8770 ha        1 VSI      0.159500
     38 H7         -1.6200   -3.2720    0.5790 h1        1 VSI      0.066200
     39 H8         -1.6310   -2.7140   -1.1540 h1        1 VSI      0.066200
     40 H9          0.0720   -1.2870    0.7780 hn        1 VSI      0.430800
     41 H10         1.4960   -4.6170   -0.8850 hn        1 VSI      0.400400
     42 H11         2.9690   -2.5580   -0.6360 hn        1 VSI      0.330500
     43 H12         4.1080   -0.1810    1.8690 h1        1 VSI      0.098700
     44 H13         4.5940   -1.9460    2.0000 h1        1 VSI      0.098700
     45 H14         4.0130    1.6990    0.4620 ha        1 VSI      0.151000
     46 H15         5.8660    2.8280   -3.2980 ha        1 VSI      0.147000
     47 H16         6.6680    0.4910   -3.6710 ha        1 VSI      0.146000
     48 H17         6.6580   -2.2300   -2.4450 ha        1 VSI      0.166000
     49 H18         5.5600   -3.0990   -0.0930 h4        1 VSI      0.171000
@<TRIPOS>BOND
     1    1    2 1   
     2    1   32 1   
     3    1   33 1   
     4    1   34 1   
     5    2    3 2   
     6    2    4 1   
     7    4    5 1   
     8    4   35 1   
     9    5    6 ar  
    10    5    9 ar  
    11    6    7 1   
    12    6    8 ar  
    13    8   12 ar  
    14    8   36 1   
    15    9   10 1   
    16    9   11 ar  
    17   11   12 ar  
    18   11   37 1   
    19   12   13 1   
    20   13   14 1   
    21   13   38 1   
    22   13   39 1   
    23   14   15 1   
    24   14   40 1   
    25   15   16 2   
    26   15   17 1   
    27   16   41 1   
    28   17   18 1   
    29   17   42 1   
    30   18   19 2   
    31   18   20 1   
    32   20   21 1   
    33   20   43 1   
    34   20   44 1   
    35   21   22 1   
    36   21   31 1   
    37   22   23 ar  
    38   22   29 ar  
    39   23   24 ar  
    40   23   45 1   
    41   24   25 1   
    42   24   27 ar  
    43   25   26 3   
    44   27   28 ar  
    45   27   46 1   
    46   28   29 ar  
    47   28   47 1   
    48   29   30 1   
    49   30   31 2   
    50   30   48 1   
    51   31   49 1   
@<TRIPOS>SUBSTRUCTURE
     1 VSI         1 TEMP              0 ****  ****    0 ROOT
