@<TRIPOS>MOLECULE
VSI
   51    53     1     0     0
SMALL
bcc


@<TRIPOS>ATOM
      1 CBB         0.7130    0.3720    3.3960 c3        1 VSI     -0.173100
      2 CBA         1.8680    0.7010    2.4920 c         1 VSI      0.674100
      3 OBC         2.8020    1.4460    2.8030 o         1 VSI     -0.517100
      4 NAZ         1.8190    0.1130    1.1930 ns        1 VSI     -0.481100
      5 CAU         2.8340    0.1640    0.2600 ca        1 VSI      0.191600
      6 CAV         4.1870   -0.1790    0.5760 ca        1 VSI     -0.032100
      7 ClX         4.5970   -0.8420    2.0750 cl        1 VSI     -0.008900
      8 CAW         5.2000   -0.0140   -0.3590 ca        1 VSI     -0.056500
      9 CAT         2.5590    0.5180   -1.1010 ca        1 VSI     -0.032100
     10 ClY         0.9680    0.8180   -1.5980 cl        1 VSI     -0.008900
     11 CAS         3.5780    0.6520   -2.0330 ca        1 VSI     -0.056500
     12 CAR         4.9120    0.4210   -1.6620 ca        1 VSI     -0.261300
     13 CAQ         6.0060    0.7020   -2.6050 c3        1 VSI      0.208100
     14 NAO         6.3730   -0.5990   -3.3350 ny        1 VSI     -0.800000
     15 CAN         7.4450   -0.4320   -4.3690 c2        1 VSI      0.607100
     16 NAP         8.1540    0.6010   -4.6150 n2        1 VSI     -0.627100
     17 NAL         7.7300   -1.6590   -5.1950 ny        1 VSI     -0.679800
     18 C           8.3510   -2.8250   -4.4040 c         1 VSI      0.538100
     19 O           8.1360   -2.8180   -3.2070 o         1 VSI     -0.436100
     20 CA          9.2030   -3.8400   -5.2080 c3        1 VSI      0.013300
     21 N           8.8840   -3.8930   -6.5740 na        1 VSI     -0.149400
     22 CAD         9.5240   -3.0920   -7.5610 ca        1 VSI     -0.097200
     23 CAC        10.2240   -1.8940   -7.4360 ca        1 VSI     -0.176000
     24 CAB        10.6760   -1.2860   -8.6190 ca        1 VSI      0.053000
     25 CBD        11.3770   -0.0520   -8.5220 cg        1 VSI      0.186800
     26 NBE        11.9450    0.9590   -8.4410 n1        1 VSI     -0.279800
     27 CAA        10.4540   -1.8710   -9.8770 ca        1 VSI     -0.086000
     28 CAF         9.7720   -3.0840   -9.9960 ca        1 VSI     -0.047000
     29 CAE         9.3000   -3.7040   -8.8470 ca        1 VSI     -0.062800
     30 CAI         8.5730   -4.9450   -8.5980 cc        1 VSI     -0.087200
     31 CAH         8.3680   -5.0510   -7.2420 cd        1 VSI     -0.122100
     32 H1          0.6220   -0.7330    3.5360 hc        1 VSI      0.091700
     33 H2          0.8970    0.8530    4.3900 hc        1 VSI      0.091700
     34 H3         -0.2430    0.7700    2.9740 hc        1 VSI      0.091700
     35 H4          0.9010   -0.0790    0.8410 hn        1 VSI      0.342500
     36 H5          6.2430   -0.2220   -0.0640 ha        1 VSI      0.153500
     37 H6          3.3350    0.9840   -3.0570 ha        1 VSI      0.153500
     38 H7          6.9340    1.0500   -2.0670 hx        1 VSI      0.112200
     39 H8          5.6970    1.4500   -3.3900 hx        1 VSI      0.112200
     40 H9          6.6920   -1.2820   -2.6220 hn        1 VSI      0.475300
     41 H10         8.0550    1.4670   -4.1200 hn        1 VSI      0.517400
     42 H11         6.8660   -1.9830   -5.6500 hn        1 VSI      0.501300
     43 H12         9.0230   -4.8370   -4.6960 h1        1 VSI      0.149700
     44 H13        10.2710   -3.5030   -5.0150 h1        1 VSI      0.149700
     45 H14        10.4930   -1.4620   -6.4620 ha        1 VSI      0.129000
     46 H15        10.8370   -1.3690  -10.7830 ha        1 VSI      0.183000
     47 H16         9.6170   -3.5420  -10.9880 ha        1 VSI      0.182000
     48 H17         8.2610   -5.6540   -9.3680 ha        1 VSI      0.202000
     49 H18         7.8910   -5.8460   -6.6610 h4        1 VSI      0.193000
     50 HAO2        5.5130   -0.9680   -3.7630 hn        1 VSI      0.475300
     51 HAL2        8.3950   -1.3950   -5.9610 hn        1 VSI      0.501300
@<TRIPOS>BOND
     1    1    2 1   
     2    1   32 1   
     3    1   33 1   
     4    1   34 1   
     5    2    3 2   
     6    2    4 1   
     7    4    5 1   
     8    4   35 1   
     9    5    6 ar  
    10    5    9 ar  
    11    6    7 1   
    12    6    8 ar  
    13    8   12 ar  
    14    8   36 1   
    15    9   10 1   
    16    9   11 ar  
    17   11   12 ar  
    18   11   37 1   
    19   12   13 1   
    20   13   14 1   
    21   13   38 1   
    22   13   39 1   
    23   14   15 1   
    24   14   40 1   
    25   14   50 1   
    26   15   16 2   
    27   15   17 1   
    28   16   41 1   
    29   17   18 1   
    30   17   42 1   
    31   17   51 1   
    32   18   19 2   
    33   18   20 1   
    34   20   21 1   
    35   20   43 1   
    36   20   44 1   
    37   21   22 1   
    38   21   31 1   
    39   22   23 ar  
    40   22   29 ar  
    41   23   24 ar  
    42   23   45 1   
    43   24   25 1   
    44   24   27 ar  
    45   25   26 3   
    46   27   28 ar  
    47   27   46 1   
    48   28   29 ar  
    49   28   47 1   
    50   29   30 1   
    51   30   31 2   
    52   30   48 1   
    53   31   49 1   
@<TRIPOS>SUBSTRUCTURE
     1 VSI         1 TEMP              0 ****  ****    0 ROOT
