@<TRIPOS>MOLECULE
VSI
   52    53     1     0     0
SMALL
bcc


@<TRIPOS>ATOM
      1 CBB      -829.8240  485.3750  526.4950 c3        1 VSI     -0.258000
      2 CBA      -829.5620  484.8950  527.8750 c2        1 VSI      0.294000
      3 OBC      -828.5440  484.8030  528.5220 o         1 VSI     -0.117000
      4 NAZ      -830.8700  484.4220  528.6150 n4        1 VSI     -0.121000
      5 CAU      -830.6560  483.9420  529.9760 ca        1 VSI      0.046000
      6 CAV      -830.7170  484.8480  531.0650 ca        1 VSI     -0.101000
      7 CLX      -831.0630  486.4780  530.8190 cl        1 VSI      0.131000
      8 CAW      -830.4880  484.3910  532.3640 ca        1 VSI      0.057000
      9 CAT      -830.3780  482.5710  530.2090 ca        1 VSI     -0.101000
     10 CLY      -830.3180  481.4700  528.9350 cl        1 VSI      0.131000
     11 CAS      -830.1500  482.1180  531.5090 ca        1 VSI      0.057000
     12 CAR      -830.1970  483.0190  532.6100 ca        1 VSI     -0.191000
     13 CAQ      -829.9560  482.5680  533.9060 c2        1 VSI      0.247000
     14 NAO       617.8320 -355.1760 -392.4960 n3        1 VSI     -0.373000
     15 CAN       617.3560 -356.2480 -393.2820 c2        1 VSI      0.115000
     16 NAP       616.1790 -356.6890 -393.5680 n2        1 VSI     -0.233000
     17 NAL       618.4810 -356.9610 -394.0280 n4        1 VSI     -0.091000
     18 C         619.4420 -357.6820 -393.1220 c2        1 VSI      0.234000
     19 O         619.2170 -357.6630 -391.9220 o         1 VSI     -0.178000
     20 CA        620.6600 -358.3570 -393.7730 c3        1 VSI     -0.022000
     21 N         620.6080 -358.4330 -395.1860 na        1 VSI     -0.235000
     22 CAD       621.0970 -357.4130 -396.0430 ca        1 VSI     -0.040000
     23 CAC       621.3010 -356.0540 -395.8070 ca        1 VSI     -0.154000
     24 CAB       621.7240 -355.2680 -396.8880 ca        1 VSI      0.042000
     25 CBD       621.9370 -353.8770 -396.6820 c1        1 VSI     -0.128000
     26 NBE       622.1100 -352.7390 -396.5140 n1        1 VSI      0.020000
     27 CAA       621.9420 -355.8250 -398.1620 ca        1 VSI     -0.097000
     28 CAF       621.7490 -357.1850 -398.3930 ca        1 VSI     -0.063000
     29 CAE       621.3300 -357.9940 -397.3430 ca        1 VSI     -0.051000
     30 CAI       621.0400 -359.4160 -397.2210 c2        1 VSI     -0.131000
     31 CAH       620.6510 -359.6540 -395.9200 c2        1 VSI     -0.081000
     32 H1       -830.2600  484.5640  525.8540 hc        1 VSI      0.176333
     33 H2       -828.8390  485.6910  526.0450 hc        1 VSI      0.176333
     34 H3       -830.5130  486.2600  526.4930 hc        1 VSI      0.176333
     35 H4       -831.5240  485.2200  528.6310 hn        1 VSI      0.279000
     36 H5       -830.5330  485.1070  533.2120 ha        1 VSI      0.217000
     37 H6       -829.9290  481.0430  531.6840 ha        1 VSI      0.217000
     38 H7       -829.9860  483.2550  534.7770 ha        1 VSI      0.201000
     39 H8       -829.7250  481.5030  534.1180 ha        1 VSI      0.201000
     40 H9        618.4180 -355.4380 -391.7290 hn        1 VSI      0.237000
     41 H10       615.3880 -356.2830 -393.1140 hn        1 VSI      0.231000
     42 H11       619.0000 -356.2620 -394.5840 hn        1 VSI      0.285500
     43 H12       620.7180 -359.3910 -393.3150 h1        1 VSI      0.172000
     44 H13       621.5490 -357.7500 -393.4140 h1        1 VSI      0.172000
     45 H14       621.1840 -355.6070 -394.8100 ha        1 VSI      0.132000
     46 H15       622.2770 -355.1730 -398.9860 ha        1 VSI      0.170000
     47 H16       621.9280 -357.6140 -399.3920 ha        1 VSI      0.168000
     48 H17       621.1220 -360.1450 -398.0270 ha        1 VSI      0.189000
     49 H18       620.3700 -360.5920 -395.4330 h4        1 VSI      0.186000
     50 HAZ2     -831.2940  483.6700  528.0480 hn        1 VSI      0.279000
     51 HAO2      617.1330 -354.5020 -392.2610 hn        1 VSI      0.237000
     52 HAL2      618.0680 -357.6470 -394.6820 hn        1 VSI      0.285500
@<TRIPOS>BOND
     1    1    2 1   
     2    1   32 1   
     3    1   33 1   
     4    1   34 1   
     5    2    3 1   
     6    2    4 1   
     7    4    5 1   
     8    4   35 1   
     9    4   50 1   
    10    5    6 1   
    11    5    9 1   
    12    6    7 1   
    13    6    8 1   
    14    8   12 1   
    15    8   36 1   
    16    9   10 1   
    17    9   11 1   
    18   11   12 1   
    19   11   37 1   
    20   12   13 1   
    21   13   38 1   
    22   13   39 1   
    23   14   15 1   
    24   14   40 1   
    25   14   51 1   
    26   15   16 1   
    27   15   17 1   
    28   16   41 1   
    29   17   18 1   
    30   17   42 1   
    31   17   52 1   
    32   18   19 1   
    33   18   20 1   
    34   20   21 1   
    35   20   43 1   
    36   20   44 1   
    37   21   22 1   
    38   21   31 1   
    39   22   23 1   
    40   22   29 1   
    41   23   24 1   
    42   23   45 1   
    43   24   25 1   
    44   24   27 1   
    45   25   26 1   
    46   27   28 1   
    47   27   46 1   
    48   28   29 1   
    49   28   47 1   
    50   29   30 1   
    51   30   31 1   
    52   30   48 1   
    53   31   49 1   
@<TRIPOS>SUBSTRUCTURE
     1 VSI         1 TEMP              0 ****  ****    0 ROOT
