@<TRIPOS>MOLECULE
VSO
    9     8     1     0     0
SMALL
bcc


@<TRIPOS>ATOM
      1 O1         -0.1680   -1.2190    1.0590 o         1 VSO     -0.751533
      2 S2         -0.0080    0.0290    0.4060 s6        1 VSO      1.449700
      3 C3          0.5700   -0.3800   -1.1900 c2        1 VSO     -0.357100
      4 C4         -0.0280   -0.0830   -2.3340 c2        1 VSO     -0.136000
      5 O8         -1.2260    0.7300    0.2130 o         1 VSO     -0.751533
      6 O9          1.0230    0.8260    0.9670 o         1 VSO     -0.751533
      7 H3          1.5200   -0.9340   -1.1910 h4        1 VSO      0.125000
      8 H41         0.3710   -0.3600   -3.3200 ha        1 VSO      0.087000
      9 H42        -0.9800    0.4710   -2.3600 ha        1 VSO      0.087000
@<TRIPOS>BOND
     1    1    2 1   
     2    2    3 1   
     3    2    5 1   
     4    2    6 1   
     5    3    4 2   
     6    3    7 1   
     7    4    8 1   
     8    4    9 1   
@<TRIPOS>SUBSTRUCTURE
     1 VSO         1 TEMP              0 ****  ****    0 ROOT
