@<TRIPOS>MOLECULE
VSO
    9     8     1     0     0
SMALL
bcc


@<TRIPOS>ATOM
      1 O1          0.0200    0.0260    0.1220 o         1 VSO     -0.751533
      2 S2          1.4330    0.0110   -0.0070 s6        1 VSO      1.449700
      3 C3          2.0240   -0.0390    1.6360 c2        1 VSO     -0.357100
      4 C4          2.7840   -0.9880    2.1600 c2        1 VSO     -0.136000
      5 O8          1.9330   -1.1570   -0.6370 o         1 VSO     -0.751533
      6 O9          1.9590    1.2150   -0.5400 o         1 VSO     -0.751533
      7 H3          1.7080    0.8190    2.2490 h4        1 VSO      0.125000
      8 H41         3.1140   -1.8560    1.5690 ha        1 VSO      0.087000
      9 H42         3.1350   -0.9800    3.2020 ha        1 VSO      0.087000
@<TRIPOS>BOND
     1    1    2 1   
     2    2    3 1   
     3    2    5 1   
     4    2    6 1   
     5    3    4 2   
     6    3    7 1   
     7    4    8 1   
     8    4    9 1   
@<TRIPOS>SUBSTRUCTURE
     1 VSO         1 TEMP              0 ****  ****    0 ROOT
