@<TRIPOS>MOLECULE
VSP
   48    50     1     0     0
SMALL
bcc


@<TRIPOS>ATOM
      1 C10        -0.0570    0.0760   -0.0120 cc        1 VSP      0.375900
      2 C13        -1.8110   -1.9220   -1.3250 ca        1 VSP     -0.157000
      3 C17        -5.2990   -4.3690   -2.1840 c3        1 VSP     -0.319600
      4 C21        -2.0530   -3.1310   -3.4220 ca        1 VSP     -0.184000
      5 C22        -1.4640   -2.0610   -4.0860 ca        1 VSP     -0.095000
      6 O20        -3.4220   -5.8140   -3.0980 o         1 VSP     -0.644800
      7 N01         2.2050   -0.7920   -2.1360 nh        1 VSP     -0.941500
      8 C11        -0.7910    0.3660   -1.2690 c3        1 VSP     -0.053400
      9 C02         2.3560   -0.8510   -0.7650 ca        1 VSP      0.748200
     10 C12        -1.2110   -0.8620   -2.0050 ca        1 VSP     -0.059300
     11 C03         1.3000   -0.4250    0.0980 ca        1 VSP     -0.493500
     12 C23        -1.0420   -0.9300   -3.3920 ca        1 VSP     -0.172000
     13 N24         2.7430   -0.8800    2.0760 nb        1 VSP     -0.738000
     14 C04         1.5560   -0.4680    1.5300 ca        1 VSP      0.471800
     15 C14        -2.2430   -3.0720   -2.0230 ca        1 VSP      0.168600
     16 N05         0.3650   -0.0400    2.1470 na        1 VSP      0.000200
     17 N15        -2.8440   -4.1270   -1.3180 nh        1 VSP     -0.780500
     18 C25         3.6480   -1.2450    1.1420 ca        1 VSP      0.693900
     19 N26         3.5440   -1.2700   -0.2150 nb        1 VSP     -0.794000
     20 C06         0.2050    0.1960    3.5860 c3        1 VSP      0.078000
     21 S16        -3.8660   -5.2680   -1.8810 s6        1 VSP      1.454900
     22 C07         0.2120    1.6820    3.9420 c3        1 VSP     -0.109100
     23 C08        -1.0640   -0.4490    4.1410 c3        1 VSP     -0.109100
     24 C18        -6.3870   -5.2670   -2.7120 c3        1 VSP     -0.076100
     25 N09        -0.5600    0.2980    1.2290 nd        1 VSP     -0.517100
     26 O19        -4.1050   -6.1670   -0.8230 o         1 VSP     -0.644800
     27 H13        -1.9360   -1.8510   -0.2320 ha        1 VSP      0.150000
     28 H17        -5.6770   -3.8630   -1.2560 h1        1 VSP      0.112200
     29 H17A       -5.1250   -3.5460   -2.9260 h1        1 VSP      0.112200
     30 H21        -2.3510   -4.0250   -3.9980 ha        1 VSP      0.170000
     31 H22        -1.3280   -2.1160   -5.1780 ha        1 VSP      0.140000
     32 HN01        2.8890   -1.2350   -2.7040 hn        1 VSP      0.431800
     33 HN0A        1.2710   -0.7880   -2.4780 hn        1 VSP      0.431800
     34 H11        -0.1260    1.0010   -1.9190 hc        1 VSP      0.074700
     35 H11A       -1.7150    0.9750   -1.0510 hc        1 VSP      0.074700
     36 H23        -0.5860   -0.0880   -3.9360 ha        1 VSP      0.137000
     37 HN15       -2.6130   -4.1250   -0.3470 hn        1 VSP      0.460800
     38 H25         4.6310   -1.5850    1.5370 h5        1 VSP      0.053100
     39 H06         1.1000   -0.2960    4.0750 h1        1 VSP      0.087700
     40 H07         1.1460    2.1760    3.5820 hc        1 VSP      0.049700
     41 H07A        0.1620    1.7810    5.0530 hc        1 VSP      0.049700
     42 H07B       -0.6660    2.2060    3.4950 hc        1 VSP      0.049700
     43 H08        -1.0930   -1.5410    3.9110 hc        1 VSP      0.049700
     44 H08A       -1.0700   -0.3170    5.2500 hc        1 VSP      0.049700
     45 H08B       -1.9780    0.0310    3.7180 hc        1 VSP      0.049700
     46 H18        -6.6340   -6.0640   -1.9660 hc        1 VSP      0.055033
     47 H18A       -6.0650   -5.7530   -3.6670 hc        1 VSP      0.055033
     48 H18B       -7.3140   -4.6780   -2.9140 hc        1 VSP      0.055033
@<TRIPOS>BOND
     1    1    8 1   
     2    1   11 1   
     3    1   25 2   
     4    2   10 ar  
     5    2   15 ar  
     6    2   27 1   
     7    3   21 1   
     8    3   24 1   
     9    3   28 1   
    10    3   29 1   
    11    4    5 ar  
    12    4   15 ar  
    13    4   30 1   
    14    5   12 ar  
    15    5   31 1   
    16    6   21 2   
    17    7    9 1   
    18    7   32 1   
    19    7   33 1   
    20    8   10 1   
    21    8   34 1   
    22    8   35 1   
    23    9   11 ar  
    24    9   19 ar  
    25   10   12 ar  
    26   11   14 ar  
    27   12   36 1   
    28   13   14 ar  
    29   13   18 ar  
    30   14   16 1   
    31   15   17 1   
    32   16   20 1   
    33   16   25 1   
    34   17   21 1   
    35   17   37 1   
    36   18   19 ar  
    37   18   38 1   
    38   20   22 1   
    39   20   23 1   
    40   20   39 1   
    41   21   26 2   
    42   22   40 1   
    43   22   41 1   
    44   22   42 1   
    45   23   43 1   
    46   23   44 1   
    47   23   45 1   
    48   24   46 1   
    49   24   47 1   
    50   24   48 1   
@<TRIPOS>SUBSTRUCTURE
     1 VSP         1 TEMP              0 ****  ****    0 ROOT
