@<TRIPOS>MOLECULE
VSP
   48    50     1     0     0
SMALL
bcc


@<TRIPOS>ATOM
      1 C10        -0.0480    0.0230    0.0050 cc        1 VSP      0.375900
      2 C13        -1.8190   -2.0130   -1.2250 ca        1 VSP     -0.157000
      3 C17        -5.2900   -4.5340   -1.9280 c3        1 VSP     -0.319600
      4 C21        -2.1300   -3.2320   -3.3080 ca        1 VSP     -0.185000
      5 C22        -1.5930   -2.1510   -4.0000 ca        1 VSP     -0.095000
      6 O20        -3.4250   -5.9430   -2.9180 o         1 VSP     -0.644800
      7 N01         2.1330   -0.8070   -2.2170 nv        1 VSP     -0.941500
      8 C11        -0.8440    0.2960   -1.2190 c3        1 VSP     -0.053400
      9 C02         2.3450   -0.8600   -0.8530 ca        1 VSP      0.748200
     10 C12        -1.2710   -0.9420   -1.9330 ca        1 VSP     -0.059300
     11 C03         1.3210   -0.4510    0.0550 ca        1 VSP     -0.493500
     12 C23        -1.1630   -1.0100   -3.3270 ca        1 VSP     -0.172000
     13 N24         2.8590   -0.8730    1.9670 nb        1 VSP     -0.738000
     14 C04         1.6420   -0.4860    1.4740 ca        1 VSP      0.471800
     15 C14        -2.2590   -3.1720   -1.9020 ca        1 VSP      0.168600
     16 N05         0.4710   -0.0790    2.1430 na        1 VSP      0.000200
     17 N15        -2.8060   -4.2380   -1.1690 nu        1 VSP     -0.780500
     18 C25         3.7290   -1.2230    0.9950 ca        1 VSP      0.693900
     19 N26         3.5650   -1.2540   -0.3560 nb        1 VSP     -0.794000
     20 C06         0.3720    0.1610    3.5870 c3        1 VSP      0.078000
     21 S16        -3.8270   -5.4020   -1.6850 s6        1 VSP      1.454900
     22 C07         0.3780    1.6490    3.9370 c3        1 VSP     -0.109100
     23 C08        -0.8630   -0.4960    4.2000 c3        1 VSP     -0.109100
     24 C18        -6.3810   -5.4570   -2.4060 c3        1 VSP     -0.076100
     25 N09        -0.5000    0.2390    1.2660 nd        1 VSP     -0.517100
     26 O19        -4.0020   -6.3020   -0.6140 o         1 VSP     -0.644800
     27 H13        -1.8960   -1.9420   -0.1280 ha        1 VSP      0.150000
     28 H17        -5.6380   -4.0330   -0.9860 h1        1 VSP      0.112200
     29 H17A       -5.1660   -3.7100   -2.6790 h1        1 VSP      0.112200
     30 H21        -2.4350   -4.1330   -3.8680 ha        1 VSP      0.170000
     31 H22        -1.5050   -2.2070   -5.0960 ha        1 VSP      0.140000
     32 HN01        1.1850   -0.8220   -2.5170 hn        1 VSP      0.431800
     33 HN0A        2.8000   -1.2390   -2.8140 hn        1 VSP      0.431800
     34 H11        -0.2210    0.9420   -1.8990 hc        1 VSP      0.074700
     35 H11A       -1.7690    0.8860   -0.9610 hc        1 VSP      0.074700
     36 H23        -0.7490   -0.1620   -3.8920 ha        1 VSP      0.137000
     37 HN15       -2.5340   -4.2270   -0.2090 hn        1 VSP      0.460800
     38 H25         4.7350   -1.5430    1.3460 h5        1 VSP      0.053100
     39 H06         1.2940   -0.3190    4.0370 h1        1 VSP      0.087700
     40 H07         1.2900    2.1510    3.5340 hc        1 VSP      0.049700
     41 H07A       -0.5250    2.1600    3.5260 hc        1 VSP      0.049700
     42 H07B        0.3760    1.7520    5.0480 hc        1 VSP      0.049700
     43 H08        -1.8010   -0.0270    3.8170 hc        1 VSP      0.049700
     44 H08A       -0.8910   -1.5890    3.9750 hc        1 VSP      0.049700
     45 H08B       -0.8210   -0.3610    5.3080 hc        1 VSP      0.049700
     46 H18        -6.5790   -6.2550   -1.6480 hc        1 VSP      0.055033
     47 H18A       -6.0900   -5.9390   -3.3730 hc        1 VSP      0.055033
     48 H18B       -7.3280   -4.8880   -2.5690 hc        1 VSP      0.055033
@<TRIPOS>BOND
     1    1    8 1   
     2    1   11 1   
     3    1   25 2   
     4    2   10 ar  
     5    2   15 ar  
     6    2   27 1   
     7    3   21 1   
     8    3   24 1   
     9    3   28 1   
    10    3   29 1   
    11    4    5 ar  
    12    4   15 ar  
    13    4   30 1   
    14    5   12 ar  
    15    5   31 1   
    16    6   21 2   
    17    7    9 1   
    18    7   32 1   
    19    7   33 1   
    20    8   10 1   
    21    8   34 1   
    22    8   35 1   
    23    9   11 ar  
    24    9   19 ar  
    25   10   12 ar  
    26   11   14 ar  
    27   12   36 1   
    28   13   14 ar  
    29   13   18 ar  
    30   14   16 1   
    31   15   17 1   
    32   16   20 1   
    33   16   25 1   
    34   17   21 1   
    35   17   37 1   
    36   18   19 ar  
    37   18   38 1   
    38   20   22 1   
    39   20   23 1   
    40   20   39 1   
    41   21   26 2   
    42   22   40 1   
    43   22   41 1   
    44   22   42 1   
    45   23   43 1   
    46   23   44 1   
    47   23   45 1   
    48   24   46 1   
    49   24   47 1   
    50   24   48 1   
@<TRIPOS>SUBSTRUCTURE
     1 VSP         1 TEMP              0 ****  ****    0 ROOT
