@<TRIPOS>MOLECULE
VSP
   50    52     1     0     0
SMALL
bcc


@<TRIPOS>ATOM
      1 C10         0.7880   -0.8130   -0.4510 cc        1 VSP      0.321900
      2 C13        -2.0160   -2.7520   -1.0790 ca        1 VSP     -0.091000
      3 C17        -6.4820   -4.0860   -1.9450 c3        1 VSP     -0.398600
      4 C21        -1.9380   -5.1260   -0.5000 ca        1 VSP     -0.075000
      5 C22        -0.5480   -5.0910   -0.6030 ca        1 VSP     -0.095000
      6 O20        -4.3780   -5.0370   -3.0310 o         1 VSP     -0.549300
      7 N01         2.1080    0.9000   -2.9560 n4        1 VSP     -0.830300
      8 C11         0.0870   -1.4830   -1.5740 c3        1 VSP     -0.041400
      9 C02         2.3850    1.0860   -1.5120 ca        1 VSP      0.554200
     10 C12        -0.6240   -2.7380   -1.1830 ca        1 VSP     -0.063300
     11 C03         1.7430    0.2730   -0.5600 ca        1 VSP     -0.432500
     12 C23         0.1070   -3.9090   -0.9410 ca        1 VSP     -0.061000
     13 N24         3.0050    1.5320    1.1980 nb        1 VSP     -0.612000
     14 C04         2.1140    0.5610    0.8410 ca        1 VSP      0.461800
     15 C14        -2.6750   -3.9550   -0.7530 ca        1 VSP     -0.060400
     16 N05         1.3740   -0.3400    1.6250 na        1 VSP      0.046200
     17 N15        -4.1300   -3.9790   -0.6700 n4        1 VSP     -0.569300
     18 C25         3.5260    2.2170    0.1630 ca        1 VSP      0.695900
     19 N26         3.2660    2.0500   -1.1770 nb        1 VSP     -0.684000
     20 C06         1.4430   -0.4300    3.1070 c3        1 VSP      0.070000
     21 S16        -4.9010   -3.9200   -2.4270 s6        1 VSP      1.393900
     22 C07         0.0850   -0.1790    3.7530 c3        1 VSP     -0.116100
     23 C08         2.0020   -1.7710    3.5680 c3        1 VSP     -0.116100
     24 C18        -7.3900   -4.0750   -3.1660 c3        1 VSP     -0.097100
     25 N09         0.6150   -1.1260    0.8620 nd        1 VSP     -0.437100
     26 O19        -4.5670   -2.6400   -2.8160 o         1 VSP     -0.549300
     27 H13        -2.5900   -1.8290   -1.2710 ha        1 VSP      0.164000
     28 H17        -6.7060   -5.0450   -1.3920 h1        1 VSP      0.160200
     29 H17A       -6.8540   -3.2690   -1.2620 h1        1 VSP      0.160200
     30 H21        -2.4340   -6.0740   -0.2310 ha        1 VSP      0.166000
     31 H22         0.0330   -6.0100   -0.4120 ha        1 VSP      0.182000
     32 HN01        1.2600    0.3360   -3.0640 hn        1 VSP      0.477467
     33 HN0A        1.9810    1.8140   -3.4160 hn        1 VSP      0.477467
     34 H11         0.8460   -1.7440   -2.3650 hc        1 VSP      0.060200
     35 H11A       -0.6470   -0.7550   -2.0210 hc        1 VSP      0.060200
     36 H23         1.2080   -3.8970   -1.0160 ha        1 VSP      0.164000
     37 HN15       -4.4300   -3.1760   -0.1160 hn        1 VSP      0.454300
     38 H25         4.2610    3.0230    0.4060 h5        1 VSP      0.113100
     39 H06         2.1550    0.3940    3.4190 h1        1 VSP      0.106700
     40 H07        -0.6400   -0.9910    3.5030 hc        1 VSP      0.065033
     41 H07A        0.2300   -0.1610    4.8630 hc        1 VSP      0.065033
     42 H07B       -0.3440    0.8020    3.4380 hc        1 VSP      0.065033
     43 H08         1.3140   -2.6100    3.3080 hc        1 VSP      0.065033
     44 H08A        3.0050   -1.9710    3.1210 hc        1 VSP      0.065033
     45 H08B        2.1150   -1.7340    4.6810 hc        1 VSP      0.065033
     46 H18        -7.3050   -3.1050   -3.7160 hc        1 VSP      0.089033
     47 H18A       -7.1470   -4.9250   -3.8510 hc        1 VSP      0.089033
     48 H18B       -8.4570   -4.1920   -2.8440 hc        1 VSP      0.089033
     49 H013        2.9060    0.4200   -3.3950 hn        1 VSP      0.477467
     50 H152       -4.4110   -4.8200   -0.1670 hn        1 VSP      0.454300
@<TRIPOS>BOND
     1    1    8 1   
     2    1   11 1   
     3    1   25 2   
     4    2   10 ar  
     5    2   15 ar  
     6    2   27 1   
     7    3   21 1   
     8    3   24 1   
     9    3   28 1   
    10    3   29 1   
    11    4    5 ar  
    12    4   15 ar  
    13    4   30 1   
    14    5   12 ar  
    15    5   31 1   
    16    6   21 2   
    17    7    9 1   
    18    7   32 1   
    19    7   33 1   
    20    7   49 1   
    21    8   10 1   
    22    8   34 1   
    23    8   35 1   
    24    9   11 ar  
    25    9   19 ar  
    26   10   12 ar  
    27   11   14 ar  
    28   12   36 1   
    29   13   14 ar  
    30   13   18 ar  
    31   14   16 1   
    32   15   17 1   
    33   16   20 1   
    34   16   25 1   
    35   17   21 1   
    36   17   37 1   
    37   17   50 1   
    38   18   19 ar  
    39   18   38 1   
    40   20   22 1   
    41   20   23 1   
    42   20   39 1   
    43   21   26 2   
    44   22   40 1   
    45   22   41 1   
    46   22   42 1   
    47   23   43 1   
    48   23   44 1   
    49   23   45 1   
    50   24   46 1   
    51   24   47 1   
    52   24   48 1   
@<TRIPOS>SUBSTRUCTURE
     1 VSP         1 TEMP              0 ****  ****    0 ROOT
