@<TRIPOS>MOLECULE
VSP
   48    50     1     0     0
SMALL
bcc


@<TRIPOS>ATOM
      1 C10         2.0780    0.0810    1.0740 cc        1 VSP      0.375900
      2 C13        -0.8200    0.4340    0.5500 ca        1 VSP     -0.157000
      3 C17        -5.0810   -0.4070    0.3740 c3        1 VSP     -0.319600
      4 C21        -2.4650    2.1810    0.1500 ca        1 VSP     -0.184000
      5 C22        -1.7060    3.0490    0.9280 ca        1 VSP     -0.095000
      6 O20        -4.8060    1.2490   -1.5310 o         1 VSP     -0.644800
      7 N01         2.4780    2.9960   -0.2400 nh        1 VSP     -0.941500
      8 C11         1.1970    0.8670    1.9740 c3        1 VSP     -0.053400
      9 C02         3.0910    1.8430   -0.6910 ca        1 VSP      0.748200
     10 C12        -0.0640    1.3220    1.3170 ca        1 VSP     -0.059300
     11 C03         2.8650    0.5980   -0.0290 ca        1 VSP     -0.493500
     12 C23        -0.5120    2.6330    1.5110 ca        1 VSP     -0.172000
     13 N24         4.4670   -0.5090   -1.5820 nb        1 VSP     -0.738000
     14 C04         3.5890   -0.5600   -0.5320 ca        1 VSP      0.471800
     15 C14        -2.0330    0.8500   -0.0430 ca        1 VSP      0.168600
     16 N05         3.1680   -1.6500    0.2560 na        1 VSP      0.000200
     17 N15        -2.7770   -0.0590   -0.8120 nh        1 VSP     -0.780500
     18 C25         4.5850    0.7320   -2.1030 ca        1 VSP      0.693900
     19 N26         3.9660    1.8920   -1.7490 nb        1 VSP     -0.794000
     20 C06         3.7350   -3.0010    0.1890 c3        1 VSP      0.078000
     21 S16        -4.3730   -0.0320   -1.1470 s6        1 VSP      1.454900
     22 C07         4.6830   -3.2980    1.3490 c3        1 VSP     -0.109100
     23 C08         2.6550   -4.0800    0.1300 c3        1 VSP     -0.109100
     24 C18        -6.5830   -0.4390    0.2670 c3        1 VSP     -0.076100
     25 N09         2.3020   -1.2510    1.2070 nd        1 VSP     -0.517100
     26 O19        -4.6260   -1.0910   -2.0420 o         1 VSP     -0.644800
     27 H13        -0.4510   -0.5950    0.4080 ha        1 VSP      0.150000
     28 H17        -4.7330   -1.4010    0.7610 h1        1 VSP      0.112200
     29 H17A       -4.7960    0.3390    1.1610 h1        1 VSP      0.112200
     30 H21        -3.3930    2.5500   -0.3220 ha        1 VSP      0.170000
     31 H22        -2.0570    4.0820    1.0770 ha        1 VSP      0.140000
     32 HN01        1.6490    2.8740    0.2960 hn        1 VSP      0.431800
     33 HN0A        2.5300    3.8100   -0.8080 hn        1 VSP      0.431800
     34 H11         0.9180    0.2570    2.8800 hc        1 VSP      0.074700
     35 H11A        1.7840    1.7540    2.3440 hc        1 VSP      0.074700
     36 H23         0.0710    3.3310    2.1300 ha        1 VSP      0.137000
     37 HN15       -2.2260   -0.8190   -1.1520 hn        1 VSP      0.460800
     38 H25         5.2900    0.8260   -2.9580 h5        1 VSP      0.053100
     39 H06         4.3260   -3.0330   -0.7770 h1        1 VSP      0.087700
     40 H07         4.1380   -3.2940    2.3230 hc        1 VSP      0.049700
     41 H07A        5.1310   -4.3090    1.1920 hc        1 VSP      0.049700
     42 H07B        5.5080   -2.5470    1.3970 hc        1 VSP      0.049700
     43 H08         1.9530   -3.9000   -0.7180 hc        1 VSP      0.049700
     44 H08A        3.1530   -5.0680   -0.0220 hc        1 VSP      0.049700
     45 H08B        2.0700   -4.1150    1.0790 hc        1 VSP      0.049700
     46 H18        -6.9080   -1.2220   -0.4640 hc        1 VSP      0.055033
     47 H18A       -7.0390   -0.6760    1.2580 hc        1 VSP      0.055033
     48 H18B       -6.9730    0.5540   -0.0700 hc        1 VSP      0.055033
@<TRIPOS>BOND
     1    1    8 1   
     2    1   11 1   
     3    1   25 2   
     4    2   10 ar  
     5    2   15 ar  
     6    2   27 1   
     7    3   21 1   
     8    3   24 1   
     9    3   28 1   
    10    3   29 1   
    11    4    5 ar  
    12    4   15 ar  
    13    4   30 1   
    14    5   12 ar  
    15    5   31 1   
    16    6   21 2   
    17    7    9 1   
    18    7   32 1   
    19    7   33 1   
    20    8   10 1   
    21    8   34 1   
    22    8   35 1   
    23    9   11 ar  
    24    9   19 ar  
    25   10   12 ar  
    26   11   14 ar  
    27   12   36 1   
    28   13   14 ar  
    29   13   18 ar  
    30   14   16 1   
    31   15   17 1   
    32   16   20 1   
    33   16   25 1   
    34   17   21 1   
    35   17   37 1   
    36   18   19 ar  
    37   18   38 1   
    38   20   22 1   
    39   20   23 1   
    40   20   39 1   
    41   21   26 2   
    42   22   40 1   
    43   22   41 1   
    44   22   42 1   
    45   23   43 1   
    46   23   44 1   
    47   23   45 1   
    48   24   46 1   
    49   24   47 1   
    50   24   48 1   
@<TRIPOS>SUBSTRUCTURE
     1 VSP         1 TEMP              0 ****  ****    0 ROOT
