@<TRIPOS>MOLECULE
VSV
   53    49     1     0     0
SMALL
bcc


@<TRIPOS>ATOM
      1 OE1         2.9100   -3.4580    8.6710 o         1 VSV     -0.605000
      2 CD          2.8960   -3.8510    7.4760 c2        1 VSV      0.324000
      3 OE2         3.9830   -4.1720    6.8990 o         1 VSV     -0.605000
      4 CG          1.5630   -3.9100    6.6990 c3        1 VSV     -0.213000
      5 CB          1.3180   -2.5780    6.0170 c3        1 VSV     -0.127000
      6 C           0.9340   -3.3950    3.7160 c1        1 VSV      0.307000
      7 O           0.7350   -4.6000    3.4720 o         1 VSV     -0.550000
      8 OXT         1.7130   -2.7330    3.0010 os        1 VSV     -0.652000
      9 N          -0.2350   -1.4840    4.5340 n         1 VSV     -0.288000
     10 CAU        -1.3960   -1.3970    3.7190 c2        1 VSV      0.325000
     11 OBC        -2.1390   -2.3680    3.6020 o         1 VSV     -0.365000
     12 CAT        -1.7530   -0.0460    3.0120 c2        1 VSV     -0.118000
     13 CAQ        -1.6040    0.0790    1.6380 c2        1 VSV     -0.101000
     14 CAS        -2.1940    1.0370    3.7640 c1        1 VSV     -0.094000
     15 CAR        -2.4850    2.2440    3.1390 c1        1 VSV     -0.145000
     16 CAP        -2.3350    2.3690    1.7630 c1        1 VSV     -0.145000
     17 CAO        -1.8970    1.2930    1.0130 c1        1 VSV     -0.124000
     18 CAN        -1.8070    1.4080   -0.5100 c3        1 VSV      0.000000
     19 NAY        -0.4700    1.8290   -0.8900 n3        1 VSV     -0.285000
     20 CAA        -0.0970    1.8700   -2.2910 c2        1 VSV      0.124000
     21 CAC        -0.6700    2.8140   -3.1300 c2        1 VSV     -0.222000
     22 CAE        -0.2280    2.9350   -4.4450 c1        1 VSV     -0.055000
     23 CAB         0.9200    1.0440   -2.7630 c1        1 VSV     -0.185000
     24 CAG         1.3600    1.1660   -4.0770 c1        1 VSV     -0.046000
     25 CAF         0.7870    2.1100   -4.9170 c1        1 VSV     -0.186000
     26 CAH         1.3640    2.3300   -6.3390 c2        1 VSV      0.098000
     27 CAI         0.8420    1.6490   -7.3970 c1        1 VSV     -0.448000
     28 SBG        -0.3590    0.5960   -7.3410 s         1 VSV      0.319000
     29 CAL        -0.5680    0.0110   -8.8510 c2        1 VSV      0.167000
     30 NAX         0.3880    0.7550   -9.7790 n         1 VSV     -0.400000
     31 CA          0.2830   -2.7550    4.9040 c3        1 VSV     -0.061000
     32 CAK         1.3080    1.7590   -8.8740 c2        1 VSV      0.355000
     33 OBE         2.2020    2.4810   -9.2920 o         1 VSV     -0.333000
     34 OBH        -1.2880   -0.9330   -9.1650 o         1 VSV     -0.334000
     35 HG1C        0.8230   -4.1000    7.3290 hc        1 VSV      0.062500
     36 HG2C        1.6080   -4.6120    6.0320 hc        1 VSV      0.062500
     37 HB1C        0.9850   -1.9350    6.6710 hc        1 VSV      0.092500
     38 HB2C        2.1530   -2.2500    5.6360 hc        1 VSV      0.092500
     39 HA         -0.4380   -3.3180    5.2190 h1        1 VSV      0.111000
     40 HB          0.1660   -0.7360    4.8240 hn        1 VSV      0.201000
     41 HAQ        -1.3540   -0.6950    1.1040 ha        1 VSV      0.209000
     42 HAS        -2.2990    0.9500    4.7390 ha        1 VSV      0.136000
     43 HAR        -2.8180    3.0000    3.6660 ha        1 VSV      0.110500
     44 HAP        -2.5440    3.2300    1.3180 ha        1 VSV      0.110500
     45 HAN1       -1.9990    0.5390   -0.9110 h1        1 VSV      0.085000
     46 HAN2       -2.4560    2.0620   -0.8250 h1        1 VSV      0.085000
     47 HAY         0.1260    2.0960   -0.2490 hn        1 VSV      0.262000
     48 HAC        -1.3550    3.4270   -2.7850 ha        1 VSV      0.124000
     49 HAB         1.3620    0.4260   -2.1600 ha        1 VSV      0.249000
     50 HAE        -0.6230    3.6000   -5.0290 ha        1 VSV      0.117000
     51 HAG         2.1150    0.6150   -4.3970 ha        1 VSV      0.148000
     52 HAH         2.1100    2.9620   -6.4780 ha        1 VSV      0.155000
     53 HAX         0.4540    0.6390  -10.6790 hn        1 VSV      0.251000
@<TRIPOS>BOND
     1    1    2 1   
     2    2    3 1   
     3    2    4 1   
     4    4    5 1   
     5    4   35 1   
     6    4   36 1   
     7    5   31 1   
     8    5   37 1   
     9    5   38 1   
    10    6    7 1   
    11    6   31 1   
    12    9   10 1   
    13    9   31 1   
    14    9   40 1   
    15   10   11 1   
    16   10   12 1   
    17   12   13 1   
    18   12   14 1   
    19   13   17 1   
    20   13   41 1   
    21   14   42 1   
    22   15   16 1   
    23   15   43 1   
    24   16   44 1   
    25   17   18 1   
    26   18   19 1   
    27   18   45 1   
    28   18   46 1   
    29   19   20 1   
    30   19   47 1   
    31   20   21 1   
    32   20   23 1   
    33   21   22 1   
    34   21   48 1   
    35   22   50 1   
    36   23   49 1   
    37   24   25 1   
    38   24   51 1   
    39   25   26 1   
    40   26   27 1   
    41   26   52 1   
    42   27   32 1   
    43   28   29 1   
    44   29   30 1   
    45   29   34 1   
    46   30   32 1   
    47   30   53 1   
    48   31   39 1   
    49   32   33 1   
@<TRIPOS>SUBSTRUCTURE
     1 VSV         1 TEMP              0 ****  ****    0 ROOT
