@<TRIPOS>MOLECULE
VSV
   54    56     1     0     0
SMALL
bcc


@<TRIPOS>ATOM
      1 OE1        -0.2680    0.0060   -1.0040 o         1 VSV     -0.538000
      2 CD          0.8520    0.3410   -1.4040 c         1 VSV      0.636100
      3 OE2         1.0690    1.6880   -1.3120 oh        1 VSV     -0.603100
      4 CG          1.9110   -0.5470   -1.9770 c3        1 VSV     -0.188400
      5 CB          3.2790   -0.3230   -1.3610 c3        1 VSV     -0.077400
      6 C           5.7590   -0.1190   -1.6770 c         1 VSV      0.915600
      7 O           6.4820    0.9080   -1.5610 o         1 VSV     -0.817300
      8 OXT         6.0450   -1.2760   -1.2810 o         1 VSV     -0.817300
      9 N           4.1920    1.3640   -2.9590 ns        1 VSV     -0.513900
     10 CAU         3.6980    1.5530   -4.2270 c         1 VSV      0.642700
     11 OBC         3.0060    0.6920   -4.8230 o         1 VSV     -0.644100
     12 CAT         3.9350    2.8810   -4.8830 ca        1 VSV     -0.123600
     13 CAQ         3.9750    2.9110   -6.2820 ca        1 VSV     -0.080000
     14 CAS         4.0940    4.0650   -4.1590 ca        1 VSV     -0.086000
     15 CAR         4.2930    5.2700   -4.8340 ca        1 VSV     -0.141000
     16 CAP         4.3310    5.3020   -6.2260 ca        1 VSV     -0.103000
     17 CAO         4.1740    4.1190   -6.9550 ca        1 VSV     -0.128300
     18 CAN         4.2370    4.1430   -8.4530 c3        1 VSV      0.255100
     19 NAY         3.0160    3.6790   -9.0690 nu        1 VSV     -0.750600
     20 CAA         2.9550    3.4110  -10.4200 ca        1 VSV      0.225600
     21 CAC         1.8370    2.7070  -10.9550 ca        1 VSV     -0.222000
     22 CAE         1.7200    2.5020  -12.3150 ca        1 VSV     -0.037500
     23 CAB         3.9430    3.8690  -11.3300 ca        1 VSV     -0.222000
     24 CAG         3.8040    3.6540  -12.6920 ca        1 VSV     -0.037500
     25 CAF         2.6950    2.9750  -13.2190 ca        1 VSV     -0.178800
     26 CAH         2.5010    2.7320  -14.6230 ce        1 VSV      0.067800
     27 CAI         3.2500    3.1630  -15.6580 cd        1 VSV     -0.185600
     28 SBG         4.6620    4.1320  -15.6520 ss        1 VSV     -0.110200
     29 CAL         4.8200    4.1180  -17.4140 c         1 VSV      0.703100
     30 NAX         3.7840    3.3650  -17.9790 ns        1 VSV     -0.615500
     31 CA          4.3550    0.0360   -2.3900 c3        1 VSV     -0.073300
     32 CAK         2.8800    2.8080  -17.0540 c         1 VSV      0.712700
     33 OBE         1.9150    2.1200  -17.4130 o         1 VSV     -0.594500
     34 OBH         5.6940    4.6740  -18.0890 o         1 VSV     -0.572500
     35 HG1C        1.5910   -1.6120   -1.8240 hc        1 VSV      0.088700
     36 HG2C        1.9440   -0.3640   -3.0880 hc        1 VSV      0.088700
     37 HB1C        3.6290   -1.2720   -0.8690 hc        1 VSV      0.065200
     38 HB2C        3.2350    0.4630   -0.5620 hc        1 VSV      0.065200
     39 HA          4.3190   -0.7290   -3.2200 h1        1 VSV      0.065700
     40 HB          1.9600    1.8930   -1.6320 ho        1 VSV      0.440000
     41 HAQ         3.8460    1.9670   -6.8380 ha        1 VSV      0.155000
     42 HAS         4.0590    4.0630   -3.0580 ha        1 VSV      0.151000
     43 HAR         4.4200    6.2010   -4.2610 ha        1 VSV      0.134000
     44 HAP         4.4840    6.2560   -6.7510 ha        1 VSV      0.129000
     45 HAN1        5.1110    3.5060   -8.7860 h1        1 VSV      0.049200
     46 HAN2        4.4290    5.1960   -8.8120 h1        1 VSV      0.049200
     47 HAY         2.3880    3.1770   -8.4790 hn        1 VSV      0.436800
     48 HAC         1.0570    2.3240  -10.2790 ha        1 VSV      0.142000
     49 HAB         4.8300    4.4040  -10.9600 ha        1 VSV      0.142000
     50 HAE         0.8450    1.9560  -12.7030 ha        1 VSV      0.134500
     51 HAG         4.6010    4.0250  -13.3610 ha        1 VSV      0.134500
     52 HAH         1.6120    2.1120  -14.8760 ha        1 VSV      0.153000
     53 HAX         3.6910    3.2280  -18.9570 hn        1 VSV      0.348500
     54 H2          4.9120    1.9950   -2.6490 hn        1 VSV      0.330500
@<TRIPOS>BOND
     1    1    2 2   
     2    2    3 1   
     3    2    4 1   
     4    3   40 1   
     5    4    5 1   
     6    4   35 1   
     7    4   36 1   
     8    5   31 1   
     9    5   37 1   
    10    5   38 1   
    11    6    7 1   
    12    6    8 1   
    13    6   31 1   
    14    9   10 1   
    15    9   31 1   
    16    9   54 1   
    17   10   11 2   
    18   10   12 1   
    19   12   13 ar  
    20   12   14 ar  
    21   13   17 ar  
    22   13   41 1   
    23   14   15 ar  
    24   14   42 1   
    25   15   16 ar  
    26   15   43 1   
    27   16   17 ar  
    28   16   44 1   
    29   17   18 1   
    30   18   19 1   
    31   18   45 1   
    32   18   46 1   
    33   19   20 1   
    34   19   47 1   
    35   20   21 ar  
    36   20   23 ar  
    37   21   22 ar  
    38   21   48 1   
    39   22   25 ar  
    40   22   50 1   
    41   23   24 ar  
    42   23   49 1   
    43   24   25 ar  
    44   24   51 1   
    45   25   26 1   
    46   26   27 2   
    47   26   52 1   
    48   27   28 1   
    49   27   32 1   
    50   28   29 1   
    51   29   30 1   
    52   29   34 2   
    53   30   32 1   
    54   30   53 1   
    55   31   39 1   
    56   32   33 2   
@<TRIPOS>SUBSTRUCTURE
     1 VSV         1 TEMP              0 ****  ****    0 ROOT
