@<TRIPOS>MOLECULE
VSV
   54    56     1     0     0
SMALL
bcc


@<TRIPOS>ATOM
      1 OE1        -0.2660   -0.0660   -1.0280 o         1 VSV     -0.538000
      2 CD          0.8510    0.2830   -1.4230 c         1 VSV      0.636100
      3 OE2         1.0530    1.6320   -1.3240 oh        1 VSV     -0.603100
      4 CG          1.9210   -0.5900   -1.9960 c3        1 VSV     -0.188400
      5 CB          3.2850   -0.3540   -1.3750 c3        1 VSV     -0.077400
      6 C           5.7630   -0.1230   -1.6800 c         1 VSV      0.915600
      7 O           6.4750    0.9100   -1.5570 o         1 VSV     -0.817300
      8 OXT         6.0600   -1.2790   -1.2890 o         1 VSV     -0.817300
      9 N           4.1860    1.3490   -2.9610 n         1 VSV     -0.513900
     10 CAU         3.6950    1.5390   -4.2310 c         1 VSV      0.642700
     11 OBC         3.0140    0.6740   -4.8330 o         1 VSV     -0.644100
     12 CAT         3.9200    2.8720   -4.8790 ca        1 VSV     -0.123600
     13 CAQ         3.9650    2.9090   -6.2780 ca        1 VSV     -0.080000
     14 CAS         4.0630    4.0550   -4.1490 ca        1 VSV     -0.086000
     15 CAR         4.2530    5.2650   -4.8180 ca        1 VSV     -0.141000
     16 CAP         4.2950    5.3030   -6.2100 ca        1 VSV     -0.103000
     17 CAO         4.1540    4.1220   -6.9440 ca        1 VSV     -0.128300
     18 CAN         4.2210    4.1540   -8.4420 c3        1 VSV      0.255100
     19 NAY         3.0070    3.6810   -9.0640 nh        1 VSV     -0.750600
     20 CAA         2.9540    3.4190  -10.4170 ca        1 VSV      0.225600
     21 CAC         1.8440    2.7060  -10.9590 ca        1 VSV     -0.222000
     22 CAE         1.7340    2.5060  -12.3200 ca        1 VSV     -0.037500
     23 CAB         3.9410    3.8900  -11.3220 ca        1 VSV     -0.222000
     24 CAG         3.8090    3.6800  -12.6850 ca        1 VSV     -0.037500
     25 CAF         2.7080    2.9920  -13.2190 ca        1 VSV     -0.178800
     26 CAH         2.5220    2.7530  -14.6240 ce        1 VSV      0.067800
     27 CAI         3.2700    3.1960  -15.6550 cd        1 VSV     -0.185600
     28 SBG         4.6730    4.1790  -15.6390 ss        1 VSV     -0.110200
     29 CAL         4.8380    4.1760  -17.4010 c         1 VSV      0.703100
     30 NAX         3.8110    3.4140  -17.9730 n         1 VSV     -0.615500
     31 CA          4.3610    0.0200   -2.3980 c3        1 VSV     -0.073300
     32 CAK         2.9090    2.8450  -17.0540 c         1 VSV      0.712700
     33 OBE         1.9520    2.1490  -17.4200 o         1 VSV     -0.594500
     34 OBH         5.7080    4.7430  -18.0700 o         1 VSV     -0.572500
     35 HG1C        1.9570   -0.4010   -3.1070 hc        1 VSV      0.088700
     36 HG2C        1.6120   -1.6590   -1.8500 hc        1 VSV      0.088700
     37 HB1C        3.2290    0.4270   -0.5730 hc        1 VSV      0.065200
     38 HB2C        3.6430   -1.3020   -0.8850 hc        1 VSV      0.065200
     39 HA          4.3350   -0.7410   -3.2310 h1        1 VSV      0.065700
     40 HB          4.8990    1.9860   -2.6460 hn        1 VSV      0.330500
     41 HAQ         3.8480    1.9670   -6.8380 ha        1 VSV      0.155000
     42 HAS         4.0240    4.0470   -3.0480 ha        1 VSV      0.151000
     43 HAR         4.3680    6.1940   -4.2400 ha        1 VSV      0.134000
     44 HAP         4.4400    6.2620   -6.7290 ha        1 VSV      0.129000
     45 HAN1        4.4040    5.2110   -8.7960 h1        1 VSV      0.049200
     46 HAN2        5.1030    3.5280   -8.7750 h1        1 VSV      0.049200
     47 HAY         2.3820    3.1700   -8.4790 hn        1 VSV      0.436800
     48 HAC         1.0660    2.3120  -10.2880 ha        1 VSV      0.142000
     49 HAB         4.8220    4.4320  -10.9460 ha        1 VSV      0.142000
     50 HAE         0.8660    1.9530  -12.7140 ha        1 VSV      0.134500
     51 HAG         4.6050    4.0620  -13.3490 ha        1 VSV      0.134500
     52 HAH         1.6400    2.1260  -14.8840 ha        1 VSV      0.153000
     53 HAX         3.7230    3.2810  -18.9520 hn        1 VSV      0.348500
     54 H2          1.9430    1.8490   -1.6410 ho        1 VSV      0.440000
@<TRIPOS>BOND
     1    1    2 2   
     2    2    3 1   
     3    2    4 1   
     4    3   54 1   
     5    4    5 1   
     6    4   35 1   
     7    4   36 1   
     8    5   31 1   
     9    5   37 1   
    10    5   38 1   
    11    6    7 1   
    12    6    8 1   
    13    6   31 1   
    14    9   10 1   
    15    9   31 1   
    16    9   40 1   
    17   10   11 2   
    18   10   12 1   
    19   12   13 ar  
    20   12   14 ar  
    21   13   17 ar  
    22   13   41 1   
    23   14   15 ar  
    24   14   42 1   
    25   15   16 ar  
    26   15   43 1   
    27   16   17 ar  
    28   16   44 1   
    29   17   18 1   
    30   18   19 1   
    31   18   45 1   
    32   18   46 1   
    33   19   20 1   
    34   19   47 1   
    35   20   21 ar  
    36   20   23 ar  
    37   21   22 ar  
    38   21   48 1   
    39   22   25 ar  
    40   22   50 1   
    41   23   24 ar  
    42   23   49 1   
    43   24   25 ar  
    44   24   51 1   
    45   25   26 1   
    46   26   27 2   
    47   26   52 1   
    48   27   28 1   
    49   27   32 1   
    50   28   29 1   
    51   29   30 1   
    52   29   34 2   
    53   30   32 1   
    54   30   53 1   
    55   31   39 1   
    56   32   33 2   
@<TRIPOS>SUBSTRUCTURE
     1 VSV         1 TEMP              0 ****  ****    0 ROOT
