@<TRIPOS>MOLECULE
VSV
   53    55     1     0     0
SMALL
bcc


@<TRIPOS>ATOM
      1 OE1         8.5580    2.7880   -0.7960 o         1 VSV     -0.874300
      2 CD          7.5980    1.9630   -0.7450 c         1 VSV      0.909600
      3 OE2         6.8400    1.7530   -1.7450 o         1 VSV     -0.874300
      4 CG          7.3170    1.2360    0.5740 c3        1 VSV     -0.191400
      5 CB          7.5850   -0.2520    0.4990 c3        1 VSV     -0.074400
      6 C           6.9680   -2.6020    1.1470 c         1 VSV      0.917600
      7 O           7.4630   -2.9850    2.2440 o         1 VSV     -0.848800
      8 OXT         6.8750   -3.3280    0.1170 o         1 VSV     -0.848800
      9 N           5.2340   -1.0220    0.3160 n         1 VSV     -0.478900
     10 CAU         4.2220   -0.1550    0.6100 c         1 VSV      0.658700
     11 OBC         3.9680    0.2860    1.7570 o         1 VSV     -0.661100
     12 CAT         3.3110    0.2140   -0.5300 ca        1 VSV     -0.129600
     13 CAQ         1.9420   -0.0340   -0.4370 ca        1 VSV     -0.090000
     14 CAS         3.8430    0.8570   -1.6530 ca        1 VSV     -0.076000
     15 CAR         2.9860    1.2450   -2.6850 ca        1 VSV     -0.144000
     16 CAP         1.6160    1.0050   -2.5980 ca        1 VSV     -0.122000
     17 CAO         1.0890    0.3640   -1.4720 ca        1 VSV     -0.169300
     18 CAN        -0.3810    0.1040   -1.3720 c3        1 VSV      0.271100
     19 NAY        -0.9740    0.7720   -0.2370 nh        1 VSV     -0.744600
     20 CAA        -2.3090    0.7520    0.0330 ca        1 VSV      0.260600
     21 CAC        -2.8170    1.4110    1.1990 ca        1 VSV     -0.243500
     22 CAE        -4.1660    1.4220    1.4680 ca        1 VSV     -0.023000
     23 CAB        -3.2540    0.1050   -0.8170 ca        1 VSV     -0.243500
     24 CAG        -4.6030    0.1340   -0.5250 ca        1 VSV     -0.023000
     25 CAF        -5.1010    0.7920    0.6140 ca        1 VSV     -0.215800
     26 CAH        -6.4890    0.8570    0.9560 ce        1 VSV      0.093800
     27 CAI        -7.5500    0.3680    0.2750 cd        1 VSV     -0.215600
     28 SBG        -7.5840   -0.4860   -1.2120 ss        1 VSV     -0.101200
     29 CAL        -9.3410   -0.6410   -1.2150 c         1 VSV      0.697100
     30 NAX        -9.8770   -0.0360   -0.0720 n         1 VSV     -0.618500
     31 CA          6.4590   -1.1200    1.0890 c3        1 VSV     -0.037300
     32 CAK        -8.9260    0.5420    0.7940 c         1 VSV      0.716700
     33 OBE        -9.2650    1.1120    1.8420 o         1 VSV     -0.609500
     34 OBH       -10.0460   -1.1910   -2.0720 o         1 VSV     -0.589500
     35 HG1C        7.9530    1.6930    1.3750 hc        1 VSV      0.023700
     36 HG2C        6.2480    1.4330    0.8480 hc        1 VSV      0.023700
     37 HB1C        7.7580   -0.5540   -0.5680 hc        1 VSV      0.047200
     38 HB2C        8.5170   -0.5030    1.0700 hc        1 VSV      0.047200
     39 HA          6.2380   -0.7820    2.1410 h1        1 VSV      0.066700
     40 HB          5.3400   -1.3150   -0.6310 hn        1 VSV      0.314500
     41 HAQ         1.5440   -0.5390    0.4570 ha        1 VSV      0.136000
     42 HAS         4.9410    1.0770   -1.7090 ha        1 VSV      0.248000
     43 HAR         3.4030    1.7510   -3.5680 ha        1 VSV      0.136000
     44 HAP         0.9480    1.3220   -3.4120 ha        1 VSV      0.108000
     45 HAN1       -0.9020    0.4540   -2.3110 h1        1 VSV      0.042200
     46 HAN2       -0.5590   -1.0090   -1.2760 h1        1 VSV      0.042200
     47 HAY        -0.3530    1.2030    0.4130 hn        1 VSV      0.456800
     48 HAC        -2.1180    1.9100    1.8870 ha        1 VSV      0.143500
     49 HAB        -2.9060   -0.4280   -1.7140 ha        1 VSV      0.143500
     50 HAE        -4.5290    1.9370    2.3730 ha        1 VSV      0.128000
     51 HAG        -5.2960   -0.3840   -1.2130 ha        1 VSV      0.128000
     52 HAH        -6.7190    1.3850    1.9080 ha        1 VSV      0.147000
     53 HAX       -10.8480   -0.0150    0.1210 hn        1 VSV      0.342500
@<TRIPOS>BOND
     1    1    2 1   
     2    2    3 1   
     3    2    4 1   
     4    4    5 1   
     5    4   35 1   
     6    4   36 1   
     7    5   31 1   
     8    5   37 1   
     9    5   38 1   
    10    6    7 1   
    11    6    8 1   
    12    6   31 1   
    13    9   10 1   
    14    9   31 1   
    15    9   40 1   
    16   10   11 2   
    17   10   12 1   
    18   12   13 ar  
    19   12   14 ar  
    20   13   17 ar  
    21   13   41 1   
    22   14   15 ar  
    23   14   42 1   
    24   15   16 ar  
    25   15   43 1   
    26   16   17 ar  
    27   16   44 1   
    28   17   18 1   
    29   18   19 1   
    30   18   45 1   
    31   18   46 1   
    32   19   20 1   
    33   19   47 1   
    34   20   21 ar  
    35   20   23 ar  
    36   21   22 ar  
    37   21   48 1   
    38   22   25 ar  
    39   22   50 1   
    40   23   24 ar  
    41   23   49 1   
    42   24   25 ar  
    43   24   51 1   
    44   25   26 1   
    45   26   27 2   
    46   26   52 1   
    47   27   28 1   
    48   27   32 1   
    49   28   29 1   
    50   29   30 1   
    51   29   34 2   
    52   30   32 1   
    53   30   53 1   
    54   31   39 1   
    55   32   33 2   
@<TRIPOS>SUBSTRUCTURE
     1 VSV         1 TEMP              0 ****  ****    0 ROOT
