@<TRIPOS>MOLECULE
VSV
   55    57     1     0     0
SMALL
bcc


@<TRIPOS>ATOM
      1 OE1         1.8530    1.8840   -1.1570 o         1 VSV     -0.587000
      2 CD          2.9090    1.2440   -1.0200 c         1 VSV      0.644100
      3 OE2         3.9510    2.0180   -0.6420 oh        1 VSV     -0.605100
      4 CG          3.0280   -0.2350   -1.2430 c3        1 VSV     -0.162400
      5 CB          4.3750   -0.7200   -1.7250 c3        1 VSV     -0.088400
      6 C           6.4130    0.4480   -2.6200 c         1 VSV      0.910600
      7 O           6.4850    1.3200   -1.7060 o         1 VSV     -0.806800
      8 OXT         7.3630   -0.0440   -3.2660 o         1 VSV     -0.806800
      9 N           4.1920    1.0840   -3.4630 n         1 VSV     -0.508900
     10 CAU         3.5050    1.1040   -4.6370 c         1 VSV      0.658700
     11 OBC         3.3040    0.1090   -5.3720 o         1 VSV     -0.640100
     12 CAT         2.9340    2.4320   -5.0530 ca        1 VSV     -0.116600
     13 CAQ         3.1070    2.8100   -6.3850 ca        1 VSV     -0.085000
     14 CAS         2.2190    3.2530   -4.1750 ca        1 VSV     -0.048000
     15 CAR         1.6660    4.4470   -4.6460 ca        1 VSV     -0.127000
     16 CAP         1.8100    4.8180   -5.9820 ca        1 VSV     -0.091000
     17 CAO         2.5320    3.9960   -6.8550 ca        1 VSV     -0.215300
     18 CAN         2.7130    4.3590   -8.2830 c3        1 VSV      0.189100
     19 NAY         2.0160    3.3390   -9.1560 n4        1 VSV     -0.641400
     20 CAA         2.3320    3.5090  -10.5730 ca        1 VSV     -0.044400
     21 CAC         1.5020    4.3040  -11.3850 ca        1 VSV     -0.101000
     22 CAE         1.8090    4.4550  -12.7310 ca        1 VSV     -0.093000
     23 CAB         3.4630    2.8780  -11.1150 ca        1 VSV     -0.101000
     24 CAG         3.7520    3.0370  -12.4690 ca        1 VSV     -0.093000
     25 CAF         2.9320    3.8190  -13.2940 ca        1 VSV     -0.018800
     26 CAH         3.1950    4.0130  -14.7060 ce        1 VSV     -0.040200
     27 CAI         3.9830    3.2610  -15.4940 cd        1 VSV     -0.094600
     28 SBG         4.9040    1.8790  -15.1260 ss        1 VSV     -0.112200
     29 CAL         5.5000    1.6830  -16.8010 c         1 VSV      0.721100
     30 NAX         4.9720    2.7000  -17.6050 n         1 VSV     -0.606500
     31 CA          4.9550   -0.0480   -2.9820 c3        1 VSV     -0.067300
     32 CAK         4.1260    3.6070  -16.9490 c         1 VSV      0.701700
     33 OBE         3.5810    4.5570  -17.5180 o         1 VSV     -0.552500
     34 OBH         6.2550    0.8010  -17.2060 o         1 VSV     -0.515500
     35 HG1C        2.7870   -0.7350   -0.2650 hc        1 VSV      0.070200
     36 HG2C        2.2290   -0.5290   -1.9770 hc        1 VSV      0.070200
     37 HB1C        5.1220   -0.5990   -0.8920 hc        1 VSV      0.058700
     38 HB2C        4.2890   -1.8190   -1.9320 hc        1 VSV      0.058700
     39 HA          5.0260   -0.8110   -3.8090 h1        1 VSV      0.084700
     40 HB          4.4150    1.9530   -3.0180 hn        1 VSV      0.333500
     41 HAQ         3.7040    2.1590   -7.0440 ha        1 VSV      0.144000
     42 HAS         2.0860    2.9590   -3.1130 ha        1 VSV      0.206000
     43 HAR         1.1120    5.0990   -3.9520 ha        1 VSV      0.158000
     44 HAP         1.3690    5.7590   -6.3430 ha        1 VSV      0.132000
     45 HAN1        2.2790    5.3700   -8.5240 hx        1 VSV      0.103200
     46 HAN2        3.8040    4.3490   -8.5690 hx        1 VSV      0.103200
     47 HAY         1.0020    3.4150   -9.0160 hn        1 VSV      0.459300
     48 HAC         0.6120    4.8070  -10.9730 ha        1 VSV      0.162000
     49 HAB         4.1280    2.2560  -10.4920 ha        1 VSV      0.162000
     50 HAE         1.1580    5.0800  -13.3660 ha        1 VSV      0.171000
     51 HAG         4.6560    2.5440  -12.8760 ha        1 VSV      0.171000
     52 HAH         2.6690    4.8750  -15.1730 ha        1 VSV      0.174000
     53 HAX         5.1790    2.7780  -18.5750 hn        1 VSV      0.367500
     54 H2          4.8090    1.5390   -0.7050 ho        1 VSV      0.496000
     55 HAY2        2.3070    2.3970   -8.8490 hn        1 VSV      0.459300
@<TRIPOS>BOND
     1    1    2 2   
     2    2    3 1   
     3    2    4 1   
     4    3   54 1   
     5    4    5 1   
     6    4   35 1   
     7    4   36 1   
     8    5   31 1   
     9    5   37 1   
    10    5   38 1   
    11    6    7 1   
    12    6    8 1   
    13    6   31 1   
    14    9   10 1   
    15    9   31 1   
    16    9   40 1   
    17   10   11 2   
    18   10   12 1   
    19   12   13 ar  
    20   12   14 ar  
    21   13   17 ar  
    22   13   41 1   
    23   14   15 ar  
    24   14   42 1   
    25   15   16 ar  
    26   15   43 1   
    27   16   17 ar  
    28   16   44 1   
    29   17   18 1   
    30   18   19 1   
    31   18   45 1   
    32   18   46 1   
    33   19   20 1   
    34   19   47 1   
    35   19   55 1   
    36   20   21 ar  
    37   20   23 ar  
    38   21   22 ar  
    39   21   48 1   
    40   22   25 ar  
    41   22   50 1   
    42   23   24 ar  
    43   23   49 1   
    44   24   25 ar  
    45   24   51 1   
    46   25   26 1   
    47   26   27 2   
    48   26   52 1   
    49   27   28 1   
    50   27   32 1   
    51   28   29 1   
    52   29   30 1   
    53   29   34 2   
    54   30   32 1   
    55   30   53 1   
    56   31   39 1   
    57   32   33 2   
@<TRIPOS>SUBSTRUCTURE
     1 VSV         1 TEMP              0 ****  ****    0 ROOT
