@<TRIPOS>MOLECULE
VT1
   53    56     1     0     0
SMALL
bcc


@<TRIPOS>ATOM
      1 FBE        -0.0060    0.1210    0.6700 f         1 VT1     -0.227967
      2 CBD         1.2510   -0.0070    0.1450 c3        1 VT1      0.634900
      3 FBF         2.0750   -0.2270    1.2140 f         1 VT1     -0.227967
      4 FBG         1.2320   -1.1950   -0.5430 f         1 VT1     -0.227967
      5 CBC         1.6890    1.1830   -0.7690 c3        1 VT1      0.088400
      6 OBB         1.6620    2.3300    0.0710 os        1 VT1     -0.310900
      7 CBA         2.0370    3.5200   -0.5290 ca        1 VT1      0.132100
      8 CBH         2.0180    4.6340    0.3310 ca        1 VT1     -0.172000
      9 CBI         2.3780    5.8780   -0.1690 ca        1 VT1     -0.079000
     10 CAZ         2.4070    3.6530   -1.8710 ca        1 VT1     -0.172000
     11 CAY         2.7600    4.9110   -2.3550 ca        1 VT1     -0.079000
     12 CAX         2.7520    6.0320   -1.5150 cp        1 VT1     -0.077000
     13 CAW         3.1270    7.3420   -2.0280 cp        1 VT1     -0.118300
     14 CBJ         3.8970    8.2340   -1.2420 ca        1 VT1      0.409200
     15 NBK         4.2770    9.4540   -1.6480 nb        1 VT1     -0.631000
     16 CAV         2.7490    7.7690   -3.3080 ca        1 VT1     -0.089000
     17 CAU         3.1330    9.0370   -3.7470 ca        1 VT1     -0.216300
     18 CAT         3.8930    9.8500   -2.8860 ca        1 VT1      0.330600
     19 CAQ         4.3180   11.2550   -3.3620 c3        1 VT1      0.341300
     20 FAR         5.6280   11.5420   -3.0390 f         1 VT1     -0.218800
     21 FAS         4.3450   11.3230   -4.7390 f         1 VT1     -0.218800
     22 CAB         3.3440   12.3570   -2.7320 c3        1 VT1      0.174100
     23 CAC         1.8930   12.0000   -3.1550 c3        1 VT1      0.054300
     24 NAD         0.9030   12.9970   -2.8380 na        1 VT1     -0.080400
     25 NAH         0.3230   13.1970   -1.6280 nc        1 VT1     -0.163800
     26 NAG        -0.4860   14.1780   -1.7480 nd        1 VT1     -0.054000
     27 NAF        -0.5060   14.6920   -2.9850 nd        1 VT1     -0.373000
     28 CAE         0.3750   13.9670   -3.7180 cc        1 VT1      0.380400
     29 OAA         3.3700   12.2220   -1.3250 oh        1 VT1     -0.557800
     30 CAI         3.7580   13.7410   -3.1590 ca        1 VT1     -0.179300
     31 CAO         3.6590   14.1890   -4.4960 ca        1 VT1      0.163900
     32 FAP         3.1460   13.3910   -5.4640 f         1 VT1     -0.138900
     33 CAN         4.0790   15.4790   -4.8630 ca        1 VT1     -0.208000
     34 CAL         4.5850   16.3420   -3.8800 ca        1 VT1      0.172900
     35 FAM         4.9950   17.5840   -4.2240 f         1 VT1     -0.125900
     36 CAK         4.6620   15.9210   -2.5390 ca        1 VT1     -0.176000
     37 CAJ         4.2490   14.6390   -2.2010 ca        1 VT1     -0.049000
     38 HBC1        2.7240    0.9860   -1.1480 h1        1 VT1      0.079700
     39 HBC2        0.9540    1.2840   -1.6080 h1        1 VT1      0.079700
     40 HBH         1.7200    4.5050    1.3810 ha        1 VT1      0.151500
     41 HAZ         2.4250    2.7880   -2.5490 ha        1 VT1      0.151500
     42 HBI         2.3590    6.7560    0.4970 ha        1 VT1      0.143000
     43 HAY         3.0590    5.0190   -3.4100 ha        1 VT1      0.143000
     44 HBJ         4.2340    7.9450   -0.2280 h4        1 VT1      0.037100
     45 HAV         2.1500    7.1150   -3.9600 ha        1 VT1      0.150000
     46 HAU         2.8590    9.3930   -4.7510 ha        1 VT1      0.158000
     47 HAC1        1.8850   11.8440   -4.2710 h1        1 VT1      0.094700
     48 HAC2        1.6190   11.0370   -2.6320 h1        1 VT1      0.094700
     49 HAA         4.2960   12.1400   -1.0510 ho        1 VT1      0.429000
     50 HAE         0.6520   14.0690   -4.7710 h5        1 VT1      0.087100
     51 HAJ         4.2980   14.3300   -1.1420 ha        1 VT1      0.160000
     52 HAN         4.0080   15.8050   -5.9110 ha        1 VT1      0.170000
     53 HAK         5.0450   16.6090   -1.7710 ha        1 VT1      0.162000
@<TRIPOS>BOND
     1    1    2 1   
     2    2    3 1   
     3    2    4 1   
     4    2    5 1   
     5    5    6 1   
     6    5   38 1   
     7    5   39 1   
     8    6    7 1   
     9    7    8 ar  
    10    7   10 ar  
    11    8    9 ar  
    12    8   40 1   
    13    9   12 ar  
    14    9   42 1   
    15   10   11 ar  
    16   10   41 1   
    17   11   12 ar  
    18   11   43 1   
    19   12   13 1   
    20   13   14 ar  
    21   13   16 ar  
    22   14   15 ar  
    23   14   44 1   
    24   15   18 ar  
    25   16   17 ar  
    26   16   45 1   
    27   17   18 ar  
    28   17   46 1   
    29   18   19 1   
    30   19   20 1   
    31   19   21 1   
    32   19   22 1   
    33   22   23 1   
    34   22   29 1   
    35   22   30 1   
    36   23   24 1   
    37   23   47 1   
    38   23   48 1   
    39   24   25 1   
    40   24   28 1   
    41   25   26 2   
    42   26   27 1   
    43   27   28 2   
    44   28   50 1   
    45   29   49 1   
    46   30   31 ar  
    47   30   37 ar  
    48   31   32 1   
    49   31   33 ar  
    50   33   34 ar  
    51   33   52 1   
    52   34   35 1   
    53   34   36 ar  
    54   36   37 ar  
    55   36   53 1   
    56   37   51 1   
@<TRIPOS>SUBSTRUCTURE
     1 VT1         1 TEMP              0 ****  ****    0 ROOT
