@<TRIPOS>MOLECULE
VT4
   47    60     1     0     0
SMALL
bcc


@<TRIPOS>ATOM
      1 C1          0.0000    0.0000    0.0000 c2        1 VT4     -0.172000
      2 C2          1.3520    0.0000    0.0000 c3        1 VT4     -0.230000
      3 C4          1.4130    0.0010    2.3650 c2        1 VT4     -0.496000
      4 C5          0.0600    0.0020    2.4340 c2        1 VT4     -0.122000
      5 C6         -0.6920    0.0010    1.2310 c2        1 VT4      0.198000
      6 C8         -1.2680   -1.1070    3.9960 c3        1 VT4      0.007000
      7 C9         -2.0190   -1.1120    5.1630 DU        1 VT4     -0.127000
      8 C10        -2.7330   -2.2390    5.5190 c3        1 VT4      0.029000
      9 C11        -2.6990   -3.3630    4.7140 DU        1 VT4     -0.086000
     10 C12        -1.9510   -3.3620    3.5510 c2        1 VT4     -0.153000
     11 C13        -1.2360   -2.2370    3.1900 c2        1 VT4     -0.380000
     12 C14         2.0970   -0.0020   -1.3100 c3        1 VT4     -0.364000
     13 C15         2.3970   -1.4430   -1.7250 DU        1 VT4     -0.181000
     14 C16         3.1530   -1.4440   -3.0550 DU        1 VT4     -0.109000
     15 C17         3.4540   -2.8860   -3.4700 DU        1 VT4     -0.407000
     16 C18         4.2100   -2.8870   -4.8000 DU        1 VT4     -0.410000
     17 C19         4.5100   -4.3290   -5.2140 c3        1 VT4     -0.626000
     18 O17        -1.9140    0.0020    1.2600 o         1 VT4     -0.175000
     19 C80        -2.0560    0.1130    6.0400 c3        1 VT4     -0.263000
     20 O7         -0.5690    0.0030    3.6400 os        1 VT4     -0.040000
     21 N           2.0450    0.0000    1.1630 n3        1 VT4      1.081000
     22 H1          1.0130    0.1300    0.3620 ha        1 VT4     -0.008000
     23 H141        1.0240   -0.0010   -1.1600 DU        1 VT4      0.237000
     24 H142        1.4900    0.4740   -2.0710 hc        1 VT4      0.193000
     25 H4          1.8570    0.1500    1.3880 h4        1 VT4     -0.298000
     26 H13        -0.3450   -1.6200    3.2150 DU        1 VT4      0.237000
     27 H10        -2.1470   -2.2380    4.6070 DU        1 VT4      0.502000
     28 H801       -2.5640   -0.8310    6.1980 DU        1 VT4      0.145000
     29 H802       -2.2770   -0.1800    7.0600 hc        1 VT4      0.108000
     30 H803       -2.8250    0.7890    5.6850 hc        1 VT4      0.108000
     31 H11        -2.3100   -2.4020    5.0270 DU        1 VT4     -0.325000
     32 H12        -2.6130   -3.8110    4.2810 DU        1 VT4      0.176000
     33 H151        1.7220   -1.8810   -0.9990 ha        1 VT4      0.218000
     34 H152        1.4680   -1.9880   -1.8370 ha        1 VT4      0.218000
     35 H161        3.0800   -1.6840   -2.0010 DU        1 VT4      0.230000
     36 H162        2.5450   -0.9690   -3.8160 ha        1 VT4      0.128000
     37 H171        3.7730   -1.8850   -3.2050 DU        1 VT4      0.216000
     38 H172        4.0600   -3.3620   -2.7090 ha        1 VT4      0.116000
     39 H181        3.3590   -3.1620   -4.1880 DU        1 VT4      0.229000
     40 H182        5.1400   -2.3430   -4.6880 ha        1 VT4      0.069000
     41 H191        4.0520   -3.3630   -5.3910 DU        1 VT4      0.283000
     42 H192        5.0460   -4.3300   -6.1560 hc        1 VT4      0.056500
     43 H193        5.1170   -4.8040   -4.4530 hc        1 VT4      0.056500
     44 H211        3.5190   -0.6530    0.2610 h1        1 VT4      0.121667
     45 H212        3.3590    0.8080    0.4190 h1        1 VT4      0.121667
     46 H213        3.3970    0.8080    1.8380 h1        1 VT4      0.121667
     47 C21         3.5100    0.0000    1.1250 c3        1 VT4     -0.235000
@<TRIPOS>BOND
     1    1    2 1   
     2    1    5 1   
     3    1   22 1   
     4    2   12 1   
     5    2   21 1   
     6    2   23 1   
     7    3    4 1   
     8    3   21 1   
     9    3   25 1   
    10    4    5 1   
    11    4   20 1   
    12    5   18 1   
    13    6    7 1   
    14    6   11 1   
    15    6   20 1   
    16    6   26 1   
    17    7    8 1   
    18    7   19 1   
    19    7   27 1   
    20    7   28 1   
    21    8    9 1   
    22    8   27 1   
    23    8   31 1   
    24    9   10 1   
    25    9   27 1   
    26    9   31 1   
    27    9   32 1   
    28   10   11 1   
    29   10   32 1   
    30   11   26 1   
    31   12   13 1   
    32   12   23 1   
    33   12   24 1   
    34   13   14 1   
    35   13   33 1   
    36   13   34 1   
    37   13   35 1   
    38   14   15 1   
    39   14   35 1   
    40   14   36 1   
    41   14   37 1   
    42   15   16 1   
    43   15   37 1   
    44   15   38 1   
    45   15   39 1   
    46   16   17 1   
    47   16   39 1   
    48   16   40 1   
    49   16   41 1   
    50   17   41 1   
    51   17   42 1   
    52   17   43 1   
    53   19   28 1   
    54   19   29 1   
    55   19   30 1   
    56   21   47 1   
    57   27   31 1   
    58   44   47 1   
    59   45   47 1   
    60   46   47 1   
@<TRIPOS>SUBSTRUCTURE
     1 VT4         1 TEMP              0 ****  ****    0 ROOT
