@<TRIPOS>MOLECULE
VT4
   47    48     1     0     0
SMALL
bcc


@<TRIPOS>ATOM
      1 C1          0.0740    0.0180   -0.0750 cc        1 VT4     -0.305200
      2 C2          1.4350   -0.0950    0.0000 cd        1 VT4      0.137800
      3 C4          1.3100   -0.2650    2.3850 cc        1 VT4      0.075000
      4 C5         -0.0560   -0.1510    2.3560 cd        1 VT4     -0.093100
      5 C6         -0.7970    0.0010    1.0980 c         1 VT4      0.570500
      6 C8         -1.3320   -1.1740    4.0630 ca        1 VT4      0.122100
      7 C9         -2.1670   -0.9700    5.1830 ca        1 VT4     -0.090300
      8 C10        -2.7760   -2.0870    5.7590 ca        1 VT4     -0.107000
      9 C11        -2.5690   -3.3650    5.2390 ca        1 VT4     -0.157000
     10 C12        -1.7490   -3.5450    4.1280 ca        1 VT4     -0.105000
     11 C13        -1.1240   -2.4500    3.5330 ca        1 VT4     -0.182000
     12 C14         2.2470   -0.0630   -1.2650 c3        1 VT4     -0.052200
     13 C15         2.4640   -1.4600   -1.8160 c3        1 VT4     -0.079400
     14 C16         3.2510   -1.4120   -3.1090 c3        1 VT4     -0.080400
     15 C17         3.4660   -2.8030   -3.6670 c3        1 VT4     -0.079400
     16 C18         4.2520   -2.7590   -4.9600 c3        1 VT4     -0.080400
     17 C19         4.4700   -4.1410   -5.5200 c3        1 VT4     -0.093100
     18 O17        -2.0300    0.1080    1.0250 o         1 VT4     -0.553100
     19 C80        -2.3830    0.3920    5.7170 c3        1 VT4     -0.044800
     20 O7         -0.7240   -0.0210    3.5680 os        1 VT4     -0.228200
     21 N           2.0750   -0.2530    1.2330 na        1 VT4     -0.507200
     22 H1         -0.4200    0.1330   -1.0510 ha        1 VT4      0.163000
     23 H141        3.2350    0.4430   -1.1030 hc        1 VT4      0.062200
     24 H142        1.6880    0.5520   -2.0220 hc        1 VT4      0.062200
     25 H4          1.8560   -0.3650    3.3420 h4        1 VT4      0.166000
     26 H13        -0.4870   -2.5840    2.6470 ha        1 VT4      0.139000
     27 H10        -3.4320   -1.9510    6.6320 ha        1 VT4      0.132000
     28 H801       -2.7060    1.0780    4.8930 hc        1 VT4      0.047700
     29 H802       -1.4280    0.7930    6.1410 hc        1 VT4      0.047700
     30 H803       -3.1620    0.3960    6.5170 hc        1 VT4      0.047700
     31 H11        -3.0610   -4.2310    5.7060 ha        1 VT4      0.130000
     32 H12        -1.5930   -4.5520    3.7130 ha        1 VT4      0.129000
     33 H151        3.0100   -2.0880   -1.0650 hc        1 VT4      0.049200
     34 H152        1.4700   -1.9480   -1.9960 hc        1 VT4      0.049200
     35 H161        2.7020   -0.7860   -3.8610 hc        1 VT4      0.041700
     36 H162        4.2430   -0.9200   -2.9300 hc        1 VT4      0.041700
     37 H171        4.0140   -3.4300   -2.9160 hc        1 VT4      0.042200
     38 H172        2.4740   -3.2940   -3.8470 hc        1 VT4      0.042200
     39 H181        5.2430   -2.2650   -4.7790 hc        1 VT4      0.039200
     40 H182        3.7030   -2.1310   -5.7110 hc        1 VT4      0.039200
     41 H191        3.4930   -4.6400   -5.7310 hc        1 VT4      0.034033
     42 H192        5.0380   -4.7750   -4.7970 hc        1 VT4      0.034033
     43 H193        5.0500   -4.0870   -6.4730 hc        1 VT4      0.034033
     44 H211        3.9450    0.7190    1.0900 h1        1 VT4      0.055033
     45 H212        3.9220   -1.0460    0.6070 h1        1 VT4      0.055033
     46 H213        3.8200   -0.5800    2.3690 h1        1 VT4      0.055033
     47 C21         3.5110   -0.2900    1.3290 c3        1 VT4      0.195100
@<TRIPOS>BOND
     1    1    2 2   
     2    1    5 1   
     3    1   22 1   
     4    2   12 1   
     5    2   21 1   
     6    3    4 2   
     7    3   21 1   
     8    3   25 1   
     9    4    5 1   
    10    4   20 1   
    11    5   18 2   
    12    6    7 ar  
    13    6   11 ar  
    14    6   20 1   
    15    7    8 ar  
    16    7   19 1   
    17    8    9 ar  
    18    8   27 1   
    19    9   10 ar  
    20    9   31 1   
    21   10   11 ar  
    22   10   32 1   
    23   11   26 1   
    24   12   13 1   
    25   12   23 1   
    26   12   24 1   
    27   13   14 1   
    28   13   33 1   
    29   13   34 1   
    30   14   15 1   
    31   14   35 1   
    32   14   36 1   
    33   15   16 1   
    34   15   37 1   
    35   15   38 1   
    36   16   17 1   
    37   16   39 1   
    38   16   40 1   
    39   17   41 1   
    40   17   42 1   
    41   17   43 1   
    42   19   28 1   
    43   19   29 1   
    44   19   30 1   
    45   21   47 1   
    46   44   47 1   
    47   45   47 1   
    48   46   47 1   
@<TRIPOS>SUBSTRUCTURE
     1 VT4         1 TEMP              0 ****  ****    0 ROOT
