@<TRIPOS>MOLECULE
VTB
   31    31     1     0     0
SMALL
bcc


@<TRIPOS>ATOM
      1 C1         -0.2060   -0.7710    0.2480 c3        1 VTB      0.121100
      2 C2          1.2860   -0.5350   -0.0540 c3        1 VTB      0.113100
      3 C3          2.0000   -0.0230    1.2060 c3        1 VTB      0.115100
      4 O4          0.3790   -1.3020    2.6020 os        1 VTB     -0.459600
      5 O6         -0.7810    0.4970    0.4620 oh        1 VTB     -0.699800
      6 C7         -0.3670   -1.7150    1.4400 c3        1 VTB      0.083100
      7 O8          1.4590    0.3920   -1.1100 oh        1 VTB     -0.625800
      8 C10        -1.8410   -1.8130    1.9240 c3        1 VTB      0.239400
      9 O12        -2.5990   -2.4840    1.0060 os        1 VTB     -0.563200
     10 O15         3.3970    0.1160    1.0200 oh        1 VTB     -0.610800
     11 P15        -3.8690   -1.5200    0.3010 p5        1 VTB      1.328900
     12 O16        -4.6770   -2.5220   -0.4620 o         1 VTB     -0.919833
     13 O17        -4.4820   -0.8810    1.5120 o         1 VTB     -0.919833
     14 O18        -3.0030   -0.5790   -0.5150 o         1 VTB     -0.919833
     15 C20         1.7260   -0.9670    2.3920 c3        1 VTB      0.285600
     16 O20         2.4050   -2.1890    2.1440 oh        1 VTB     -0.648800
     17 C21         2.2150   -0.3450    3.7190 c3        1 VTB      0.121400
     18 O22         1.9500   -1.1990    4.8140 oh        1 VTB     -0.631800
     19 H1         -0.6980   -1.2620   -0.6440 h1        1 VTB      0.109700
     20 H2          1.7730   -1.4870   -0.4020 h1        1 VTB      0.054700
     21 H3          1.6270    1.0080    1.4570 h1        1 VTB      0.096700
     22 HO6        -1.7580    0.3840    0.2590 ho        1 VTB      0.515000
     23 H7          0.0140   -2.7310    1.1440 h1        1 VTB      0.025700
     24 HO8         0.7100    1.0070   -1.0630 ho        1 VTB      0.429000
     25 H10        -2.2340   -0.7760    2.1190 h1        1 VTB      0.007700
     26 H10A       -1.8120   -2.3840    2.9000 h1        1 VTB      0.007700
     27 HO15        3.7150   -0.7350    0.6930 ho        1 VTB      0.401000
     28 HO20        2.0710   -2.8250    2.7900 ho        1 VTB      0.415000
     29 H21         1.7130    0.6460    3.8710 h1        1 VTB      0.049200
     30 H21A        3.3280   -0.2270    3.6840 h1        1 VTB      0.049200
     31 HO22        1.0120   -1.4300    4.7650 ho        1 VTB      0.426000
@<TRIPOS>BOND
     1    1    2 1   
     2    1    5 1   
     3    1    6 1   
     4    1   19 1   
     5    2    3 1   
     6    2    7 1   
     7    2   20 1   
     8    3   10 1   
     9    3   15 1   
    10    3   21 1   
    11    4    6 1   
    12    4   15 1   
    13    5   22 1   
    14    6    8 1   
    15    6   23 1   
    16    7   24 1   
    17    8    9 1   
    18    8   25 1   
    19    8   26 1   
    20    9   11 1   
    21   10   27 1   
    22   11   12 1   
    23   11   13 1   
    24   11   14 1   
    25   15   16 1   
    26   15   17 1   
    27   16   28 1   
    28   17   18 1   
    29   17   29 1   
    30   17   30 1   
    31   18   31 1   
@<TRIPOS>SUBSTRUCTURE
     1 VTB         1 TEMP              0 ****  ****    0 ROOT
