@<TRIPOS>MOLECULE
VTI
   50    52     1     0     0
SMALL
bcc


@<TRIPOS>ATOM
      1 CAA        -0.3210    1.8310   -0.2050 c3        1 VTI     -0.173100
      2 CAT         1.1170    1.4150   -0.0790 c         1 VTI      0.680100
      3 OAC         1.7140    1.3090    1.0000 o         1 VTI     -0.550100
      4 NAS         1.7860    1.1120   -1.2920 ns        1 VTI     -0.489100
      5 CAZ         3.1420    0.8450   -1.3880 ca        1 VTI      0.177600
      6 CAY         3.6120   -0.3280   -2.0540 ca        1 VTI     -0.020600
      7 CAN         4.9650   -0.6440   -2.0880 ca        1 VTI     -0.067000
      8 ClF         2.5170   -1.3780   -2.8050 cl        1 VTI     -0.006400
      9 CAX         4.1280    1.7400   -0.8690 ca        1 VTI     -0.020600
     10 ClE         3.6980    3.2520   -0.2520 cl        1 VTI     -0.006400
     11 CAM         5.4760    1.4060   -0.8990 ca        1 VTI     -0.067000
     12 CAW         5.9020    0.2030   -1.4820 ca        1 VTI     -0.247300
     13 CAO         7.3380   -0.1360   -1.4960 c3        1 VTI      0.203100
     14 NAQ         7.6710   -0.8480   -0.1820 ny        1 VTI     -0.798000
     15 CAU         9.1340   -1.1180    0.0130 c2        1 VTI      0.608100
     16 NAB        10.0760   -1.0070   -0.8430 n2        1 VTI     -0.636100
     17 NAR         9.5020   -1.6180    1.3830 ny        1 VTI     -0.690800
     18 C           8.9400   -3.0390    1.7330 c         1 VTI      0.493100
     19 O           7.8940   -3.3110    1.1850 o         1 VTI     -0.429100
     20 CA          9.8370   -3.8720    2.7450 c3        1 VTI      0.046300
     21 N           9.3200   -5.1150    3.0600 na        1 VTI     -0.054400
     22 CBB         9.4120   -6.2790    2.2350 ca        1 VTI     -0.081200
     23 CAJ        10.2870   -6.5910    1.1990 ca        1 VTI     -0.138000
     24 CAH        10.1800   -7.8620    0.6250 ca        1 VTI     -0.087000
     25 CAG         9.2370   -8.7900    1.0730 ca        1 VTI     -0.111000
     26 CAI         8.3610   -8.4870    2.1200 ca        1 VTI     -0.052000
     27 CBA         8.4380   -7.2320    2.7060 ca        1 VTI     -0.087800
     28 CAK         7.7260   -6.5990    3.8140 cc        1 VTI     -0.053200
     29 CAL         8.2460   -5.3380    3.9860 cd        1 VTI     -0.167100
     30 H1         -0.7190    2.0490    0.8180 hc        1 VTI      0.091700
     31 H2         -0.4090    2.7520   -0.8330 hc        1 VTI      0.091700
     32 H3         -0.9320    1.0150   -0.6650 hc        1 VTI      0.091700
     33 H4          1.2160    0.8320   -2.0650 hn        1 VTI      0.347500
     34 H5          5.2940   -1.5640   -2.6020 ha        1 VTI      0.155000
     35 H6          6.2160    2.1170   -0.4940 ha        1 VTI      0.155000
     36 H7          7.5920   -0.8420   -2.3370 hx        1 VTI      0.112200
     37 H8          7.9790    0.7900   -1.5490 hx        1 VTI      0.112200
     38 H9          7.1580   -1.7500   -0.1600 hn        1 VTI      0.477800
     39 H10         9.9250   -0.7020   -1.7850 hn        1 VTI      0.510400
     40 H11        10.5330   -1.6690    1.4450 hn        1 VTI      0.479800
     41 H12         9.9090   -3.2200    3.6640 h1        1 VTI      0.118200
     42 H13        10.8340   -3.9720    2.2220 h1        1 VTI      0.118200
     43 H14        11.0560   -5.8890    0.8500 ha        1 VTI      0.129000
     44 H15        10.8670   -8.1380   -0.1930 ha        1 VTI      0.161000
     45 H16         9.1890   -9.7850    0.5990 ha        1 VTI      0.168000
     46 H17         7.6330   -9.2320    2.4790 ha        1 VTI      0.170000
     47 H18         6.9370   -7.0720    4.4020 ha        1 VTI      0.194000
     48 H19         8.0100   -4.5770    4.7320 h4        1 VTI      0.183000
     49 HAQ2        7.3050   -0.2630    0.5840 hn        1 VTI      0.477800
     50 HAR2        9.1850   -0.9420    2.0870 hn        1 VTI      0.479800
@<TRIPOS>BOND
     1    1    2 1   
     2    1   30 1   
     3    1   31 1   
     4    1   32 1   
     5    2    3 2   
     6    2    4 1   
     7    4    5 1   
     8    4   33 1   
     9    5    6 ar  
    10    5    9 ar  
    11    6    7 ar  
    12    6    8 1   
    13    7   12 ar  
    14    7   34 1   
    15    9   10 1   
    16    9   11 ar  
    17   11   12 ar  
    18   11   35 1   
    19   12   13 1   
    20   13   14 1   
    21   13   36 1   
    22   13   37 1   
    23   14   15 1   
    24   14   38 1   
    25   14   49 1   
    26   15   16 2   
    27   15   17 1   
    28   16   39 1   
    29   17   18 1   
    30   17   40 1   
    31   17   50 1   
    32   18   19 2   
    33   18   20 1   
    34   20   21 1   
    35   20   41 1   
    36   20   42 1   
    37   21   22 1   
    38   21   29 1   
    39   22   23 ar  
    40   22   27 ar  
    41   23   24 ar  
    42   23   43 1   
    43   24   25 ar  
    44   24   44 1   
    45   25   26 ar  
    46   25   45 1   
    47   26   27 ar  
    48   26   46 1   
    49   27   28 1   
    50   28   29 2   
    51   28   47 1   
    52   29   48 1   
@<TRIPOS>SUBSTRUCTURE
     1 VTI         1 TEMP              0 ****  ****    0 ROOT
