@<TRIPOS>MOLECULE
VTI
   51    53     1     0     0
SMALL
bcc


@<TRIPOS>ATOM
      1 CAA        -0.5400    1.8210   -0.4870 c3        1 VTI     -0.192100
      2 CAT         0.8550    1.3300   -0.3390 c         1 VTI      0.575100
      3 OAC         1.4420    0.8790    0.6220 o         1 VTI     -0.380100
      4 NAS         1.6870    1.4210   -1.6520 n4        1 VTI     -0.583200
      5 CAZ         3.0750    0.9850   -1.5250 ca        1 VTI      0.011600
      6 CAY         3.4260   -0.3640   -1.7650 ca        1 VTI      0.048900
      7 CAN         4.7640   -0.7670   -1.6640 ca        1 VTI     -0.080500
      8 CLF         2.2600   -1.5020   -2.1910 cl        1 VTI      0.036100
      9 CAX         4.0840    1.9100   -1.1690 ca        1 VTI      0.048900
     10 CLE         3.7150    3.5270   -0.8730 cl        1 VTI      0.036100
     11 CAM         5.4170    1.4880   -1.0710 ca        1 VTI     -0.080500
     12 CAW         5.7560    0.1570   -1.3240 ca        1 VTI     -0.131300
     13 CAO         7.1980   -0.2470   -1.3580 c3        1 VTI      0.159100
     14 NAQ         7.6600   -0.8460   -0.0560 n4        1 VTI     -0.791000
     15 CAU         9.1460   -1.1770   -0.0420 c2        1 VTI      0.619100
     16 NAB         9.9630   -1.1160   -1.0150 n2        1 VTI     -0.627100
     17 NAR         9.6420   -1.6850    1.2800 n4        1 VTI     -0.689800
     18 C           9.0390   -3.0600    1.7680 c         1 VTI      0.485100
     19 O           7.9190   -3.2790    1.3630 o         1 VTI     -0.458100
     20 CA         10.0210   -3.9410    2.7260 c3        1 VTI      0.056300
     21 N           9.4860   -5.1510    3.0750 na        1 VTI     -0.030400
     22 CBB         9.5390   -6.3540    2.3000 ca        1 VTI     -0.091200
     23 CAJ        10.3190   -6.6900    1.1990 ca        1 VTI     -0.128000
     24 CAH        10.2010   -7.9950    0.7010 ca        1 VTI     -0.085000
     25 CAG         9.3420   -8.9250    1.2840 ca        1 VTI     -0.100000
     26 CAI         8.5600   -8.5940    2.4000 ca        1 VTI     -0.043000
     27 CBA         8.6510   -7.3110    2.9120 ca        1 VTI     -0.092800
     28 CAK         8.0360   -6.6470    4.0610 cc        1 VTI     -0.029200
     29 CAL         8.5300   -5.3660    4.1260 cd        1 VTI     -0.178100
     30 H1         -1.0730    1.6630    0.4930 hc        1 VTI      0.134367
     31 H2         -0.5580    2.9180   -0.7250 hc        1 VTI      0.134367
     32 H3         -1.0930    1.2610   -1.2860 hc        1 VTI      0.134367
     33 H4          1.2140    0.8440   -2.3650 hn        1 VTI      0.479800
     34 H5          5.0200   -1.8200   -1.8830 ha        1 VTI      0.185500
     35 H6          6.1920    2.2350   -0.8180 ha        1 VTI      0.185500
     36 H7          7.8390    0.6590   -1.5770 hx        1 VTI      0.130200
     37 H8          7.3520   -1.0210   -2.1700 hx        1 VTI      0.130200
     38 H9          7.1280   -1.7200    0.1240 hn        1 VTI      0.480800
     39 H10         9.7340   -0.8270   -1.9450 hn        1 VTI      0.516400
     40 H11        10.6660   -1.8210    1.2030 hn        1 VTI      0.479300
     41 H12        10.9540   -4.0540    2.1030 h1        1 VTI      0.122200
     42 H13        10.1660   -3.2650    3.6170 h1        1 VTI      0.122200
     43 H14        11.0260   -5.9870    0.7410 ha        1 VTI      0.131000
     44 H15        10.8180   -8.2930   -0.1650 ha        1 VTI      0.168000
     45 H16         9.2850   -9.9480    0.8710 ha        1 VTI      0.177000
     46 H17         7.9010   -9.3450    2.8660 ha        1 VTI      0.177000
     47 H18         7.3300   -7.1160    4.7500 ha        1 VTI      0.201000
     48 H19         8.3530   -4.5800    4.8640 h4        1 VTI      0.188000
     49 HAS2        1.6670    2.4010   -1.9720 hn        1 VTI      0.479800
     50 HAQ2        7.4490   -0.1820    0.7020 hn        1 VTI      0.480800
     51 HAR2        9.4880   -0.9690    1.9990 hn        1 VTI      0.479300
@<TRIPOS>BOND
     1    1    2 1   
     2    1   30 1   
     3    1   31 1   
     4    1   32 1   
     5    2    3 2   
     6    2    4 1   
     7    4    5 1   
     8    4   33 1   
     9    4   49 1   
    10    5    6 ar  
    11    5    9 ar  
    12    6    7 ar  
    13    6    8 1   
    14    7   12 ar  
    15    7   34 1   
    16    9   10 1   
    17    9   11 ar  
    18   11   12 ar  
    19   11   35 1   
    20   12   13 1   
    21   13   14 1   
    22   13   36 1   
    23   13   37 1   
    24   14   15 1   
    25   14   38 1   
    26   14   50 1   
    27   15   16 2   
    28   15   17 1   
    29   16   39 1   
    30   17   18 1   
    31   17   40 1   
    32   17   51 1   
    33   18   19 2   
    34   18   20 1   
    35   20   21 1   
    36   20   41 1   
    37   20   42 1   
    38   21   22 1   
    39   21   29 1   
    40   22   23 ar  
    41   22   27 ar  
    42   23   24 ar  
    43   23   43 1   
    44   24   25 ar  
    45   24   44 1   
    46   25   26 ar  
    47   25   45 1   
    48   26   27 ar  
    49   26   46 1   
    50   27   28 1   
    51   28   29 2   
    52   28   47 1   
    53   29   48 1   
@<TRIPOS>SUBSTRUCTURE
     1 VTI         1 TEMP              0 ****  ****    0 ROOT
