@<TRIPOS>MOLECULE
VTI
   48    50     1     0     0
SMALL
bcc


@<TRIPOS>ATOM
      1 CAA        -7.6060    1.0180    2.8570 c3        1 VTI     -0.174100
      2 CAT        -6.3700    1.0110    1.9900 c         1 VTI      0.664100
      3 OAC        -5.8460    2.0620    1.5880 o         1 VTI     -0.569100
      4 NAS        -5.8720   -0.2490    1.6470 n         1 VTI     -0.485100
      5 CAZ        -4.6860   -0.4450    0.9150 ca        1 VTI      0.064600
      6 CAY        -3.5440   -1.0280    1.5200 ca        1 VTI      0.016400
      7 CAN        -2.3750   -1.2540    0.7960 ca        1 VTI     -0.105500
      8 CLF        -3.5880   -1.4810    3.1610 cl        1 VTI     -0.076400
      9 CAX        -4.6000   -0.1140   -0.4570 ca        1 VTI      0.016400
     10 CLE        -5.9350    0.5340   -1.2810 cl        1 VTI     -0.076400
     11 CAM        -3.4170   -0.3220   -1.1730 ca        1 VTI     -0.105500
     12 CAW        -2.3080   -0.8950   -0.5520 ca        1 VTI     -0.086300
     13 CAO        -1.0590   -1.1570   -1.3440 c3        1 VTI      0.240100
     14 NAQ         0.0780   -0.4100   -0.8400 nh        1 VTI     -0.794200
     15 CAU         1.3600   -0.7450   -1.3630 c2        1 VTI      0.659800
     16 NAB         1.4830   -1.4340   -2.4660 n2        1 VTI     -0.859100
     17 NAR         2.4920   -0.1850   -0.6490 n         1 VTI     -0.544400
     18 C           2.6140   -0.1360    0.7210 c         1 VTI      0.645100
     19 O           1.7400   -0.5660    1.4980 o         1 VTI     -0.606100
     20 CA          3.8810    0.5120    1.3180 c3        1 VTI     -0.027700
     21 N           5.1180    0.1770    0.7000 na        1 VTI     -0.090400
     22 CBB         5.6120    0.7240   -0.4980 ca        1 VTI     -0.059200
     23 CAJ         5.1820    1.8220   -1.2570 ca        1 VTI     -0.161000
     24 CAH         5.9090    2.1460   -2.3940 ca        1 VTI     -0.107000
     25 CAG         7.0390    1.4070   -2.7810 ca        1 VTI     -0.153000
     26 CAI         7.4790    0.3200   -2.0380 ca        1 VTI     -0.079000
     27 CBA         6.7740   -0.0420   -0.8910 ca        1 VTI     -0.088800
     28 CAK         6.9340   -1.0870    0.0990 cc        1 VTI     -0.176200
     29 CAL         5.9120   -0.9400    1.0250 cd        1 VTI     -0.098100
     30 H1         -7.9120    2.0790    3.0300 hc        1 VTI      0.069033
     31 H2         -8.4420    0.4770    2.3500 hc        1 VTI      0.069033
     32 H3         -7.3990    0.5330    3.8410 hc        1 VTI      0.069033
     33 H4         -6.1700   -1.0260    2.1920 hn        1 VTI      0.320500
     34 H5         -1.5030   -1.7120    1.2910 ha        1 VTI      0.159000
     35 H6         -3.3660   -0.0340   -2.2360 ha        1 VTI      0.159000
     36 H7         -0.8670   -2.2720   -1.3310 h1        1 VTI      0.065200
     37 H8         -1.2130   -0.8550   -2.4200 h1        1 VTI      0.065200
     38 H9          0.0600   -0.2860    0.1570 hn        1 VTI      0.428800
     39 H10         2.4080   -1.5460   -2.8200 hn        1 VTI      0.403400
     40 H11         3.2290    0.1780   -1.2150 hn        1 VTI      0.337500
     41 H12         3.7310    1.6300    1.2660 h1        1 VTI      0.095700
     42 H13         3.9170    0.2000    2.4030 h1        1 VTI      0.095700
     43 H14         4.3090    2.4170   -0.9550 ha        1 VTI      0.135000
     44 H15         5.5930    3.0030   -3.0090 ha        1 VTI      0.135000
     45 H16         7.5840    1.7020   -3.6900 ha        1 VTI      0.135000
     46 H17         8.3680   -0.2510   -2.3420 ha        1 VTI      0.139000
     47 H18         7.7190   -1.8380    0.1050 ha        1 VTI      0.162000
     48 H19         5.6870   -1.5310    1.9150 h4        1 VTI      0.173000
@<TRIPOS>BOND
     1    1    2 1   
     2    1   30 1   
     3    1   31 1   
     4    1   32 1   
     5    2    3 2   
     6    2    4 1   
     7    4    5 1   
     8    4   33 1   
     9    5    6 ar  
    10    5    9 ar  
    11    6    7 ar  
    12    6    8 1   
    13    7   12 ar  
    14    7   34 1   
    15    9   10 1   
    16    9   11 ar  
    17   11   12 ar  
    18   11   35 1   
    19   12   13 1   
    20   13   14 1   
    21   13   36 1   
    22   13   37 1   
    23   14   15 1   
    24   14   38 1   
    25   15   16 2   
    26   15   17 1   
    27   16   39 1   
    28   17   18 1   
    29   17   40 1   
    30   18   19 2   
    31   18   20 1   
    32   20   21 1   
    33   20   41 1   
    34   20   42 1   
    35   21   22 1   
    36   21   29 1   
    37   22   23 ar  
    38   22   27 ar  
    39   23   24 ar  
    40   23   43 1   
    41   24   25 ar  
    42   24   44 1   
    43   25   26 ar  
    44   25   45 1   
    45   26   27 ar  
    46   26   46 1   
    47   27   28 1   
    48   28   29 2   
    49   28   47 1   
    50   29   48 1   
@<TRIPOS>SUBSTRUCTURE
     1 VTI         1 TEMP              0 ****  ****    0 ROOT
