@<TRIPOS>MOLECULE
VTI
   50    52     1     0     0
SMALL
bcc


@<TRIPOS>ATOM
      1 CAA        -0.3130    1.8310   -0.2440 c3        1 VTI     -0.173100
      2 CAT         1.1240    1.4150   -0.1070 c         1 VTI      0.680100
      3 OAC         1.7120    1.3010    0.9760 o         1 VTI     -0.550100
      4 NAS         1.8040    1.1210   -1.3170 n         1 VTI     -0.489100
      5 CAZ         3.1610    0.8560   -1.4020 ca        1 VTI      0.177600
      6 CAY         3.6390   -0.3130   -2.0710 ca        1 VTI     -0.020600
      7 CAN         4.9920   -0.6280   -2.0960 ca        1 VTI     -0.067000
      8 CLF         2.5510   -1.3580   -2.8410 cl        1 VTI     -0.006400
      9 CAX         4.1420    1.7470   -0.8670 ca        1 VTI     -0.020600
     10 CLE         3.7060    3.2550   -0.2430 cl        1 VTI     -0.006400
     11 CAM         5.4910    1.4140   -0.8870 ca        1 VTI     -0.067000
     12 CAW         5.9230    0.2160   -1.4750 ca        1 VTI     -0.247300
     13 CAO         7.3590   -0.1220   -1.4780 c3        1 VTI      0.203100
     14 NAQ         7.6800   -0.8440   -0.1650 n4        1 VTI     -0.798000
     15 CAU         9.1410   -1.1140    0.0420 c2        1 VTI      0.608100
     16 NAB        10.0910   -0.9980   -0.8040 n2        1 VTI     -0.636100
     17 NAR         9.4960   -1.6240    1.4110 n4        1 VTI     -0.690800
     18 C           8.9300   -3.0470    1.7480 c         1 VTI      0.493100
     19 O           7.8900   -3.3150    1.1880 o         1 VTI     -0.429100
     20 CA          9.8180   -3.8860    2.7620 c3        1 VTI      0.046300
     21 N           9.2960   -5.1300    3.0670 na        1 VTI     -0.054400
     22 CBB         9.3920   -6.2900    2.2370 ca        1 VTI     -0.081200
     23 CAJ        10.2750   -6.5980    1.2060 ca        1 VTI     -0.138000
     24 CAH        10.1700   -7.8650    0.6240 ca        1 VTI     -0.087000
     25 CAG         9.2210   -8.7940    1.0600 ca        1 VTI     -0.111000
     26 CAI         8.3370   -8.4940    2.1020 ca        1 VTI     -0.052000
     27 CBA         8.4130   -7.2430    2.6950 ca        1 VTI     -0.087800
     28 CAK         7.6930   -6.6140    3.8010 cc        1 VTI     -0.053200
     29 CAL         8.2150   -5.3560    3.9830 cd        1 VTI     -0.168100
     30 H1         -0.7200    2.0410    0.7780 hc        1 VTI      0.091700
     31 H2         -0.3950    2.7560   -0.8660 hc        1 VTI      0.091700
     32 H3         -0.9190    1.0180   -0.7150 hc        1 VTI      0.091700
     33 H4          1.2420    0.8460   -2.0970 hn        1 VTI      0.347500
     34 H5          5.3270   -1.5440   -2.6130 ha        1 VTI      0.155000
     35 H6          6.2270    2.1230   -0.4700 ha        1 VTI      0.155000
     36 H7          7.6220   -0.8230   -2.3210 hx        1 VTI      0.112200
     37 H8          8.0000    0.8040   -1.5180 hx        1 VTI      0.112200
     38 H9          7.3070   -0.2630    0.6010 hn        1 VTI      0.477800
     39 H10         9.9490   -0.6860   -1.7460 hn        1 VTI      0.510400
     40 H11        10.5260   -1.6750    1.4830 hn        1 VTI      0.479800
     41 H12        10.8190   -3.9850    2.2460 h1        1 VTI      0.118200
     42 H13         9.8840   -3.2390    3.6850 h1        1 VTI      0.118200
     43 H14        11.0470   -5.8960    0.8660 ha        1 VTI      0.129000
     44 H15        10.8620   -8.1390   -0.1890 ha        1 VTI      0.161000
     45 H16         9.1750   -9.7870    0.5810 ha        1 VTI      0.168000
     46 H17         7.6060   -9.2400    2.4510 ha        1 VTI      0.170000
     47 H18         6.8990   -7.0890    4.3800 ha        1 VTI      0.194000
     48 H19         7.9740   -4.5970    4.7320 h4        1 VTI      0.183000
     49 HAQ2        7.1660   -1.7450   -0.1540 hn        1 VTI      0.477800
     50 HAR2        9.1730   -0.9520    2.1180 hn        1 VTI      0.479800
@<TRIPOS>BOND
     1    1    2 1   
     2    1   30 1   
     3    1   31 1   
     4    1   32 1   
     5    2    3 2   
     6    2    4 1   
     7    4    5 1   
     8    4   33 1   
     9    5    6 ar  
    10    5    9 ar  
    11    6    7 ar  
    12    6    8 1   
    13    7   12 ar  
    14    7   34 1   
    15    9   10 1   
    16    9   11 ar  
    17   11   12 ar  
    18   11   35 1   
    19   12   13 1   
    20   13   14 1   
    21   13   36 1   
    22   13   37 1   
    23   14   15 1   
    24   14   38 1   
    25   14   49 1   
    26   15   16 2   
    27   15   17 1   
    28   16   39 1   
    29   17   18 1   
    30   17   40 1   
    31   17   50 1   
    32   18   19 2   
    33   18   20 1   
    34   20   21 1   
    35   20   41 1   
    36   20   42 1   
    37   21   22 1   
    38   21   29 1   
    39   22   23 ar  
    40   22   27 ar  
    41   23   24 ar  
    42   23   43 1   
    43   24   25 ar  
    44   24   44 1   
    45   25   26 ar  
    46   25   45 1   
    47   26   27 ar  
    48   26   46 1   
    49   27   28 1   
    50   28   29 2   
    51   28   47 1   
    52   29   48 1   
@<TRIPOS>SUBSTRUCTURE
     1 VTI         1 TEMP              0 ****  ****    0 ROOT
