@<TRIPOS>MOLECULE
VTQ
   82    82     1     0     0
SMALL
bcc


@<TRIPOS>ATOM
      1 O3          0.8430    1.6610   -2.9460 oh        1 VTQ     -0.602800
      2 C9         -0.4790    1.2450   -2.6080 c3        1 VTQ      0.154800
      3 C14        -1.2610    2.5230   -2.3290 c3        1 VTQ     -0.086100
      4 C11        -1.1130    0.4580   -3.7650 c3        1 VTQ     -0.102400
      5 C10        -0.9870    1.1830   -5.0940 c3        1 VTQ     -0.049200
      6 C3         -0.8020    0.2290   -6.2230 cc        1 VTQ     -0.140400
      7 C2         -1.7820   -0.0950   -7.0930 cd        1 VTQ     -0.128400
      8 C8         -3.1570    0.4480   -6.9960 c3        1 VTQ     -0.069900
      9 C4          0.5570   -0.3570   -6.3460 c         1 VTQ      0.563500
     10 O1          1.3820   -0.2860   -5.4250 o         1 VTQ     -0.518100
     11 C5          0.8760   -1.0300   -7.6290 cc        1 VTQ     -0.139400
     12 C12         2.2980   -1.3410   -7.8940 c3        1 VTQ     -0.066900
     13 C6         -0.1020   -1.3480   -8.5060 cd        1 VTQ     -0.136400
     14 C13         0.1900   -2.0280   -9.7880 c3        1 VTQ     -0.067900
     15 C7         -1.5220   -1.0360   -8.2140 c         1 VTQ      0.556500
     16 O2         -2.4450   -1.5320   -8.8730 o         1 VTQ     -0.503100
     17 C15        -0.4400    0.3340   -1.3730 c3        1 VTQ     -0.101400
     18 C16         0.1730    1.0160   -0.1690 c3        1 VTQ     -0.078400
     19 C17         0.4150    0.0270    0.9510 c3        1 VTQ     -0.075400
     20 C18         0.9110    0.7010    2.2230 c3        1 VTQ     -0.064700
     21 C19         2.3260    1.2120    2.0490 c3        1 VTQ     -0.090100
     22 C20         0.8250   -0.2760    3.3900 c3        1 VTQ     -0.076400
     23 C21         0.8900    0.4230    4.7320 c3        1 VTQ     -0.079400
     24 C22         0.7640   -0.5720    5.8670 c3        1 VTQ     -0.076400
     25 C23         0.7690    0.1030    7.2330 c3        1 VTQ     -0.064700
     26 C1          2.1590    0.5870    7.5910 c3        1 VTQ     -0.089100
     27 C24         0.2410   -0.8630    8.2860 c3        1 VTQ     -0.076400
     28 C25        -0.1350   -0.1630    9.5750 c3        1 VTQ     -0.079400
     29 C26        -0.7220   -1.1400   10.5720 c3        1 VTQ     -0.076400
     30 C27        -1.1240   -0.4650   11.8750 c3        1 VTQ     -0.067700
     31 C28        -2.0820   -1.3510   12.6460 c3        1 VTQ     -0.089600
     32 C29         0.0850   -0.1410   12.7270 c3        1 VTQ     -0.089600
     33 H3          1.2940    0.8930   -3.3250 ho        1 VTQ      0.417000
     34 H141       -2.2510    2.2680   -1.8830 hc        1 VTQ      0.044367
     35 H142       -0.6910    3.1700   -1.6210 hc        1 VTQ      0.044367
     36 H143       -1.4170    3.0900   -3.2770 hc        1 VTQ      0.044367
     37 H111       -0.6000   -0.5390   -3.8320 hc        1 VTQ      0.051200
     38 H112       -2.1920    0.2720   -3.5300 hc        1 VTQ      0.051200
     39 H101       -1.8900    1.8260   -5.2650 hc        1 VTQ      0.069700
     40 H102       -0.0920    1.8670   -5.0600 hc        1 VTQ      0.069700
     41 H8C1       -3.8550   -0.1030   -7.6760 hc        1 VTQ      0.061033
     42 H8C2       -3.5410    0.3600   -5.9490 hc        1 VTQ      0.061033
     43 H8C3       -3.1630    1.5300   -7.2830 hc        1 VTQ      0.061033
     44 H121        2.9460   -1.0410   -7.0320 hc        1 VTQ      0.059700
     45 H122        2.4270   -2.4390   -8.0720 hc        1 VTQ      0.059700
     46 H123        2.6440   -0.7990   -8.8110 hc        1 VTQ      0.059700
     47 H131       -0.7500   -2.2480  -10.3540 hc        1 VTQ      0.060367
     48 H132        0.8510   -1.3850  -10.4220 hc        1 VTQ      0.060367
     49 H133        0.7260   -2.9940   -9.5990 hc        1 VTQ      0.060367
     50 H151        0.1600   -0.5810   -1.6240 hc        1 VTQ      0.042700
     51 H152       -1.4830    0.0030   -1.1360 hc        1 VTQ      0.042700
     52 H161       -0.5090    1.8320    0.1890 hc        1 VTQ      0.050200
     53 H162        1.1380    1.5000   -0.4770 hc        1 VTQ      0.050200
     54 H171        1.1640   -0.7410    0.6220 hc        1 VTQ      0.037700
     55 H172       -0.5430   -0.5160    1.1690 hc        1 VTQ      0.037700
     56 H18         0.2390    1.5780    2.4440 hc        1 VTQ      0.046700
     57 H191        3.0200    0.3720    1.8030 hc        1 VTQ      0.034700
     58 H192        2.3710    1.9620    1.2220 hc        1 VTQ      0.034700
     59 H193        2.6830    1.7020    2.9860 hc        1 VTQ      0.034700
     60 H201        1.6580   -1.0220    3.3120 hc        1 VTQ      0.039200
     61 H202       -0.1390   -0.8470    3.3260 hc        1 VTQ      0.039200
     62 H211        0.0660    1.1810    4.8020 hc        1 VTQ      0.040700
     63 H212        1.8600    0.9800    4.8220 hc        1 VTQ      0.040700
     64 H221        1.6030   -1.3130    5.8140 hc        1 VTQ      0.039700
     65 H222       -0.1930   -1.1450    5.7400 hc        1 VTQ      0.039700
     66 H23         0.0790    0.9930    7.1910 hc        1 VTQ      0.047700
     67 H1C1        2.8710   -0.2710    7.6490 hc        1 VTQ      0.033367
     68 H1C2        2.5330    1.3050    6.8230 hc        1 VTQ      0.033367
     69 H1C3        2.1490    1.1050    8.5800 hc        1 VTQ      0.033367
     70 H241        1.0160   -1.6470    8.4940 hc        1 VTQ      0.039700
     71 H242       -0.6650   -1.3910    7.8840 hc        1 VTQ      0.039700
     72 H251       -0.8800    0.6480    9.3600 hc        1 VTQ      0.040200
     73 H252        0.7710    0.3290   10.0180 hc        1 VTQ      0.040200
     74 H261        0.0210   -1.9520   10.7860 hc        1 VTQ      0.039700
     75 H262       -1.6250   -1.6280   10.1170 hc        1 VTQ      0.039700
     76 H27        -1.6540    0.4990   11.6290 hc        1 VTQ      0.045700
     77 H281       -2.3690   -0.8650   13.6100 hc        1 VTQ      0.032867
     78 H282       -3.0090   -1.5350   12.0520 hc        1 VTQ      0.032867
     79 H283       -1.6070   -2.3360   12.8740 hc        1 VTQ      0.032867
     80 H291        0.6390   -1.0740   12.9940 hc        1 VTQ      0.032867
     81 H292        0.7810    0.5390   12.1800 hc        1 VTQ      0.032867
     82 H293       -0.2320    0.3630   13.6720 hc        1 VTQ      0.032867
@<TRIPOS>BOND
     1    1    2 1   
     2    1   33 1   
     3    2    3 1   
     4    2    4 1   
     5    2   17 1   
     6    3   34 1   
     7    3   35 1   
     8    3   36 1   
     9    4    5 1   
    10    4   37 1   
    11    4   38 1   
    12    5    6 1   
    13    5   39 1   
    14    5   40 1   
    15    6    7 2   
    16    6    9 1   
    17    7    8 1   
    18    7   15 1   
    19    8   41 1   
    20    8   42 1   
    21    8   43 1   
    22    9   10 2   
    23    9   11 1   
    24   11   12 1   
    25   11   13 2   
    26   12   44 1   
    27   12   45 1   
    28   12   46 1   
    29   13   14 1   
    30   13   15 1   
    31   14   47 1   
    32   14   48 1   
    33   14   49 1   
    34   15   16 2   
    35   17   18 1   
    36   17   50 1   
    37   17   51 1   
    38   18   19 1   
    39   18   52 1   
    40   18   53 1   
    41   19   20 1   
    42   19   54 1   
    43   19   55 1   
    44   20   21 1   
    45   20   22 1   
    46   20   56 1   
    47   21   57 1   
    48   21   58 1   
    49   21   59 1   
    50   22   23 1   
    51   22   60 1   
    52   22   61 1   
    53   23   24 1   
    54   23   62 1   
    55   23   63 1   
    56   24   25 1   
    57   24   64 1   
    58   24   65 1   
    59   25   26 1   
    60   25   27 1   
    61   25   66 1   
    62   26   67 1   
    63   26   68 1   
    64   26   69 1   
    65   27   28 1   
    66   27   70 1   
    67   27   71 1   
    68   28   29 1   
    69   28   72 1   
    70   28   73 1   
    71   29   30 1   
    72   29   74 1   
    73   29   75 1   
    74   30   31 1   
    75   30   32 1   
    76   30   76 1   
    77   31   77 1   
    78   31   78 1   
    79   31   79 1   
    80   32   80 1   
    81   32   81 1   
    82   32   82 1   
@<TRIPOS>SUBSTRUCTURE
     1 VTQ         1 TEMP              0 ****  ****    0 ROOT
