@<TRIPOS>MOLECULE
VTQ
   82    82     1     0     0
SMALL
bcc


@<TRIPOS>ATOM
      1 O3          1.6470    0.3070    0.4290 oh        1 VTQ     -0.591800
      2 C9          0.2730    0.0180    0.1770 c3        1 VTQ      0.152800
      3 C14        -0.4820   -0.1420    1.4930 c3        1 VTQ     -0.127100
      4 C11        -0.3720    1.1190   -0.6780 c3        1 VTQ     -0.103400
      5 C10        -0.0400    2.5210   -0.2010 c3        1 VTQ     -0.049200
      6 C3         -0.9120    3.5370   -0.8560 cc        1 VTQ     -0.137400
      7 C2         -2.0960    3.9230   -0.3340 cd        1 VTQ     -0.128400
      8 C8         -2.6260    3.3730    0.9360 c3        1 VTQ     -0.071900
      9 C4         -0.4050    4.1090   -2.1280 c         1 VTQ      0.556500
     10 O1          0.5980    3.6520   -2.6900 o         1 VTQ     -0.501100
     11 C5         -1.1530    5.2610   -2.6880 cc        1 VTQ     -0.135400
     12 C12        -0.5460    5.9600   -3.8440 c3        1 VTQ     -0.068900
     13 C6         -2.3360    5.6500   -2.1650 cd        1 VTQ     -0.138400
     14 C13        -3.0920    6.7970   -2.7200 c3        1 VTQ     -0.067900
     15 C7         -2.9410    4.9380   -1.0140 c         1 VTQ      0.557500
     16 O2         -4.0950    5.1770   -0.6360 o         1 VTQ     -0.504100
     17 C15         0.2640   -1.2890   -0.6280 c3        1 VTQ     -0.066400
     18 C16         0.7790   -2.4710    0.1630 c3        1 VTQ     -0.079400
     19 C17         0.9350   -3.6870   -0.7260 c3        1 VTQ     -0.075400
     20 C18         1.3340   -4.9310    0.0580 c3        1 VTQ     -0.064700
     21 C19         2.7630   -4.8250    0.5480 c3        1 VTQ     -0.090100
     22 C20         1.1480   -6.1680   -0.8120 c3        1 VTQ     -0.077400
     23 C21         1.1210   -7.4460    0.0020 c3        1 VTQ     -0.079400
     24 C22         0.8910   -8.6490   -0.8880 c3        1 VTQ     -0.076400
     25 C23         0.8040   -9.9480   -0.0950 c3        1 VTQ     -0.064700
     26 C1          2.1710  -10.3700    0.4020 c3        1 VTQ     -0.089100
     27 C24         0.1790  -11.0370   -0.9580 c3        1 VTQ     -0.076400
     28 C25        -0.2800  -12.2270   -0.1430 c3        1 VTQ     -0.079400
     29 C26        -0.9600  -13.2560   -1.0210 c3        1 VTQ     -0.076400
     30 C27        -1.4480  -14.4610   -0.2300 c3        1 VTQ     -0.067700
     31 C28        -2.4790  -15.2290   -1.0330 c3        1 VTQ     -0.089600
     32 C29        -0.3020  -15.3730    0.1530 c3        1 VTQ     -0.089600
     33 H3          1.6720    1.0830    1.0000 ho        1 VTQ      0.397000
     34 H141       -1.4720   -0.6210    1.3080 hc        1 VTQ      0.043367
     35 H142       -0.6490    0.8500    1.9770 hc        1 VTQ      0.043367
     36 H143        0.1070   -0.7830    2.1920 hc        1 VTQ      0.043367
     37 H111       -0.0160    1.0160   -1.7370 hc        1 VTQ      0.058200
     38 H112       -1.4820    0.9630   -0.6690 hc        1 VTQ      0.058200
     39 H101       -0.1530    2.5920    0.9150 hc        1 VTQ      0.061700
     40 H102        1.0360    2.7420   -0.4470 hc        1 VTQ      0.061700
     41 H8C1       -3.7150    3.6050    1.0500 hc        1 VTQ      0.060700
     42 H8C2       -2.0770    3.8220    1.8020 hc        1 VTQ      0.060700
     43 H8C3       -2.4910    2.2620    0.9740 hc        1 VTQ      0.060700
     44 H121        0.4170    5.4790   -4.1490 hc        1 VTQ      0.060033
     45 H122       -0.3480    7.0310   -3.5850 hc        1 VTQ      0.060033
     46 H123       -1.2470    5.9390   -4.7170 hc        1 VTQ      0.060033
     47 H131       -4.0570    6.9490   -2.1750 hc        1 VTQ      0.059700
     48 H132       -3.3170    6.6220   -3.8030 hc        1 VTQ      0.059700
     49 H133       -2.4820    7.7330   -2.6400 hc        1 VTQ      0.059700
     50 H151        0.9070   -1.1440   -1.5370 hc        1 VTQ      0.049700
     51 H152       -0.7850   -1.4810   -0.9710 hc        1 VTQ      0.049700
     52 H161        0.0700   -2.7070    1.0000 hc        1 VTQ      0.047700
     53 H162        1.7660   -2.1990    0.6240 hc        1 VTQ      0.047700
     54 H171        1.7050   -3.4820   -1.5150 hc        1 VTQ      0.039700
     55 H172       -0.0380   -3.8790   -1.2530 hc        1 VTQ      0.039700
     56 H18         0.6540   -5.0200    0.9520 hc        1 VTQ      0.045700
     57 H191        3.0480   -5.7380    1.1250 hc        1 VTQ      0.034033
     58 H192        3.4670   -4.7160   -0.3110 hc        1 VTQ      0.034033
     59 H193        2.8810   -3.9380    1.2160 hc        1 VTQ      0.034033
     60 H201        1.9750   -6.2200   -1.5680 hc        1 VTQ      0.039200
     61 H202        0.1840   -6.0810   -1.3810 hc        1 VTQ      0.039200
     62 H211        2.0890   -7.5620    0.5560 hc        1 VTQ      0.040200
     63 H212        0.3050   -7.3850    0.7700 hc        1 VTQ      0.040200
     64 H221       -0.0620   -8.4990   -1.4600 hc        1 VTQ      0.039700
     65 H222        1.7200   -8.7270   -1.6390 hc        1 VTQ      0.039700
     66 H23         0.1360   -9.7750    0.7960 hc        1 VTQ      0.046700
     67 H1C1        2.0950  -11.3060    1.0070 hc        1 VTQ      0.033367
     68 H1C2        2.8610  -10.5590   -0.4550 hc        1 VTQ      0.033367
     69 H1C3        2.6160   -9.5730    1.0450 hc        1 VTQ      0.033367
     70 H241       -0.7030  -10.6130   -1.5080 hc        1 VTQ      0.039700
     71 H242        0.9210  -11.3720   -1.7300 hc        1 VTQ      0.039700
     72 H251       -0.9910  -11.8850    0.6550 hc        1 VTQ      0.040200
     73 H252        0.5980  -12.6950    0.3750 hc        1 VTQ      0.040200
     74 H261       -1.8350  -12.7770   -1.5360 hc        1 VTQ      0.039700
     75 H262       -0.2520  -13.5970   -1.8210 hc        1 VTQ      0.039700
     76 H27        -1.9390  -14.0910    0.7150 hc        1 VTQ      0.045700
     77 H281       -2.0410  -15.5780   -1.9990 hc        1 VTQ      0.033033
     78 H282       -2.8290  -16.1220   -0.4610 hc        1 VTQ      0.033033
     79 H283       -3.3610  -14.5830   -1.2570 hc        1 VTQ      0.033033
     80 H291       -0.6800  -16.2430    0.7420 hc        1 VTQ      0.033033
     81 H292        0.4470  -14.8250    0.7740 hc        1 VTQ      0.033033
     82 H293        0.2120  -15.7620   -0.7590 hc        1 VTQ      0.033033
@<TRIPOS>BOND
     1    1    2 1   
     2    1   33 1   
     3    2    3 1   
     4    2    4 1   
     5    2   17 1   
     6    3   34 1   
     7    3   35 1   
     8    3   36 1   
     9    4    5 1   
    10    4   37 1   
    11    4   38 1   
    12    5    6 1   
    13    5   39 1   
    14    5   40 1   
    15    6    7 2   
    16    6    9 1   
    17    7    8 1   
    18    7   15 1   
    19    8   41 1   
    20    8   42 1   
    21    8   43 1   
    22    9   10 2   
    23    9   11 1   
    24   11   12 1   
    25   11   13 2   
    26   12   44 1   
    27   12   45 1   
    28   12   46 1   
    29   13   14 1   
    30   13   15 1   
    31   14   47 1   
    32   14   48 1   
    33   14   49 1   
    34   15   16 2   
    35   17   18 1   
    36   17   50 1   
    37   17   51 1   
    38   18   19 1   
    39   18   52 1   
    40   18   53 1   
    41   19   20 1   
    42   19   54 1   
    43   19   55 1   
    44   20   21 1   
    45   20   22 1   
    46   20   56 1   
    47   21   57 1   
    48   21   58 1   
    49   21   59 1   
    50   22   23 1   
    51   22   60 1   
    52   22   61 1   
    53   23   24 1   
    54   23   62 1   
    55   23   63 1   
    56   24   25 1   
    57   24   64 1   
    58   24   65 1   
    59   25   26 1   
    60   25   27 1   
    61   25   66 1   
    62   26   67 1   
    63   26   68 1   
    64   26   69 1   
    65   27   28 1   
    66   27   70 1   
    67   27   71 1   
    68   28   29 1   
    69   28   72 1   
    70   28   73 1   
    71   29   30 1   
    72   29   74 1   
    73   29   75 1   
    74   30   31 1   
    75   30   32 1   
    76   30   76 1   
    77   31   77 1   
    78   31   78 1   
    79   31   79 1   
    80   32   80 1   
    81   32   81 1   
    82   32   82 1   
@<TRIPOS>SUBSTRUCTURE
     1 VTQ         1 TEMP              0 ****  ****    0 ROOT
