@<TRIPOS>MOLECULE
VTQ
   82    82     1     0     0
SMALL
bcc


@<TRIPOS>ATOM
      1 O3          1.6420    0.3010    0.4260 oh        1 VTQ     -0.591800
      2 C9          0.2670    0.0140    0.1760 c3        1 VTQ      0.152800
      3 C14        -0.4850   -0.1530    1.4920 c3        1 VTQ     -0.127100
      4 C11        -0.3790    1.1210   -0.6710 c3        1 VTQ     -0.103400
      5 C10        -0.0450    2.5200   -0.1860 c3        1 VTQ     -0.049200
      6 C3         -0.9190    3.5390   -0.8340 cc        1 VTQ     -0.137400
      7 C2         -2.1010    3.9230   -0.3080 cd        1 VTQ     -0.128400
      8 C8         -2.6300    3.3660    0.9590 c3        1 VTQ     -0.071900
      9 C4         -0.4130    4.1200   -2.1030 c         1 VTQ      0.556500
     10 O1          0.5880    3.6640   -2.6700 o         1 VTQ     -0.501100
     11 C5         -1.1600    5.2770   -2.6540 cc        1 VTQ     -0.135400
     12 C12        -0.5530    5.9820   -3.8060 c3        1 VTQ     -0.068900
     13 C6         -2.3430    5.6630   -2.1280 cd        1 VTQ     -0.138400
     14 C13        -3.0980    6.8140   -2.6730 c3        1 VTQ     -0.067900
     15 C7         -2.9470    4.9430   -0.9810 c         1 VTQ      0.557500
     16 O2         -4.1000    5.1790   -0.6010 o         1 VTQ     -0.504100
     17 C15         0.2560   -1.2880   -0.6380 c3        1 VTQ     -0.066400
     18 C16         0.7730   -2.4750    0.1450 c3        1 VTQ     -0.079400
     19 C17         0.9250   -3.6860   -0.7510 c3        1 VTQ     -0.075400
     20 C18         1.3360   -4.9320    0.0230 c3        1 VTQ     -0.064700
     21 C19         2.7740   -4.8300    0.4860 c3        1 VTQ     -0.090100
     22 C20         1.1300   -6.1680   -0.8450 c3        1 VTQ     -0.076400
     23 C21         1.1310   -7.4470   -0.0350 c3        1 VTQ     -0.079400
     24 C22         0.8710   -8.6480   -0.9200 c3        1 VTQ     -0.076400
     25 C23         0.8210   -9.9500   -0.1300 c3        1 VTQ     -0.064700
     26 C1          2.2110  -10.3750    0.2980 c3        1 VTQ     -0.089100
     27 C24         0.1540  -11.0350   -0.9660 c3        1 VTQ     -0.076400
     28 C25        -0.2550  -12.2340   -0.1370 c3        1 VTQ     -0.079400
     29 C26        -0.9840  -13.2560   -0.9840 c3        1 VTQ     -0.076400
     30 C27        -1.4210  -14.4700   -0.1770 c3        1 VTQ     -0.067700
     31 C28        -2.4970  -15.2330   -0.9240 c3        1 VTQ     -0.089600
     32 C29        -0.2520  -15.3840    0.1260 c3        1 VTQ     -0.089600
     33 H3          1.6680    1.0740    1.0020 ho        1 VTQ      0.397000
     34 H141       -1.4760   -0.6310    1.3070 hc        1 VTQ      0.043367
     35 H142       -0.6510    0.8360    1.9820 hc        1 VTQ      0.043367
     36 H143        0.1050   -0.7980    2.1860 hc        1 VTQ      0.043367
     37 H111       -0.0250    1.0240   -1.7320 hc        1 VTQ      0.058200
     38 H112       -1.4890    0.9640   -0.6620 hc        1 VTQ      0.058200
     39 H101        1.0300    2.7420   -0.4330 hc        1 VTQ      0.061700
     40 H102       -0.1570    2.5840    0.9290 hc        1 VTQ      0.061700
     41 H8C1       -3.7190    3.5970    1.0760 hc        1 VTQ      0.060700
     42 H8C2       -2.0800    3.8100    1.8270 hc        1 VTQ      0.060700
     43 H8C3       -2.4950    2.2550    0.9910 hc        1 VTQ      0.060700
     44 H121       -1.2560    5.9700   -4.6780 hc        1 VTQ      0.060033
     45 H122       -0.3540    7.0520   -3.5390 hc        1 VTQ      0.060033
     46 H123        0.4090    5.5030   -4.1150 hc        1 VTQ      0.060033
     47 H131       -2.4870    7.7490   -2.5880 hc        1 VTQ      0.059700
     48 H132       -4.0620    6.9640   -2.1260 hc        1 VTQ      0.059700
     49 H133       -3.3250    6.6480   -3.7570 hc        1 VTQ      0.059700
     50 H151        0.8960   -1.1370   -1.5470 hc        1 VTQ      0.049700
     51 H152       -0.7940   -1.4780   -0.9780 hc        1 VTQ      0.049700
     52 H161        1.7620   -2.2060    0.6040 hc        1 VTQ      0.047700
     53 H162        0.0680   -2.7150    0.9840 hc        1 VTQ      0.047700
     54 H171       -0.0530   -3.8780   -1.2700 hc        1 VTQ      0.039700
     55 H172        1.6870   -3.4750   -1.5470 hc        1 VTQ      0.039700
     56 H18         0.6730   -5.0210    0.9300 hc        1 VTQ      0.045700
     57 H191        3.0640   -5.7390    1.0650 hc        1 VTQ      0.034033
     58 H192        2.9090   -3.9380    1.1440 hc        1 VTQ      0.034033
     59 H193        3.4630   -4.7310   -0.3870 hc        1 VTQ      0.034033
     60 H201        1.9350   -6.2140   -1.6240 hc        1 VTQ      0.039200
     61 H202        0.1500   -6.0820   -1.3860 hc        1 VTQ      0.039200
     62 H211        2.1180   -7.5660    0.4850 hc        1 VTQ      0.040200
     63 H212        0.3430   -7.3890    0.7620 hc        1 VTQ      0.040200
     64 H221       -0.1060   -8.5000   -1.4530 hc        1 VTQ      0.039700
     65 H222        1.6680   -8.7190   -1.7050 hc        1 VTQ      0.039700
     66 H23         0.1980   -9.7820    0.7940 hc        1 VTQ      0.046700
     67 H1C1        2.8550  -10.5690   -0.5940 hc        1 VTQ      0.033367
     68 H1C2        2.6910   -9.5780    0.9140 hc        1 VTQ      0.033367
     69 H1C3        2.1630  -11.3090    0.9090 hc        1 VTQ      0.033367
     70 H241        0.8530  -11.3600   -1.7810 hc        1 VTQ      0.039700
     71 H242       -0.7590  -10.6100   -1.4630 hc        1 VTQ      0.039700
     72 H251        0.6530  -12.7050    0.3240 hc        1 VTQ      0.040200
     73 H252       -0.9180  -11.9010    0.7050 hc        1 VTQ      0.040200
     74 H261       -1.8890  -12.7740   -1.4400 hc        1 VTQ      0.039700
     75 H262       -0.3240  -13.5860   -1.8280 hc        1 VTQ      0.039700
     76 H27        -1.8550  -14.1120    0.8000 hc        1 VTQ      0.045700
     77 H281       -2.8100  -16.1320   -0.3410 hc        1 VTQ      0.033033
     78 H282       -3.3930  -14.5870   -1.0870 hc        1 VTQ      0.033033
     79 H283       -2.1180  -15.5700   -1.9190 hc        1 VTQ      0.033033
     80 H291       -0.5920  -16.2600    0.7280 hc        1 VTQ      0.033033
     81 H292        0.2070  -15.7620   -0.8200 hc        1 VTQ      0.033033
     82 H293        0.5320  -14.8390    0.7060 hc        1 VTQ      0.033033
@<TRIPOS>BOND
     1    1    2 1   
     2    1   33 1   
     3    2    3 1   
     4    2    4 1   
     5    2   17 1   
     6    3   34 1   
     7    3   35 1   
     8    3   36 1   
     9    4    5 1   
    10    4   37 1   
    11    4   38 1   
    12    5    6 1   
    13    5   39 1   
    14    5   40 1   
    15    6    7 2   
    16    6    9 1   
    17    7    8 1   
    18    7   15 1   
    19    8   41 1   
    20    8   42 1   
    21    8   43 1   
    22    9   10 2   
    23    9   11 1   
    24   11   12 1   
    25   11   13 2   
    26   12   44 1   
    27   12   45 1   
    28   12   46 1   
    29   13   14 1   
    30   13   15 1   
    31   14   47 1   
    32   14   48 1   
    33   14   49 1   
    34   15   16 2   
    35   17   18 1   
    36   17   50 1   
    37   17   51 1   
    38   18   19 1   
    39   18   52 1   
    40   18   53 1   
    41   19   20 1   
    42   19   54 1   
    43   19   55 1   
    44   20   21 1   
    45   20   22 1   
    46   20   56 1   
    47   21   57 1   
    48   21   58 1   
    49   21   59 1   
    50   22   23 1   
    51   22   60 1   
    52   22   61 1   
    53   23   24 1   
    54   23   62 1   
    55   23   63 1   
    56   24   25 1   
    57   24   64 1   
    58   24   65 1   
    59   25   26 1   
    60   25   27 1   
    61   25   66 1   
    62   26   67 1   
    63   26   68 1   
    64   26   69 1   
    65   27   28 1   
    66   27   70 1   
    67   27   71 1   
    68   28   29 1   
    69   28   72 1   
    70   28   73 1   
    71   29   30 1   
    72   29   74 1   
    73   29   75 1   
    74   30   31 1   
    75   30   32 1   
    76   30   76 1   
    77   31   77 1   
    78   31   78 1   
    79   31   79 1   
    80   32   80 1   
    81   32   81 1   
    82   32   82 1   
@<TRIPOS>SUBSTRUCTURE
     1 VTQ         1 TEMP              0 ****  ****    0 ROOT
