@<TRIPOS>MOLECULE
VU2
   34    35     1     0     0
SMALL
bcc


@<TRIPOS>ATOM
      1 C1          2.4920   -2.3410   -0.2140 c3        1 VU2      0.125800
      2 C2          4.8360    1.8370    1.3210 ca        1 VU2     -0.126000
      3 C3          5.1470    1.2100    0.1140 ca        1 VU2     -0.132000
      4 C7          3.6130    1.5840    1.9400 ca        1 VU2     -0.132000
      5 C9         -0.2970   -1.2630   -0.6900 c3        1 VU2      0.179700
      6 C10        -1.5680   -0.5150   -0.4480 ca        1 VU2     -0.087300
      7 C11        -2.7550   -1.0360   -0.9790 ca        1 VU2     -0.112000
      8 C12        -3.9640   -0.3750   -0.7860 ca        1 VU2     -0.125500
      9 C13        -3.9890    0.8170   -0.0550 ca        1 VU2      0.014400
     10 C14        -2.8110    1.3450    0.4810 ca        1 VU2     -0.125500
     11 C15        -1.6040    0.6760    0.2820 ca        1 VU2     -0.112000
     12 N2          2.0030   -3.2830   -1.1900 n3        1 VU2     -0.924800
     13 C4          4.2390    0.3320   -0.4720 ca        1 VU2     -0.114500
     14 C5          3.0110    0.0710    0.1500 ca        1 VU2     -0.090300
     15 C6          2.7020    0.7030    1.3590 ca        1 VU2     -0.114500
     16 O1          0.7590   -0.6350    0.0380 os        1 VU2     -0.423600
     17 CL         -5.4650    1.6290    0.1830 cl        1 VU2     -0.100400
     18 C8          2.0570   -0.8850   -0.5060 c3        1 VU2      0.195400
     19 H11C        2.0730   -2.6300    0.7920 h1        1 VU2      0.044700
     20 H12C        3.6190   -2.3490   -0.1310 h1        1 VU2      0.044700
     21 H21N        2.4020   -3.1080   -2.0910 hn        1 VU2      0.351300
     22 H22N        2.2180   -4.2190   -0.9110 hn        1 VU2      0.351300
     23 H8          2.0420   -0.6880   -1.6170 h1        1 VU2      0.049700
     24 H3          6.1100    1.4110   -0.3780 ha        1 VU2      0.132000
     25 H7          3.3640    2.0790    2.8900 ha        1 VU2      0.132000
     26 H4          4.4840   -0.1570   -1.4260 ha        1 VU2      0.139500
     27 H6          1.7320    0.5060    1.8420 ha        1 VU2      0.139500
     28 H91C       -0.3950   -2.3210   -0.3240 h1        1 VU2      0.053700
     29 H92C       -0.0680   -1.2770   -1.7910 h1        1 VU2      0.053700
     30 H11        -2.7310   -1.9760   -1.5520 ha        1 VU2      0.145500
     31 H15        -0.6710    1.0850    0.7030 ha        1 VU2      0.145500
     32 H12        -4.8930   -0.7890   -1.2070 ha        1 VU2      0.145500
     33 H14        -2.8330    2.2820    1.0570 ha        1 VU2      0.145500
     34 H2          5.5540    2.5310    1.7810 ha        1 VU2      0.132000
@<TRIPOS>BOND
     1    1   12 1   
     2    1   18 1   
     3    1   19 1   
     4    1   20 1   
     5    2    3 ar  
     6    2    4 ar  
     7    2   34 1   
     8    3   13 ar  
     9    3   24 1   
    10    4   15 ar  
    11    4   25 1   
    12    5    6 1   
    13    5   16 1   
    14    5   28 1   
    15    5   29 1   
    16    6    7 ar  
    17    6   11 ar  
    18    7    8 ar  
    19    7   30 1   
    20    8    9 ar  
    21    8   32 1   
    22    9   10 ar  
    23    9   17 1   
    24   10   11 ar  
    25   10   33 1   
    26   11   31 1   
    27   12   21 1   
    28   12   22 1   
    29   13   14 ar  
    30   13   26 1   
    31   14   15 ar  
    32   14   18 1   
    33   15   27 1   
    34   16   18 1   
    35   18   23 1   
@<TRIPOS>SUBSTRUCTURE
     1 VU2         1 TEMP              0 ****  ****    0 ROOT
