@<TRIPOS>MOLECULE
VU2
   35    36     1     0     0
SMALL
bcc


@<TRIPOS>ATOM
      1 C1         -0.3190   -0.7530    0.1740 c3        1 VU2      0.096800
      2 C2          3.7490   -2.4160   -2.1860 ca        1 VU2     -0.091000
      3 C3          3.0710   -1.3520   -2.7830 ca        1 VU2     -0.120000
      4 C7          3.5520   -2.6980   -0.8330 ca        1 VU2     -0.120000
      5 C9          2.6340    0.9030    1.6630 c3        1 VU2      0.188700
      6 C10         2.8530    1.0270    3.1320 ca        1 VU2     -0.124300
      7 C11         2.9800   -0.1200    3.9230 ca        1 VU2     -0.102500
      8 C12         3.2190   -0.0100    5.2900 ca        1 VU2     -0.124000
      9 C13         3.3350    1.2590    5.8710 ca        1 VU2      0.033400
     10 C14         3.2140    2.4110    5.0850 ca        1 VU2     -0.124000
     11 C15         2.9680    2.2920    3.7190 ca        1 VU2     -0.102500
     12 N2         -1.2740   -0.1080    1.1200 nz        1 VU2     -0.834600
     13 C4          2.1950   -0.5700   -2.0320 ca        1 VU2     -0.108000
     14 C5          1.9920   -0.8550   -0.6770 ca        1 VU2     -0.173300
     15 C6          2.6750   -1.9200   -0.0790 ca        1 VU2     -0.108000
     16 O1          1.4200    0.1490    1.4840 os        1 VU2     -0.472600
     17 Cl          3.6270    1.4000    7.5330 cl        1 VU2     -0.058400
     18 C8          1.0440   -0.0170    0.1190 c3        1 VU2      0.191400
     19 H11C       -0.7730   -0.7670   -0.8560 hx        1 VU2      0.119700
     20 H12C       -0.1460   -1.8110    0.5280 hx        1 VU2      0.119700
     21 H21N       -2.1100   -0.6860    1.2330 hn        1 VU2      0.464800
     22 H22N       -1.5440    0.8180    0.7770 hn        1 VU2      0.464800
     23 H8          0.9200    0.9990   -0.3570 h1        1 VU2      0.063700
     24 H7          4.0920   -3.5330   -0.3590 ha        1 VU2      0.154000
     25 H4          1.6740    0.2750   -2.5070 ha        1 VU2      0.138000
     26 H6          2.5290   -2.1270    0.9930 ha        1 VU2      0.138000
     27 H91C        3.4770    0.3410    1.1740 h1        1 VU2      0.059200
     28 H92C        2.5140    1.9060    1.1720 h1        1 VU2      0.059200
     29 H11         2.8950   -1.1130    3.4560 ha        1 VU2      0.138000
     30 H15         2.8790    3.2000    3.1030 ha        1 VU2      0.138000
     31 H12         3.3240   -0.9150    5.9080 ha        1 VU2      0.159500
     32 H14         3.3150    3.4080    5.5420 ha        1 VU2      0.159500
     33 H2          4.4420   -3.0310   -2.7820 ha        1 VU2      0.156000
     34 H23        -0.8060    0.0070    2.0320 hn        1 VU2      0.464800
     35 H3          3.2320   -1.1250   -3.8490 ha        1 VU2      0.154000
@<TRIPOS>BOND
     1    1   12 1   
     2    1   18 1   
     3    1   19 1   
     4    1   20 1   
     5    2    3 ar  
     6    2    4 ar  
     7    2   33 1   
     8    3   13 ar  
     9    3   35 1   
    10    4   15 ar  
    11    4   24 1   
    12    5    6 1   
    13    5   16 1   
    14    5   27 1   
    15    5   28 1   
    16    6    7 ar  
    17    6   11 ar  
    18    7    8 ar  
    19    7   29 1   
    20    8    9 ar  
    21    8   31 1   
    22    9   10 ar  
    23    9   17 1   
    24   10   11 ar  
    25   10   32 1   
    26   11   30 1   
    27   12   21 1   
    28   12   22 1   
    29   12   34 1   
    30   13   14 ar  
    31   13   25 1   
    32   14   15 ar  
    33   14   18 1   
    34   15   26 1   
    35   16   18 1   
    36   18   23 1   
@<TRIPOS>SUBSTRUCTURE
     1 VU2         1 TEMP              0 ****  ****    0 ROOT
