@<TRIPOS>MOLECULE
VU2
   35    36     1     0     0
SMALL
bcc


@<TRIPOS>ATOM
      1 C1         -0.3570   -0.6490    0.2070 c3        1 VU2      0.096800
      2 C2          3.5920   -2.5890   -2.1410 ca        1 VU2     -0.091000
      3 C3          2.9690   -1.5040   -2.7600 ca        1 VU2     -0.120000
      4 C7          3.3920   -2.8270   -0.7800 ca        1 VU2     -0.120000
      5 C9          2.6950    0.8790    1.6320 c3        1 VU2      0.188700
      6 C10         2.9320    1.0280    3.0960 ca        1 VU2     -0.124300
      7 C11         3.0030   -0.1040    3.9150 ca        1 VU2     -0.102500
      8 C12         3.2590    0.0260    5.2770 ca        1 VU2     -0.124000
      9 C13         3.4500    1.3010    5.8240 ca        1 VU2      0.033400
     10 C14         3.3850    2.4380    5.0110 ca        1 VU2     -0.124000
     11 C15         3.1220    2.2980    3.6500 ca        1 VU2     -0.102500
     12 N2         -1.2680    0.0710    1.1430 n4        1 VU2     -0.834600
     13 C4          2.1430   -0.6570   -2.0220 ca        1 VU2     -0.108000
     14 C5          1.9370   -0.8980   -0.6580 ca        1 VU2     -0.173300
     15 C6          2.5660   -1.9840   -0.0390 ca        1 VU2     -0.108000
     16 O1          1.4400    0.1890    1.4810 os        1 VU2     -0.472600
     17 CL          3.7640    1.4670    7.4810 cl        1 VU2     -0.058400
     18 C8          1.0430    0.0100    0.1240 c3        1 VU2      0.191400
     19 H11C       -0.8210   -0.6630   -0.8180 hx        1 VU2      0.119700
     20 H12C       -0.2390   -1.7050    0.5860 hx        1 VU2      0.119700
     21 H21N       -2.1330   -0.4580    1.2780 hn        1 VU2      0.464800
     22 H22N       -1.4900    1.0010    0.7800 hn        1 VU2      0.464800
     23 H8          0.9700    1.0190   -0.3760 h1        1 VU2      0.063700
     24 H7          3.8900   -3.6780   -0.2900 ha        1 VU2      0.154000
     25 H4          1.6650    0.2030   -2.5130 ha        1 VU2      0.138000
     26 H6          2.4180   -2.1560    1.0390 ha        1 VU2      0.138000
     27 H91C        2.6250    1.8750    1.1170 h1        1 VU2      0.059200
     28 H92C        3.5010    0.2600    1.1520 h1        1 VU2      0.059200
     29 H11         2.8600   -1.1030    3.4740 ha        1 VU2      0.138000
     30 H15         3.0780    3.1940    3.0120 ha        1 VU2      0.138000
     31 H12         3.3200   -0.8680    5.9170 ha        1 VU2      0.159500
     32 H14         3.5450    3.4390    5.4410 ha        1 VU2      0.159500
     33 H2          4.2460   -3.2550   -2.7270 ha        1 VU2      0.156000
     34 H23        -0.7860    0.1830    2.0490 hn        1 VU2      0.464800
     35 H3          3.1320   -1.3120   -3.8320 ha        1 VU2      0.154000
@<TRIPOS>BOND
     1    1   12 1   
     2    1   18 1   
     3    1   19 1   
     4    1   20 1   
     5    2    3 ar  
     6    2    4 ar  
     7    2   33 1   
     8    3   13 ar  
     9    3   35 1   
    10    4   15 ar  
    11    4   24 1   
    12    5    6 1   
    13    5   16 1   
    14    5   27 1   
    15    5   28 1   
    16    6    7 ar  
    17    6   11 ar  
    18    7    8 ar  
    19    7   29 1   
    20    8    9 ar  
    21    8   31 1   
    22    9   10 ar  
    23    9   17 1   
    24   10   11 ar  
    25   10   32 1   
    26   11   30 1   
    27   12   21 1   
    28   12   22 1   
    29   12   34 1   
    30   13   14 ar  
    31   13   25 1   
    32   14   15 ar  
    33   14   18 1   
    34   15   26 1   
    35   16   18 1   
    36   18   23 1   
@<TRIPOS>SUBSTRUCTURE
     1 VU2         1 TEMP              0 ****  ****    0 ROOT
