@<TRIPOS>MOLECULE
VU2
   35    36     1     0     0
SMALL
bcc


@<TRIPOS>ATOM
      1 C1         -0.3150   -0.7800    0.1740 c3        1 VU2      0.096800
      2 C2          3.7630   -2.3570   -2.2260 ca        1 VU2     -0.091000
      3 C3          3.0680   -1.2950   -2.8070 ca        1 VU2     -0.120000
      4 C7          3.5770   -2.6590   -0.8760 ca        1 VU2     -0.120000
      5 C9          2.6220    0.8990    1.6690 c3        1 VU2      0.188700
      6 C10         2.8470    1.0050    3.1380 ca        1 VU2     -0.124300
      7 C11         3.0010   -0.1510    3.9110 ca        1 VU2     -0.102500
      8 C12         3.2470   -0.0570    5.2780 ca        1 VU2     -0.124000
      9 C13         3.3430    1.2050    5.8770 ca        1 VU2      0.033400
     10 C14         3.1950    2.3660    5.1090 ca        1 VU2     -0.124000
     11 C15         2.9430    2.2630    3.7430 ca        1 VU2     -0.102500
     12 N2         -1.2740   -0.1600    1.1320 n4        1 VU2     -0.834600
     13 C4          2.1850   -0.5350   -2.0420 ca        1 VU2     -0.108000
     14 C5          1.9920   -0.8400   -0.6900 ca        1 VU2     -0.173300
     15 C6          2.6930   -1.9030   -0.1080 ca        1 VU2     -0.108000
     16 O1          1.4170    0.1300    1.4870 os        1 VU2     -0.472600
     17 CL          3.6430    1.3270    7.5400 cl        1 VU2     -0.058400
     18 C8          1.0370   -0.0250    0.1220 c3        1 VU2      0.191400
     19 H11C       -0.1260   -1.8400    0.5140 hx        1 VU2      0.119700
     20 H12C       -0.7750   -0.7880   -0.8540 hx        1 VU2      0.119700
     21 H21N       -1.5580    0.7660    0.8030 hn        1 VU2      0.464800
     22 H22N       -2.1020   -0.7510    1.2420 hn        1 VU2      0.464800
     23 H8          0.8960    0.9950   -0.3410 h1        1 VU2      0.063700
     24 H7          4.1300   -3.4920   -0.4150 ha        1 VU2      0.154000
     25 H4          1.6500    0.3090   -2.5040 ha        1 VU2      0.138000
     26 H6          2.5550   -2.1240    0.9620 ha        1 VU2      0.138000
     27 H91C        2.4840    1.9070    1.1930 h1        1 VU2      0.059200
     28 H92C        3.4690    0.3560    1.1670 h1        1 VU2      0.059200
     29 H11         2.9320   -1.1380    3.4300 ha        1 VU2      0.138000
     30 H15         2.8330    3.1780    3.1410 ha        1 VU2      0.138000
     31 H12         3.3730   -0.9690    5.8820 ha        1 VU2      0.159500
     32 H14         3.2810    3.3580    5.5810 ha        1 VU2      0.159500
     33 H2          4.4620   -2.9550   -2.8330 ha        1 VU2      0.156000
     34 H23        -0.8030   -0.0500    2.0430 hn        1 VU2      0.464800
     35 H3          3.2200   -1.0530   -3.8710 ha        1 VU2      0.154000
@<TRIPOS>BOND
     1    1   12 1   
     2    1   18 1   
     3    1   19 1   
     4    1   20 1   
     5    2    3 ar  
     6    2    4 ar  
     7    2   33 1   
     8    3   13 ar  
     9    3   35 1   
    10    4   15 ar  
    11    4   24 1   
    12    5    6 1   
    13    5   16 1   
    14    5   27 1   
    15    5   28 1   
    16    6    7 ar  
    17    6   11 ar  
    18    7    8 ar  
    19    7   29 1   
    20    8    9 ar  
    21    8   31 1   
    22    9   10 ar  
    23    9   17 1   
    24   10   11 ar  
    25   10   32 1   
    26   11   30 1   
    27   12   21 1   
    28   12   22 1   
    29   12   34 1   
    30   13   14 ar  
    31   13   25 1   
    32   14   15 ar  
    33   14   18 1   
    34   15   26 1   
    35   16   18 1   
    36   18   23 1   
@<TRIPOS>SUBSTRUCTURE
     1 VU2         1 TEMP              0 ****  ****    0 ROOT
