@<TRIPOS>MOLECULE
VU3
   47    50     1     0     0
SMALL
bcc


@<TRIPOS>ATOM
      1 CAW        -1.6100   -0.0900   -0.9260 c3        1 VU3     -0.028200
      2 CAO        -3.0530   -0.1260   -0.5940 cc        1 VU3     -0.062300
      3 NAQ        -3.7340    0.9710   -0.0390 na        1 VU3     -0.191400
      4 CAX        -5.0730    0.6200    0.1300 ca        1 VU3     -0.042200
      5 CAN        -6.1590    1.3510    0.6370 ca        1 VU3     -0.147000
      6 CAJ        -7.3920    0.7210    0.6880 ca        1 VU3     -0.113000
      7 CAF        -7.5620   -0.6050    0.2500 ca        1 VU3     -0.160000
      8 CAI        -6.5000   -1.3410   -0.2530 ca        1 VU3     -0.082000
      9 CAM        -5.2400   -0.7450   -0.3230 ca        1 VU3     -0.094800
     10 CAP        -0.7590   -0.1200    0.3480 c3        1 VU3      0.171800
     11 CAV         5.9390   -0.9910    0.6460 ca        1 VU3     -0.126000
     12 CAD         7.2940   -0.7270    0.4500 ca        1 VU3     -0.129000
     13 CAC         7.6920    0.4170   -0.2390 ca        1 VU3     -0.131000
     14 CAR         6.7300    1.2980   -0.7330 ca        1 VU3     -0.129000
     15 CAE         5.3750    1.0360   -0.5390 ca        1 VU3     -0.126000
     16 CAU         4.9670   -0.1110    0.1530 ca        1 VU3     -0.075300
     17 CAS         3.5180   -0.4050    0.3680 c3        1 VU3     -0.021400
     18 CAT         2.7830   -0.5740   -0.9550 c3        1 VU3     -0.072400
     19 CAK         2.8440    0.6920    1.1820 c3        1 VU3     -0.072400
     20 CAG         1.3590    0.3960    1.3680 c3        1 VU3      0.167800
     21 CAL         1.2970   -0.8360   -0.7240 c3        1 VU3      0.167800
     22 C17        -3.9420   -1.1870   -0.7750 cd        1 VU3     -0.183200
     23 N1          0.6510    0.1660    0.1130 n3        1 VU3     -0.732600
     24 HAW1       -1.3760   -0.9830   -1.5640 hc        1 VU3      0.064200
     25 HAW2       -1.3720    0.8290   -1.5280 hc        1 VU3      0.064200
     26 HAP1       -1.1460    0.6670    1.0560 h1        1 VU3      0.036200
     27 HAP2       -0.9060   -1.1230    0.8480 h1        1 VU3      0.036200
     28 HAQ        -3.3370    1.8500    0.1570 hn        1 VU3      0.298700
     29 H17        -3.7080   -2.1660   -1.1810 ha        1 VU3      0.155000
     30 HAN        -6.0340    2.3860    0.9800 ha        1 VU3      0.131000
     31 HAJ        -8.2620    1.2690    1.0790 ha        1 VU3      0.128000
     32 HAF        -8.5620   -1.0600    0.3110 ha        1 VU3      0.128000
     33 HAI        -6.6400   -2.3760   -0.5930 ha        1 VU3      0.133000
     34 HAD         8.0490   -1.4250    0.8420 ha        1 VU3      0.131000
     35 HAC         8.7610    0.6250   -0.3930 ha        1 VU3      0.131000
     36 HAR         7.0400    2.2020   -1.2770 ha        1 VU3      0.131000
     37 HAE         4.6210    1.7350   -0.9310 ha        1 VU3      0.132000
     38 HAS         3.4240   -1.3710    0.9440 hc        1 VU3      0.051700
     39 HAT1        2.9150    0.3470   -1.5800 hc        1 VU3      0.052200
     40 HAT2        3.2110   -1.4390   -1.5230 hc        1 VU3      0.052200
     41 HAK1        3.3200    0.7660    2.1930 hc        1 VU3      0.052200
     42 HAK2        2.9760    1.6790    0.6670 hc        1 VU3      0.052200
     43 HAL1        0.7770   -0.8250   -1.7230 h1        1 VU3      0.030950
     44 HAL2        1.1790   -1.8730   -0.2890 h1        1 VU3      0.030950
     45 HAG1        1.2550   -0.4870    2.0660 h1        1 VU3      0.030950
     46 HAG2        0.8780    1.2830    1.8690 h1        1 VU3      0.030950
     47 HAV         5.6330   -1.8970    1.1910 ha        1 VU3      0.132000
@<TRIPOS>BOND
     1    1    2 1   
     2    1   10 1   
     3    1   24 1   
     4    1   25 1   
     5    2    3 1   
     6    2   22 2   
     7    3    4 1   
     8    3   28 1   
     9    4    5 ar  
    10    4    9 ar  
    11    5    6 ar  
    12    5   30 1   
    13    6    7 ar  
    14    6   31 1   
    15    7    8 ar  
    16    7   32 1   
    17    8    9 ar  
    18    8   33 1   
    19    9   22 1   
    20   10   23 1   
    21   10   26 1   
    22   10   27 1   
    23   11   12 ar  
    24   11   16 ar  
    25   11   47 1   
    26   12   13 ar  
    27   12   34 1   
    28   13   14 ar  
    29   13   35 1   
    30   14   15 ar  
    31   14   36 1   
    32   15   16 ar  
    33   15   37 1   
    34   16   17 1   
    35   17   18 1   
    36   17   19 1   
    37   17   38 1   
    38   18   21 1   
    39   18   39 1   
    40   18   40 1   
    41   19   20 1   
    42   19   41 1   
    43   19   42 1   
    44   20   23 1   
    45   20   45 1   
    46   20   46 1   
    47   21   23 1   
    48   21   43 1   
    49   21   44 1   
    50   22   29 1   
@<TRIPOS>SUBSTRUCTURE
     1 VU3         1 TEMP              0 ****  ****    0 ROOT
