@<TRIPOS>MOLECULE
VU3
   47    41     1     0     0
SMALL
bcc


@<TRIPOS>ATOM
      1 CAW         1.2120    1.2780    1.1140 c3        1 VU3     -0.111000
      2 CAO         2.2140    2.4090    0.8630 c2        1 VU3     -0.032000
      3 NAQ         1.6790    3.6750    0.8680 n2        1 VU3     -0.216000
      4 CAX         2.7210    4.5800    0.8020 c1        1 VU3      0.003000
      5 CAN         2.7430    5.9900    0.7120 c1        1 VU3     -0.127125
      6 CAJ         3.9550    6.6590    0.5760 c1        1 VU3     -0.127125
      7 CAF         5.1450    5.9400    0.5290 c1        1 VU3     -0.127125
      8 CAI         5.1240    4.5500    0.6180 c1        1 VU3     -0.127125
      9 CAM         3.8960    3.8710    0.7560 c1        1 VU3     -0.084000
     10 CAP         1.0360    0.4420   -0.1830 c3        1 VU3     -0.064000
     11 CAV        -3.6810   -4.2300   -1.7570 c1        1 VU3     -0.127000
     12 CAD        -4.6800   -5.1750   -1.4880 c1        1 VU3     -0.127125
     13 CAC        -5.0010   -5.4910   -0.1760 c1        1 VU3     -0.127125
     14 CAR        -4.3320   -4.8710    0.8730 c1        1 VU3     -0.127125
     15 CAE        -3.3370   -3.9300    0.6060 c1        1 VU3     -0.127125
     16 CAU        -3.0140   -3.6110   -0.7120 c1        1 VU3     -0.068000
     17 CAS        -1.9020   -2.4920   -1.0180 c3        1 VU3     -0.068000
     18 CAT        -2.3400   -1.2070   -0.4090 c3        1 VU3     -0.151000
     19 CAK        -0.6150   -2.9470   -0.4890 c3        1 VU3     -0.151000
     20 CAG         0.4600   -1.8620   -0.5630 c3        1 VU3     -0.067500
     21 CAL        -1.2580   -0.1300   -0.4830 c3        1 VU3     -0.067500
     22 C17         3.5850    2.5260    0.7940 c1        1 VU3     -0.192000
     23 N1          0.0180   -0.5870    0.0380 n3        1 VU3     -0.258000
     24 HAW1        1.5470    0.6970    1.8360 hc        1 VU3      0.105000
     25 HAW2        0.3710    1.6490    1.3690 hc        1 VU3      0.105000
     26 HAP1        1.8870    0.0150   -0.4150 h1        1 VU3      0.072500
     27 HAP2        0.7540    1.0330   -0.9180 h1        1 VU3      0.072500
     28 HAQ         0.7940    3.8790    0.8350 DU        1 VU3      0.201500
     29 H17         4.2180    1.7980    0.8180 DU        1 VU3      0.201500
     30 HAN         1.8990    6.5010    0.7450 ha        1 VU3      0.130625
     31 HAJ         3.9710    7.6300    0.5140 ha        1 VU3      0.130625
     32 HAF         6.0040    6.4150    0.4330 ha        1 VU3      0.130625
     33 HAI         5.9410    4.0570    0.5870 ha        1 VU3      0.130625
     34 HAV        -3.4570   -4.0090   -2.6730 ha        1 VU3      0.130000
     35 HAD        -5.1480   -5.6100   -2.2210 ha        1 VU3      0.130625
     36 HAC        -5.7050   -6.1590    0.0130 ha        1 VU3      0.130625
     37 HAR        -4.5540   -5.0900    1.7820 ha        1 VU3      0.130625
     38 HAE        -2.8630   -3.4890    1.3510 ha        1 VU3      0.130625
     39 HAS        -1.8260   -2.3770   -1.9770 hc        1 VU3      0.090000
     40 HAT1       -2.5640   -1.3580    0.5060 hc        1 VU3      0.091750
     41 HAT2       -3.1350   -0.8880   -0.8810 hc        1 VU3      0.091750
     42 HAK1       -0.3100   -3.7410   -1.0180 hc        1 VU3      0.091750
     43 HAK2       -0.7310   -3.2120    0.4400 hc        1 VU3      0.091750
     44 HAL1       -1.5400    0.6210    0.0160 h1        1 VU3      0.069500
     45 HAL2       -1.1400    0.1380   -1.4230 h1        1 VU3      0.069500
     46 HAG1        1.2710   -2.1810   -0.0820 h1        1 VU3      0.069500
     47 HAG2        0.6920   -1.7050   -1.5100 h1        1 VU3      0.069500
@<TRIPOS>BOND
     1    1    2 1   
     2    1   10 1   
     3    1   24 1   
     4    1   25 1   
     5    2    3 1   
     6    2   22 1   
     7    3    4 1   
     8    4    9 1   
     9    5    6 1   
    10    5   30 1   
    11    6   31 1   
    12    7    8 1   
    13    7   32 1   
    14    8   33 1   
    15   10   23 1   
    16   10   26 1   
    17   10   27 1   
    18   11   16 1   
    19   11   34 1   
    20   12   13 1   
    21   12   35 1   
    22   13   36 1   
    23   14   15 1   
    24   14   37 1   
    25   15   38 1   
    26   16   17 1   
    27   17   18 1   
    28   17   19 1   
    29   17   39 1   
    30   18   21 1   
    31   18   40 1   
    32   18   41 1   
    33   19   20 1   
    34   19   42 1   
    35   19   43 1   
    36   20   23 1   
    37   20   46 1   
    38   20   47 1   
    39   21   23 1   
    40   21   44 1   
    41   21   45 1   
@<TRIPOS>SUBSTRUCTURE
     1 VU3         1 TEMP              0 ****  ****    0 ROOT
