@<TRIPOS>MOLECULE
VU3
   47    50     1     0     0
SMALL
bcc


@<TRIPOS>ATOM
      1 CAW         0.1490   -0.2510   -0.4340 c3        1 VU3     -0.028200
      2 CAO         1.6150   -0.0960   -0.2910 cc        1 VU3     -0.062300
      3 NAQ         2.2280    0.2640    0.9220 na        1 VU3     -0.191400
      4 CAX         3.6080    0.3000    0.7250 ca        1 VU3     -0.042200
      5 CAN         4.6560    0.5990    1.6120 ca        1 VU3     -0.147000
      6 CAJ         5.9490    0.5580    1.1160 ca        1 VU3     -0.113000
      7 CAF         6.2160    0.2310   -0.2260 ca        1 VU3     -0.160000
      8 CAI         5.1930   -0.0660   -1.1130 ca        1 VU3     -0.082000
      9 CAM         3.8740   -0.0380   -0.6570 ca        1 VU3     -0.094800
     10 CAP        -0.5450    1.1150   -0.4110 c3        1 VU3      0.171800
     11 CAV        -7.0300    2.3100   -1.9030 ca        1 VU3     -0.126000
     12 CAD        -8.4190    2.2580   -1.7980 ca        1 VU3     -0.129000
     13 CAC        -9.0170    1.5160   -0.7790 ca        1 VU3     -0.131000
     14 CAR        -8.2200    0.8270    0.1340 ca        1 VU3     -0.129000
     15 CAE        -6.8310    0.8780    0.0300 ca        1 VU3     -0.126000
     16 CAU        -6.2230    1.6210   -0.9900 ca        1 VU3     -0.075300
     17 CAS        -4.7350    1.6850   -1.1140 c3        1 VU3     -0.021400
     18 CAT        -4.1380    0.3040   -1.3510 c3        1 VU3     -0.072400
     19 CAK        -4.1010    2.3010    0.1260 c3        1 VU3     -0.072400
     20 CAG        -2.5800    2.3320   -0.0000 c3        1 VU3      0.167800
     21 CAL        -2.6150    0.3750   -1.4380 c3        1 VU3      0.167800
     22 C17         2.5910   -0.2830   -1.2710 cd        1 VU3     -0.183200
     23 N1         -1.9960    1.0280   -0.2920 n3        1 VU3     -0.732600
     24 HAW1       -0.0540   -0.7680   -1.4090 hc        1 VU3      0.064200
     25 HAW2       -0.2550   -0.9040    0.3860 hc        1 VU3      0.064200
     26 HAP1       -0.1720    1.6920    0.4830 h1        1 VU3      0.036200
     27 HAP2       -0.2340    1.6860   -1.3350 h1        1 VU3      0.036200
     28 HAQ         1.7600    0.4220    1.7730 hn        1 VU3      0.298700
     29 H17         2.4240   -0.5620   -2.3070 ha        1 VU3      0.155000
     30 HAN         4.4550    0.8550    2.6600 ha        1 VU3      0.131000
     31 HAJ         6.7910    0.7860    1.7870 ha        1 VU3      0.128000
     32 HAF         7.2600    0.2130   -0.5710 ha        1 VU3      0.128000
     33 HAI         5.4080   -0.3200   -2.1600 ha        1 VU3      0.133000
     34 HAD        -9.0440    2.8030   -2.5200 ha        1 VU3      0.131000
     35 HAC       -10.1120    1.4750   -0.6970 ha        1 VU3      0.131000
     36 HAR        -8.6870    0.2400    0.9390 ha        1 VU3      0.131000
     37 HAE        -6.2070    0.3310    0.7540 ha        1 VU3      0.132000
     38 HAS        -4.4710    2.3340   -1.9990 hc        1 VU3      0.051700
     39 HAT1       -4.5280   -0.1220   -2.3110 hc        1 VU3      0.052200
     40 HAT2       -4.4410   -0.3860   -0.5210 hc        1 VU3      0.052200
     41 HAK1       -4.3980    1.7140    1.0340 hc        1 VU3      0.052200
     42 HAK2       -4.4670    3.3510    0.2610 hc        1 VU3      0.052200
     43 HAL1       -2.2150   -0.6770   -1.4840 h1        1 VU3      0.030950
     44 HAL2       -2.3360    0.8890   -2.4060 h1        1 VU3      0.030950
     45 HAG1       -2.3020    3.0930   -0.7880 h1        1 VU3      0.030950
     46 HAG2       -2.1480    2.6830    0.9790 h1        1 VU3      0.030950
     47 HAV        -6.5670    2.8980   -2.7100 ha        1 VU3      0.132000
@<TRIPOS>BOND
     1    1    2 1   
     2    1   10 1   
     3    1   24 1   
     4    1   25 1   
     5    2    3 1   
     6    2   22 2   
     7    3    4 1   
     8    3   28 1   
     9    4    5 ar  
    10    4    9 ar  
    11    5    6 ar  
    12    5   30 1   
    13    6    7 ar  
    14    6   31 1   
    15    7    8 ar  
    16    7   32 1   
    17    8    9 ar  
    18    8   33 1   
    19    9   22 1   
    20   10   23 1   
    21   10   26 1   
    22   10   27 1   
    23   11   12 ar  
    24   11   16 ar  
    25   11   47 1   
    26   12   13 ar  
    27   12   34 1   
    28   13   14 ar  
    29   13   35 1   
    30   14   15 ar  
    31   14   36 1   
    32   15   16 ar  
    33   15   37 1   
    34   16   17 1   
    35   17   18 1   
    36   17   19 1   
    37   17   38 1   
    38   18   21 1   
    39   18   39 1   
    40   18   40 1   
    41   19   20 1   
    42   19   41 1   
    43   19   42 1   
    44   20   23 1   
    45   20   45 1   
    46   20   46 1   
    47   21   23 1   
    48   21   43 1   
    49   21   44 1   
    50   22   29 1   
@<TRIPOS>SUBSTRUCTURE
     1 VU3         1 TEMP              0 ****  ****    0 ROOT
