@<TRIPOS>MOLECULE
VU3
   47    50     1     0     0
SMALL
bcc


@<TRIPOS>ATOM
      1 CAW         0.1490   -0.2520   -0.4400 c3        1 VU3     -0.028200
      2 CAO         1.6150   -0.0970   -0.2970 cc        1 VU3     -0.062300
      3 NAQ         2.2280    0.2560    0.9180 na        1 VU3     -0.191400
      4 CAX         3.6090    0.2940    0.7210 ca        1 VU3     -0.042200
      5 CAN         4.6570    0.5880    1.6080 ca        1 VU3     -0.147000
      6 CAJ         5.9500    0.5500    1.1120 ca        1 VU3     -0.113000
      7 CAF         6.2160    0.2310   -0.2330 ca        1 VU3     -0.160000
      8 CAI         5.1920   -0.0620   -1.1210 ca        1 VU3     -0.082000
      9 CAM         3.8740   -0.0360   -0.6630 ca        1 VU3     -0.094800
     10 CAP        -0.5450    1.1140   -0.4080 c3        1 VU3      0.171800
     11 CAV        -7.0300    2.3200   -1.8940 ca        1 VU3     -0.126000
     12 CAD        -8.4190    2.2670   -1.7890 ca        1 VU3     -0.129000
     13 CAC        -9.0170    1.5180   -0.7760 ca        1 VU3     -0.131000
     14 CAR        -8.2200    0.8220    0.1320 ca        1 VU3     -0.129000
     15 CAE        -6.8310    0.8740    0.0290 ca        1 VU3     -0.126000
     16 CAU        -6.2230    1.6240   -0.9860 ca        1 VU3     -0.075300
     17 CAS        -4.7350    1.6880   -1.1080 c3        1 VU3     -0.021400
     18 CAT        -4.1380    0.3090   -1.3550 c3        1 VU3     -0.072400
     19 CAK        -4.1010    2.2960    0.1360 c3        1 VU3     -0.072400
     20 CAG        -2.5810    2.3280    0.0110 c3        1 VU3      0.167800
     21 CAL        -2.6150    0.3820   -1.4420 c3        1 VU3      0.167800
     22 C17         2.5910   -0.2780   -1.2790 cd        1 VU3     -0.183200
     23 N1         -1.9960    1.0260   -0.2910 n3        1 VU3     -0.732600
     24 HAW1       -0.2540   -0.9100    0.3760 hc        1 VU3      0.064200
     25 HAW2       -0.0540   -0.7620   -1.4190 hc        1 VU3      0.064200
     26 HAP1       -0.2340    1.6910   -1.3280 h1        1 VU3      0.036200
     27 HAP2       -0.1720    1.6850    0.4890 h1        1 VU3      0.036200
     28 HAQ         1.7610    0.4100    1.7700 hn        1 VU3      0.298700
     29 H17         2.4230   -0.5520   -2.3160 ha        1 VU3      0.155000
     30 HAN         4.4570    0.8380    2.6580 ha        1 VU3      0.131000
     31 HAJ         6.7920    0.7750    1.7830 ha        1 VU3      0.128000
     32 HAF         7.2600    0.2140   -0.5780 ha        1 VU3      0.128000
     33 HAI         5.4070   -0.3100   -2.1700 ha        1 VU3      0.133000
     34 HAD        -9.0430    2.8180   -2.5080 ha        1 VU3      0.131000
     35 HAC       -10.1120    1.4770   -0.6940 ha        1 VU3      0.131000
     36 HAR        -8.6880    0.2300    0.9320 ha        1 VU3      0.131000
     37 HAE        -6.2080    0.3220    0.7490 ha        1 VU3      0.132000
     38 HAS        -4.4710    2.3440   -1.9880 hc        1 VU3      0.051700
     39 HAT1       -4.4410   -0.3860   -0.5300 hc        1 VU3      0.052200
     40 HAT2       -4.5280   -0.1100   -2.3180 hc        1 VU3      0.052200
     41 HAK1       -4.3990    1.7030    1.0390 hc        1 VU3      0.052200
     42 HAK2       -4.4670    3.3450    0.2790 hc        1 VU3      0.052200
     43 HAL1       -2.3350    0.9030   -2.4050 h1        1 VU3      0.030950
     44 HAL2       -2.2150   -0.6700   -1.4940 h1        1 VU3      0.030950
     45 HAG1       -2.3020    3.0950   -0.7720 h1        1 VU3      0.030950
     46 HAG2       -2.1490    2.6720    0.9930 h1        1 VU3      0.030950
     47 HAV        -6.5660    2.9140   -2.6960 ha        1 VU3      0.132000
@<TRIPOS>BOND
     1    1    2 1   
     2    1   10 1   
     3    1   24 1   
     4    1   25 1   
     5    2    3 1   
     6    2   22 2   
     7    3    4 1   
     8    3   28 1   
     9    4    5 ar  
    10    4    9 ar  
    11    5    6 ar  
    12    5   30 1   
    13    6    7 ar  
    14    6   31 1   
    15    7    8 ar  
    16    7   32 1   
    17    8    9 ar  
    18    8   33 1   
    19    9   22 1   
    20   10   23 1   
    21   10   26 1   
    22   10   27 1   
    23   11   12 ar  
    24   11   16 ar  
    25   11   47 1   
    26   12   13 ar  
    27   12   34 1   
    28   13   14 ar  
    29   13   35 1   
    30   14   15 ar  
    31   14   36 1   
    32   15   16 ar  
    33   15   37 1   
    34   16   17 1   
    35   17   18 1   
    36   17   19 1   
    37   17   38 1   
    38   18   21 1   
    39   18   39 1   
    40   18   40 1   
    41   19   20 1   
    42   19   41 1   
    43   19   42 1   
    44   20   23 1   
    45   20   45 1   
    46   20   46 1   
    47   21   23 1   
    48   21   43 1   
    49   21   44 1   
    50   22   29 1   
@<TRIPOS>SUBSTRUCTURE
     1 VU3         1 TEMP              0 ****  ****    0 ROOT
