@<TRIPOS>MOLECULE
VUP
   30    32     1     0     0
SMALL
bcc


@<TRIPOS>ATOM
      1 C           0.0060    0.0480    0.0210 ca        1 VUP      0.426600
      2 C1          1.4060   -0.0300    0.0110 ca        1 VUP     -0.246300
      3 C2          2.0570    0.0850    1.2480 ca        1 VUP     -0.041200
      4 N2          3.3960    0.0440    1.6440 na        1 VUP     -0.131300
      5 C6          4.5180   -0.0930    0.7570 c3        1 VUP      0.043300
      6 C7          5.0820    1.2140    0.2190 c3        1 VUP     -0.118100
      7 C5          3.3880    0.2250    3.0540 cc        1 VUP      0.369800
      8 N1          2.1350    0.3530    3.5620 nd        1 VUP     -0.556100
      9 C3          1.2780    0.2710    2.4610 ca        1 VUP     -0.060900
     10 C4         -0.1320    0.3320    2.3350 ca        1 VUP      0.472200
     11 N          -0.7420    0.2250    1.1580 nb        1 VUP     -0.681000
     12 C8          4.5850    0.2600    3.8720 cc        1 VUP      0.184700
     13 C9          4.6580   -0.0660    5.3400 cc        1 VUP      0.498900
     14 N5          3.6460   -0.5780    6.1080 nv        1 VUP     -0.912500
     15 N4          5.9630    0.1460    5.6880 nd        1 VUP     -0.434300
     16 O           6.6030    0.5350    4.5770 os        1 VUP      0.128600
     17 C10        -0.7240   -0.0670   -1.2800 c3        1 VUP     -0.148400
     18 N3          5.8280    0.6170    3.5090 nd        1 VUP     -0.319300
     19 H51N        3.7850   -0.5720    7.0940 hn        1 VUP      0.439300
     20 H52N        2.7190   -0.3930    5.7980 hn        1 VUP      0.439300
     21 HA         -0.7760    0.4730    3.2210 h4        1 VUP      0.036100
     22 H61C        4.1730   -0.7250   -0.1140 h1        1 VUP      0.067700
     23 H62C        5.3300   -0.6610    1.2930 h1        1 VUP      0.067700
     24 H71C        4.3130    1.7740   -0.3660 hc        1 VUP      0.053700
     25 H72C        5.9410    0.9730   -0.4540 hc        1 VUP      0.053700
     26 H73C        5.4500    1.8710    1.0430 hc        1 VUP      0.053700
     27 H1          1.9650   -0.1700   -0.9230 ha        1 VUP      0.148000
     28 H101       -0.0030   -0.2120   -2.1200 hc        1 VUP      0.054700
     29 H102       -1.4270   -0.9370   -1.2550 hc        1 VUP      0.054700
     30 H103       -1.3210    0.8590   -1.4730 hc        1 VUP      0.054700
@<TRIPOS>BOND
     1    1    2 ar  
     2    1   11 ar  
     3    1   17 1   
     4    2    3 ar  
     5    2   27 1   
     6    3    4 1   
     7    3    9 ar  
     8    4    5 1   
     9    4    7 1   
    10    5    6 1   
    11    5   22 1   
    12    5   23 1   
    13    6   24 1   
    14    6   25 1   
    15    6   26 1   
    16    7    8 2   
    17    7   12 1   
    18    8    9 1   
    19    9   10 ar  
    20   10   11 ar  
    21   10   21 1   
    22   12   13 1   
    23   12   18 2   
    24   13   14 1   
    25   13   15 2   
    26   14   19 1   
    27   14   20 1   
    28   15   16 1   
    29   16   18 1   
    30   17   28 1   
    31   17   29 1   
    32   17   30 1   
@<TRIPOS>SUBSTRUCTURE
     1 VUP         1 TEMP              0 ****  ****    0 ROOT
