@<TRIPOS>MOLECULE
VUP
   30    32     1     0     0
SMALL
bcc


@<TRIPOS>ATOM
      1 C          -3.8510   -0.1230   -0.0650 ca        1 VUP      0.426600
      2 C1         -2.7960    0.7890   -0.2060 ca        1 VUP     -0.246300
      3 C2         -1.4960    0.2850   -0.0460 ca        1 VUP     -0.041200
      4 N2         -0.2230    0.8540   -0.1230 na        1 VUP     -0.131300
      5 C6          0.0500    2.2440   -0.3650 c3        1 VUP      0.043300
      6 C7          0.1210    3.1160    0.8790 c3        1 VUP     -0.118100
      7 C5          0.6890   -0.2030    0.1430 cc        1 VUP      0.369800
      8 N1          0.0700   -1.3920    0.3590 nd        1 VUP     -0.556100
      9 C3         -1.2970   -1.1240    0.2490 ca        1 VUP     -0.060900
     10 C4         -2.4490   -1.9410    0.3670 ca        1 VUP      0.472200
     11 N          -3.6770   -1.4560    0.2160 nb        1 VUP     -0.681000
     12 C8          2.1300   -0.0400    0.1730 cc        1 VUP      0.184700
     13 C9          3.1450   -1.1270   -0.0650 cc        1 VUP      0.498900
     14 N5          2.8810   -2.4050   -0.4820 nh        1 VUP     -0.912500
     15 N4          4.3590   -0.5250    0.1080 nd        1 VUP     -0.434300
     16 O           4.1190    0.7600    0.3990 os        1 VUP      0.128600
     17 C10        -5.2520    0.3760   -0.2250 c3        1 VUP     -0.148400
     18 N3          2.8350    1.0700    0.4510 nd        1 VUP     -0.319300
     19 H51N        3.6290   -3.0580   -0.4220 hn        1 VUP      0.439300
     20 H52N        1.9740   -2.7600   -0.2740 hn        1 VUP      0.439300
     21 HA         -2.3600   -3.0190    0.5910 h4        1 VUP      0.036100
     22 H61C        1.0190    2.3240   -0.9360 h1        1 VUP      0.067700
     23 H62C       -0.7750    2.6300   -1.0340 h1        1 VUP      0.067700
     24 H71C        0.3350    4.1650    0.5590 hc        1 VUP      0.053700
     25 H72C       -0.8460    3.1010    1.4370 hc        1 VUP      0.053700
     26 H73C        0.9330    2.7830    1.5670 hc        1 VUP      0.053700
     27 H1         -2.9800    1.8470   -0.4290 ha        1 VUP      0.148000
     28 H101       -5.7640   -0.1660   -1.0590 hc        1 VUP      0.054700
     29 H102       -5.8350    0.2040    0.7140 hc        1 VUP      0.054700
     30 H103       -5.2530    1.4690   -0.4530 hc        1 VUP      0.054700
@<TRIPOS>BOND
     1    1    2 ar  
     2    1   11 ar  
     3    1   17 1   
     4    2    3 ar  
     5    2   27 1   
     6    3    4 1   
     7    3    9 ar  
     8    4    5 1   
     9    4    7 1   
    10    5    6 1   
    11    5   22 1   
    12    5   23 1   
    13    6   24 1   
    14    6   25 1   
    15    6   26 1   
    16    7    8 2   
    17    7   12 1   
    18    8    9 1   
    19    9   10 ar  
    20   10   11 ar  
    21   10   21 1   
    22   12   13 1   
    23   12   18 2   
    24   13   14 1   
    25   13   15 2   
    26   14   19 1   
    27   14   20 1   
    28   15   16 1   
    29   16   18 1   
    30   17   28 1   
    31   17   29 1   
    32   17   30 1   
@<TRIPOS>SUBSTRUCTURE
     1 VUP         1 TEMP              0 ****  ****    0 ROOT
