@<TRIPOS>MOLECULE
VUP
   31    33     1     0     0
SMALL
bcc


@<TRIPOS>ATOM
      1 C           0.0060   -0.0800    0.0580 ca        1 VUP      0.465600
      2 C1          1.4030   -0.0320   -0.0040 ca        1 VUP     -0.250300
      3 C2          2.0950   -0.0100    1.2210 ca        1 VUP     -0.019200
      4 N2          3.4470    0.0210    1.5610 na        1 VUP     -0.085300
      5 C6          4.5450    0.1060    0.6290 c3        1 VUP      0.028300
      6 C7          5.0830    1.5070    0.3930 c3        1 VUP     -0.120100
      7 C5          3.4850    0.0290    2.9740 cc        1 VUP      0.280800
      8 N1          2.2380   -0.0170    3.5390 nd        1 VUP     -0.602100
      9 C3          1.3530   -0.0400    2.4750 ca        1 VUP     -0.063900
     10 C4         -0.0710   -0.0900    2.3970 ca        1 VUP      0.484200
     11 N          -0.7080   -0.1080    1.2390 nb        1 VUP     -0.654000
     12 C8          4.6750    0.0590    3.7880 cc        1 VUP      0.302700
     13 C9          4.6680    0.0230    5.2820 cc        1 VUP      0.242900
     14 N5          3.4960   -0.0440    6.1170 n4        1 VUP     -0.773300
     15 N4          5.9720    0.0680    5.6760 nd        1 VUP     -0.234300
     16 O           6.6900    0.1240    4.5820 os        1 VUP      0.199600
     17 C10        -0.7710   -0.1020   -1.2190 c3        1 VUP     -0.161400
     18 N3          5.9760    0.1230    3.4460 nd        1 VUP     -0.288300
     19 H51N        2.9020    0.7790    5.9200 hn        1 VUP      0.492133
     20 H52N        2.9660   -0.8990    5.8740 hn        1 VUP      0.492133
     21 HA         -0.6900   -0.1150    3.3120 h4        1 VUP      0.043100
     22 H61C        4.1690   -0.3120   -0.3530 h1        1 VUP      0.082700
     23 H62C        5.3740   -0.5670    0.9910 h1        1 VUP      0.082700
     24 H71C        5.9140    1.4380   -0.3520 hc        1 VUP      0.062033
     25 H72C        4.2940    2.1830   -0.0170 hc        1 VUP      0.062033
     26 H73C        5.4870    1.9580    1.3300 hc        1 VUP      0.062033
     27 H1          1.9330   -0.0100   -0.9650 ha        1 VUP      0.165000
     28 H101       -1.3970   -1.0290   -1.2760 hc        1 VUP      0.070700
     29 H102       -1.4560    0.7830   -1.2710 hc        1 VUP      0.070700
     30 H103       -0.0820   -0.0770   -2.0970 hc        1 VUP      0.070700
     31 H53         3.7480   -0.0620    7.1150 hn        1 VUP      0.492133
@<TRIPOS>BOND
     1    1    2 ar  
     2    1   11 ar  
     3    1   17 1   
     4    2    3 ar  
     5    2   27 1   
     6    3    4 1   
     7    3    9 ar  
     8    4    5 1   
     9    4    7 1   
    10    5    6 1   
    11    5   22 1   
    12    5   23 1   
    13    6   24 1   
    14    6   25 1   
    15    6   26 1   
    16    7    8 2   
    17    7   12 1   
    18    8    9 1   
    19    9   10 ar  
    20   10   11 ar  
    21   10   21 1   
    22   12   13 1   
    23   12   18 2   
    24   13   14 1   
    25   13   15 2   
    26   14   19 1   
    27   14   20 1   
    28   14   31 1   
    29   15   16 1   
    30   16   18 1   
    31   17   28 1   
    32   17   29 1   
    33   17   30 1   
@<TRIPOS>SUBSTRUCTURE
     1 VUP         1 TEMP              0 ****  ****    0 ROOT
