@<TRIPOS>MOLECULE
VUR
   29    28     1     0     0
SMALL
bcc


@<TRIPOS>ATOM
      1 C           3.2250   -0.8930    0.6030 c         1 VUR      0.894600
      2 N           1.0470   -0.0300   -0.2390 nz        1 VUR     -0.824600
      3 C1          5.5000   -0.4740    4.0880 c2        1 VUR      0.514200
      4 C2          6.2080   -1.8020    3.9170 c3        1 VUR     -0.131600
      5 S3          6.8780   -2.3690    5.4360 sh        1 VUR     -0.274900
      6 CA          2.4790    0.3400   -0.0190 c3        1 VUR     -0.040500
      7 CB          2.6340    1.4960    0.9760 c3        1 VUR     -0.094400
      8 CD          4.5580    1.3910    2.6690 c3        1 VUR      0.121800
      9 NE          4.7460   -0.0770    2.8600 ny        1 VUR     -0.761000
     10 CG          4.0990    1.7770    1.2650 c3        1 VUR     -0.108400
     11 NH          5.4740    0.3010    5.1070 n2        1 VUR     -0.718100
     12 OA1         4.4100   -1.0850    0.2470 o         1 VUR     -0.781300
     13 OA2         2.6040   -1.4970    1.5210 o         1 VUR     -0.781300
     14 HN          0.9670   -0.5700   -1.1040 hn        1 VUR      0.460133
     15 HNA         0.7590   -0.6320    0.5530 hn        1 VUR      0.460133
     16 H2          5.5290   -2.5600    3.4470 h1        1 VUR      0.125200
     17 H2A         7.0840   -1.6600    3.2250 h1        1 VUR      0.125200
     18 HS3         5.9100   -3.1850    5.8270 hs        1 VUR      0.219800
     19 HA          2.9350    0.6090   -1.0130 hx        1 VUR      0.120700
     20 HB          2.0940    1.2460    1.9290 hc        1 VUR      0.065200
     21 HBA         2.1620    2.4230    0.5510 hc        1 VUR      0.065200
     22 HD          5.5490    1.8930    2.8690 hx        1 VUR      0.108700
     23 HDA         3.8180    1.7520    3.4400 hx        1 VUR      0.108700
     24 HNE         3.8200   -0.5500    2.8970 hn        1 VUR      0.492800
     25 HG          4.7520    1.2840    0.4900 hc        1 VUR      0.099700
     26 HGA         4.2750    2.8860    1.1830 hc        1 VUR      0.099700
     27 HNH         5.9820   -0.0110    5.9170 hn        1 VUR      0.481400
     28 HN3         0.4500    0.7940   -0.2860 hn        1 VUR      0.460133
     29 HE3         5.2440   -0.4720    2.0350 hn        1 VUR      0.492800
@<TRIPOS>BOND
     1    1    6 1   
     2    1   12 1   
     3    1   13 1   
     4    2    6 1   
     5    2   14 1   
     6    2   15 1   
     7    2   28 1   
     8    3    4 1   
     9    3    9 1   
    10    3   11 2   
    11    4    5 1   
    12    4   16 1   
    13    4   17 1   
    14    5   18 1   
    15    6    7 1   
    16    6   19 1   
    17    7   10 1   
    18    7   20 1   
    19    7   21 1   
    20    8    9 1   
    21    8   10 1   
    22    8   22 1   
    23    8   23 1   
    24    9   24 1   
    25    9   29 1   
    26   10   25 1   
    27   10   26 1   
    28   11   27 1   
@<TRIPOS>SUBSTRUCTURE
     1 VUR         1 TEMP              0 ****  ****    0 ROOT
