@<TRIPOS>MOLECULE
VUR
   29    28     1     0     0
SMALL
bcc


@<TRIPOS>ATOM
      1 C           3.3230   -0.8320    0.5220 c         1 VUR      0.894600
      2 N           1.1550    0.0050   -0.3690 n4        1 VUR     -0.824600
      3 C1          5.4270   -0.5360    4.1250 c2        1 VUR      0.514200
      4 C2          6.1890   -1.8290    3.9140 c3        1 VUR     -0.131600
      5 S3          6.8120   -2.4580    5.4280 sh        1 VUR     -0.274900
      6 CA          2.5620    0.4100   -0.0640 c3        1 VUR     -0.040500
      7 CB          2.6320    1.5120    1.0000 c3        1 VUR     -0.094400
      8 CD          4.4820    1.3730    2.7710 c3        1 VUR      0.121800
      9 NE          4.7130   -0.0960    2.8880 n4        1 VUR     -0.761000
     10 CG          4.0720    1.8240    1.3700 c3        1 VUR     -0.108400
     11 NH          5.3290    0.1780    5.1840 n2        1 VUR     -0.718100
     12 OA1         4.5280   -0.9640    0.2110 o         1 VUR     -0.781300
     13 OA2         2.6830   -1.5070    1.3770 o         1 VUR     -0.781300
     14 HN          0.8540   -0.6490    0.3750 hn        1 VUR      0.460133
     15 HNA         1.1310   -0.4860   -1.2650 hn        1 VUR      0.460133
     16 H2          7.0880   -1.6180    3.2720 h1        1 VUR      0.125200
     17 H2A         5.5590   -2.5810    3.3730 h1        1 VUR      0.125200
     18 HS3         5.8570   -3.3270    5.7290 hs        1 VUR      0.219800
     19 HA          3.0510    0.7500   -1.0200 hx        1 VUR      0.120700
     20 HB          2.0600    1.1910    1.9120 hc        1 VUR      0.065200
     21 HBA         2.1470    2.4450    0.6060 hc        1 VUR      0.065200
     22 HD          5.4460    1.8960    3.0430 hx        1 VUR      0.108700
     23 HDA         3.6970    1.6660    3.5250 hx        1 VUR      0.108700
     24 HNE         3.8040   -0.6000    2.8570 hn        1 VUR      0.492800
     25 HG          4.2120    2.9410    1.3580 hc        1 VUR      0.099700
     26 HGA         4.7750    1.3970    0.6000 hc        1 VUR      0.099700
     27 HNH         5.8110   -0.1620    5.9980 hn        1 VUR      0.481400
     28 HN3         0.5310    0.8110   -0.3980 hn        1 VUR      0.460133
     29 HE3         5.2600   -0.4260    2.0660 hn        1 VUR      0.492800
@<TRIPOS>BOND
     1    1    6 1   
     2    1   12 1   
     3    1   13 1   
     4    2    6 1   
     5    2   14 1   
     6    2   15 1   
     7    2   28 1   
     8    3    4 1   
     9    3    9 1   
    10    3   11 2   
    11    4    5 1   
    12    4   16 1   
    13    4   17 1   
    14    5   18 1   
    15    6    7 1   
    16    6   19 1   
    17    7   10 1   
    18    7   20 1   
    19    7   21 1   
    20    8    9 1   
    21    8   10 1   
    22    8   22 1   
    23    8   23 1   
    24    9   24 1   
    25    9   29 1   
    26   10   25 1   
    27   10   26 1   
    28   11   27 1   
@<TRIPOS>SUBSTRUCTURE
     1 VUR         1 TEMP              0 ****  ****    0 ROOT
