@<TRIPOS>MOLECULE
VVQ
   38    40     1     0     0
SMALL
bcc


@<TRIPOS>ATOM
      1 C16        -0.1300   -0.1350    0.0320 ca        1 VVQ     -0.429600
      2 C17         1.2790   -0.0120    0.0100 ca        1 VVQ      0.490200
      3 N18         2.0130    0.2640    1.0860 nb        1 VVQ     -0.726000
      4 C19         1.3110    0.4240    2.2910 ca        1 VVQ      0.904900
      5 N21         2.0490    0.6470    3.4370 nh        1 VVQ     -0.939500
      6 N20        -0.0730    0.3400    2.4130 nb        1 VVQ     -0.773000
      7 C15        -0.7560    0.0590    1.2760 ca        1 VVQ      0.532800
      8 C11        -2.2140   -0.0500    1.3990 cc        1 VVQ     -0.129800
      9 N7         -3.0990    0.1540    0.3230 na        1 VVQ     -0.131100
     10 C10        -2.9640   -0.3560    2.5360 cd        1 VVQ     -0.131000
     11 C9         -4.3550   -0.3430    2.1450 cd        1 VVQ     -0.316600
     12 C12        -5.4900   -0.5900    2.9620 c         1 VVQ      0.616700
     13 O13        -6.6950   -0.5870    2.7480 o         1 VVQ     -0.438100
     14 N14        -5.1480   -0.9320    4.4200 n4        1 VVQ     -0.766400
     15 C8         -4.3950   -0.0160    0.7510 cc        1 VVQ      0.134700
     16 C1         -5.5490    0.1040   -0.1360 ca        1 VVQ     -0.108000
     17 C6         -6.0870   -1.0680   -0.6870 ca        1 VVQ     -0.090000
     18 C5         -7.1930   -0.9900   -1.5330 ca        1 VVQ      0.010400
     19 CL         -7.8440   -2.4050   -2.1970 cl        1 VVQ     -0.051400
     20 C4         -7.7640    0.2540   -1.8350 ca        1 VVQ     -0.080000
     21 C3         -7.2210    1.4110   -1.2880 ca        1 VVQ     -0.121000
     22 C2         -6.1070    1.3570   -0.4360 ca        1 VVQ     -0.031300
     23 C22        -5.5580    2.6200    0.1090 c3        1 VVQ     -0.071800
     24 H16        -0.6760   -0.3880   -0.8810 ha        1 VVQ      0.151000
     25 H17         1.8420   -0.1440   -0.9350 h4        1 VVQ      0.045100
     26 H211        3.0230    0.8190    3.3550 hn        1 VVQ      0.453800
     27 H212        1.5850    0.9030    4.2730 hn        1 VVQ      0.453800
     28 H7         -2.8220    0.3930   -0.6020 hn        1 VVQ      0.334700
     29 H10        -2.5460   -0.5560    3.5190 ha        1 VVQ      0.169000
     30 H141       -6.0110   -1.0970    4.9470 hn        1 VVQ      0.461133
     31 H142       -4.6320   -0.1570    4.8410 hn        1 VVQ      0.461133
     32 H6         -5.6380   -2.0460   -0.4520 ha        1 VVQ      0.153000
     33 H4         -8.6400    0.3150   -2.5030 ha        1 VVQ      0.168000
     34 H3         -7.6690    2.3890   -1.5250 ha        1 VVQ      0.158000
     35 H221       -4.9780    3.1570   -0.6840 hc        1 VVQ      0.058367
     36 H222       -6.3870    3.2930    0.4440 hc        1 VVQ      0.058367
     37 H223       -4.8810    2.4380    0.9790 hc        1 VVQ      0.058367
     38 H143       -4.5640   -1.7710    4.4460 hn        1 VVQ      0.461133
@<TRIPOS>BOND
     1    1    2 ar  
     2    1    7 ar  
     3    1   24 1   
     4    2    3 ar  
     5    2   25 1   
     6    3    4 ar  
     7    4    5 1   
     8    4    6 ar  
     9    5   26 1   
    10    5   27 1   
    11    6    7 ar  
    12    7    8 1   
    13    8    9 1   
    14    8   10 2   
    15    9   15 1   
    16    9   28 1   
    17   10   11 1   
    18   10   29 1   
    19   11   12 1   
    20   11   15 2   
    21   12   13 2   
    22   12   14 1   
    23   14   30 1   
    24   14   31 1   
    25   14   38 1   
    26   15   16 1   
    27   16   17 ar  
    28   16   22 ar  
    29   17   18 ar  
    30   17   32 1   
    31   18   19 1   
    32   18   20 ar  
    33   20   21 ar  
    34   20   33 1   
    35   21   22 ar  
    36   21   34 1   
    37   22   23 1   
    38   23   35 1   
    39   23   36 1   
    40   23   37 1   
@<TRIPOS>SUBSTRUCTURE
     1 VVQ         1 TEMP              0 ****  ****    0 ROOT
