@<TRIPOS>MOLECULE
VVQ
   38    40     1     0     0
SMALL
bcc


@<TRIPOS>ATOM
      1 C16        -0.1320   -0.1630    0.0440 ca        1 VVQ     -0.429600
      2 C17         1.2780   -0.0440    0.0240 ca        1 VVQ      0.490200
      3 N18         2.0110    0.2390    1.0990 nb        1 VVQ     -0.726000
      4 C19         1.3070    0.4110    2.3010 ca        1 VVQ      0.904900
      5 N21         2.0430    0.6420    3.4460 nv        1 VVQ     -0.939500
      6 N20        -0.0770    0.3320    2.4210 nb        1 VVQ     -0.773000
      7 C15        -0.7590    0.0430    1.2850 ca        1 VVQ      0.532800
      8 C11        -2.2170   -0.0610    1.4060 cc        1 VVQ     -0.129800
      9 N7         -3.1000    0.1370    0.3270 na        1 VVQ     -0.131100
     10 C10        -2.9710   -0.3560    2.5440 cd        1 VVQ     -0.131000
     11 C9         -4.3610   -0.3420    2.1510 cd        1 VVQ     -0.316600
     12 C12        -5.4980   -0.5800    2.9670 c         1 VVQ      0.616700
     13 O13        -6.7020   -0.5760    2.7520 o         1 VVQ     -0.438100
     14 N14        -5.1600   -0.9100    4.4290 nz        1 VVQ     -0.766400
     15 C8         -4.3980   -0.0270    0.7540 cc        1 VVQ      0.134700
     16 C1         -5.5490    0.0890   -0.1360 ca        1 VVQ     -0.108000
     17 C6         -6.0890   -1.0860   -0.6780 ca        1 VVQ     -0.090000
     18 C5         -7.1930   -1.0120   -1.5280 ca        1 VVQ      0.010400
     19 Cl         -7.8470   -2.4300   -2.1820 cl        1 VVQ     -0.051400
     20 C4         -7.7610    0.2310   -1.8400 ca        1 VVQ     -0.080000
     21 C3         -7.2160    1.3910   -1.3010 ca        1 VVQ     -0.121000
     22 C2         -6.1040    1.3410   -0.4470 ca        1 VVQ     -0.031300
     23 C22        -5.5520    2.6070    0.0890 c3        1 VVQ     -0.071800
     24 H16        -0.6760   -0.4220   -0.8680 ha        1 VVQ      0.151000
     25 H17         1.8430   -0.1850   -0.9180 h4        1 VVQ      0.045100
     26 H211        3.0180    0.8100    3.3650 hn        1 VVQ      0.453800
     27 H212        1.5780    0.9060    4.2800 hn        1 VVQ      0.453800
     28 H7         -2.8210    0.3670   -0.5990 hn        1 VVQ      0.334700
     29 H10        -2.5550   -0.5490    3.5300 ha        1 VVQ      0.169000
     30 H141       -4.5780   -1.7500    4.4640 hn        1 VVQ      0.461133
     31 H142       -6.0250   -1.0690    4.9560 hn        1 VVQ      0.461133
     32 H6         -5.6430   -2.0630   -0.4350 ha        1 VVQ      0.153000
     33 H4         -8.6350    0.2890   -2.5100 ha        1 VVQ      0.168000
     34 H3         -7.6610    2.3690   -1.5470 ha        1 VVQ      0.158000
     35 H221       -4.9690    3.1360   -0.7080 hc        1 VVQ      0.058367
     36 H222       -6.3800    3.2850    0.4170 hc        1 VVQ      0.058367
     37 H223       -4.8780    2.4310    0.9620 hc        1 VVQ      0.058367
     38 H143       -4.6420   -0.1330    4.8450 hn        1 VVQ      0.461133
@<TRIPOS>BOND
     1    1    2 ar  
     2    1    7 ar  
     3    1   24 1   
     4    2    3 ar  
     5    2   25 1   
     6    3    4 ar  
     7    4    5 1   
     8    4    6 ar  
     9    5   26 1   
    10    5   27 1   
    11    6    7 ar  
    12    7    8 1   
    13    8    9 1   
    14    8   10 2   
    15    9   15 1   
    16    9   28 1   
    17   10   11 1   
    18   10   29 1   
    19   11   12 1   
    20   11   15 2   
    21   12   13 2   
    22   12   14 1   
    23   14   30 1   
    24   14   31 1   
    25   14   38 1   
    26   15   16 1   
    27   16   17 ar  
    28   16   22 ar  
    29   17   18 ar  
    30   17   32 1   
    31   18   19 1   
    32   18   20 ar  
    33   20   21 ar  
    34   20   33 1   
    35   21   22 ar  
    36   21   34 1   
    37   22   23 1   
    38   23   35 1   
    39   23   36 1   
    40   23   37 1   
@<TRIPOS>SUBSTRUCTURE
     1 VVQ         1 TEMP              0 ****  ****    0 ROOT
