@<TRIPOS>MOLECULE
VVQ
   39    41     1     0     0
SMALL
bcc


@<TRIPOS>ATOM
      1 C16        -0.1180   -0.5670    0.1010 ca        1 VVQ     -0.306600
      2 C17         1.2890   -0.5500    0.0230 ca        1 VVQ      0.485200
      3 N18         2.0640   -0.1140    1.0360 nb        1 VVQ     -0.647000
      4 C19         1.3840    0.3040    2.1510 ca        1 VVQ      0.710900
      5 N21         2.2320    0.7960    3.2790 n4        1 VVQ     -0.816300
      6 N20         0.0290    0.3330    2.3490 nb        1 VVQ     -0.674000
      7 C15        -0.7220   -0.1050    1.2960 ca        1 VVQ      0.552800
      8 C11        -2.1750   -0.0800    1.4360 cc        1 VVQ     -0.206800
      9 N7         -3.0450    0.0540    0.3350 na        1 VVQ     -0.135100
     10 C10        -2.9490   -0.1680    2.6030 cd        1 VVQ     -0.072000
     11 C9         -4.3270   -0.0800    2.2030 cd        1 VVQ     -0.319600
     12 C12        -5.4960   -0.0720    3.0290 c         1 VVQ      0.614700
     13 O13        -6.5810    0.4700    2.8940 o         1 VVQ     -0.397100
     14 N14        -5.3860   -0.8960    4.3120 n4        1 VVQ     -0.763400
     15 C8         -4.3490    0.0690    0.7770 cc        1 VVQ      0.172700
     16 C1         -5.4840    0.1440   -0.1360 ca        1 VVQ     -0.143000
     17 C6         -5.8210   -1.0120   -0.8590 ca        1 VVQ     -0.104000
     18 C5         -6.9030   -0.9870   -1.7380 ca        1 VVQ      0.010400
     19 CL         -7.3150   -2.3810   -2.6010 cl        1 VVQ     -0.030400
     20 C4         -7.6440    0.1930   -1.9090 ca        1 VVQ     -0.065000
     21 C3         -7.2950    1.3350   -1.1980 ca        1 VVQ     -0.115000
     22 C2         -6.2130    1.3320   -0.3040 ca        1 VVQ     -0.014300
     23 C22        -5.8810    2.5670    0.4430 c3        1 VVQ     -0.073800
     24 H16        -0.7090   -0.9490   -0.7450 ha        1 VVQ      0.193000
     25 H17         1.8340   -0.8970   -0.8820 h4        1 VVQ      0.093100
     26 H211        1.9480    1.7520    3.5290 hn        1 VVQ      0.488467
     27 H212        2.1100    0.1770    4.0910 hn        1 VVQ      0.488467
     28 H7         -2.7640    0.1550   -0.6130 hn        1 VVQ      0.336700
     29 H10        -2.5600   -0.2600    3.6150 ha        1 VVQ      0.168000
     30 H141       -4.5860   -0.5880    4.8670 hn        1 VVQ      0.467133
     31 H142       -6.2470   -0.7890    4.8660 hn        1 VVQ      0.467133
     32 H6         -5.2390   -1.9380   -0.7280 ha        1 VVQ      0.148000
     33 H4         -8.4990    0.2130   -2.6070 ha        1 VVQ      0.180000
     34 H3         -7.8760    2.2630   -1.3380 ha        1 VVQ      0.169000
     35 H221       -6.4050    2.5560    1.4340 hc        1 VVQ      0.061033
     36 H222       -4.7820    2.6510    0.6230 hc        1 VVQ      0.061033
     37 H223       -6.2160    3.4760   -0.1170 hc        1 VVQ      0.061033
     38 H213        3.2250    0.7950    2.9950 hn        1 VVQ      0.488467
     39 H143       -5.2650   -1.8850    4.0730 hn        1 VVQ      0.467133
@<TRIPOS>BOND
     1    1    2 ar  
     2    1    7 ar  
     3    1   24 1   
     4    2    3 ar  
     5    2   25 1   
     6    3    4 ar  
     7    4    5 1   
     8    4    6 ar  
     9    5   26 1   
    10    5   27 1   
    11    5   38 1   
    12    6    7 ar  
    13    7    8 1   
    14    8    9 1   
    15    8   10 2   
    16    9   15 1   
    17    9   28 1   
    18   10   11 1   
    19   10   29 1   
    20   11   12 1   
    21   11   15 2   
    22   12   13 2   
    23   12   14 1   
    24   14   30 1   
    25   14   31 1   
    26   14   39 1   
    27   15   16 1   
    28   16   17 ar  
    29   16   22 ar  
    30   17   18 ar  
    31   17   32 1   
    32   18   19 1   
    33   18   20 ar  
    34   20   21 ar  
    35   20   33 1   
    36   21   22 ar  
    37   21   34 1   
    38   22   23 1   
    39   23   35 1   
    40   23   36 1   
    41   23   37 1   
@<TRIPOS>SUBSTRUCTURE
     1 VVQ         1 TEMP              0 ****  ****    0 ROOT
