@<TRIPOS>MOLECULE
VVS
   57    59     1     0     0
SMALL
bcc


@<TRIPOS>ATOM
      1 C1         -0.0370   -0.0300   -0.0610 ca        1 VVS     -0.167800
      2 C2          1.3520   -0.1000   -0.0620 ca        1 VVS     -0.072000
      3 C3         -0.7200    0.0820    1.1680 ca        1 VVS      0.162100
      4 C4         -0.8070   -0.0520   -1.3510 c3        1 VVS      0.092600
      5 C5          2.0950   -0.0580    1.1290 ca        1 VVS     -0.094300
      6 C6          0.0010    0.1300    2.3700 ca        1 VVS     -0.167800
      7 O7         -2.0940    0.1050    1.0970 oh        1 VVS     -0.504100
      8 N8         -1.2750   -1.3490   -1.7450 na        1 VVS     -0.212900
      9 C9          1.3990    0.0720    2.3330 ca        1 VVS     -0.072000
     10 C10         3.6110   -0.1260    1.0480 c3        1 VVS      0.008300
     11 C11        -0.6880    0.1950    3.7040 c3        1 VVS      0.092600
     12 C12        -2.3570   -2.0430   -1.1960 cc        1 VVS     -0.261100
     13 C13        -0.7080   -2.1920   -2.7160 cc        1 VVS      0.391400
     14 C14         4.1990   -0.2100    2.4630 c3        1 VVS     -0.064400
     15 C15         4.0030   -1.3500    0.2300 c3        1 VVS     -0.089100
     16 C16         4.0810    1.1410    0.3340 c3        1 VVS     -0.089100
     17 N17        -1.2410    1.4750    4.0400 na        1 VVS     -0.212900
     18 C18        -2.4130   -3.2760   -1.8710 cd        1 VVS      0.292200
     19 N19        -1.3850   -3.3540   -2.8120 nd        1 VVS     -0.667000
     20 C20         5.6830   -0.4990    2.7240 c3        1 VVS     -0.047000
     21 C21        -2.6030    1.7810    4.1600 cc        1 VVS     -0.261100
     22 C22        -0.5420    2.6700    4.2750 cc        1 VVS      0.391400
     23 C23         6.6320    0.2760    1.8280 c3        1 VVS     -0.089100
     24 C24         5.9560   -0.0740    4.1720 c3        1 VVS     -0.089100
     25 C25         5.9890   -1.9880    2.6230 c3        1 VVS     -0.089100
     26 C26        -2.6700    3.1490    4.4770 cd        1 VVS      0.292200
     27 N27        -1.3850    3.6880    4.5450 nd        1 VVS     -0.667000
     28 H2          1.8720   -0.1800   -1.0310 ha        1 VVS      0.140000
     29 H41C       -1.7060    0.6250   -1.2400 h1        1 VVS      0.071200
     30 H42C       -0.1550    0.3500   -2.1790 h1        1 VVS      0.071200
     31 H7         -2.4420    0.4820    1.9190 ho        1 VVS      0.430000
     32 H9          1.9340    0.1340    3.2940 ha        1 VVS      0.140000
     33 H111       -1.5240   -0.5650    3.7210 h1        1 VVS      0.071200
     34 H112        0.0490   -0.0910    4.5120 h1        1 VVS      0.071200
     35 H12        -2.9660   -1.6170   -0.4000 h4        1 VVS      0.180000
     36 H13         0.1620   -1.9050   -3.3120 h5        1 VVS      0.059100
     37 H141        3.6350   -1.0160    3.0100 hc        1 VVS      0.039200
     38 H142        3.9670    0.7730    2.9600 hc        1 VVS      0.039200
     39 H151        3.7470   -2.2840    0.7850 hc        1 VVS      0.039867
     40 H152        3.4770   -1.3670   -0.7540 hc        1 VVS      0.039867
     41 H153        5.1010   -1.3390    0.0230 hc        1 VVS      0.039867
     42 H161        3.4210    1.3670   -0.5380 hc        1 VVS      0.039867
     43 H162        4.0570    2.0130    1.0290 hc        1 VVS      0.039867
     44 H163        5.1200    1.0180   -0.0520 hc        1 VVS      0.039867
     45 H18        -3.1230   -4.0900   -1.7360 h4        1 VVS      0.042600
     46 H21        -3.3840    1.0320    4.0460 h4        1 VVS      0.180000
     47 H22         0.5500    2.7310    4.2360 h5        1 VVS      0.059100
     48 H231        6.3450    1.3550    1.7980 hc        1 VVS      0.035256
     49 H232        7.6750    0.1980    2.2230 hc        1 VVS      0.035256
     50 H233        6.6280   -0.1330    0.7900 hc        1 VVS      0.035256
     51 H241        5.2520   -0.5900    4.8670 hc        1 VVS      0.035256
     52 H242        5.8300    1.0300    4.2850 hc        1 VVS      0.035256
     53 H243        7.0000   -0.3410    4.4610 hc        1 VVS      0.035256
     54 H251        5.2790   -2.5750    3.2540 hc        1 VVS      0.035256
     55 H252        5.9140   -2.3520    1.5730 hc        1 VVS      0.035256
     56 H253        7.0280   -2.1850    2.9840 hc        1 VVS      0.035256
     57 H26        -3.5540    3.7600    4.6570 h4        1 VVS      0.042600
@<TRIPOS>BOND
     1    1    2 ar  
     2    1    3 ar  
     3    1    4 1   
     4    2    5 ar  
     5    2   28 1   
     6    3    6 ar  
     7    3    7 1   
     8    4    8 1   
     9    4   29 1   
    10    4   30 1   
    11    5    9 ar  
    12    5   10 1   
    13    6    9 ar  
    14    6   11 1   
    15    7   31 1   
    16    8   12 1   
    17    8   13 1   
    18    9   32 1   
    19   10   14 1   
    20   10   15 1   
    21   10   16 1   
    22   11   17 1   
    23   11   33 1   
    24   11   34 1   
    25   12   18 2   
    26   12   35 1   
    27   13   19 2   
    28   13   36 1   
    29   14   20 1   
    30   14   37 1   
    31   14   38 1   
    32   15   39 1   
    33   15   40 1   
    34   15   41 1   
    35   16   42 1   
    36   16   43 1   
    37   16   44 1   
    38   17   21 1   
    39   17   22 1   
    40   18   19 1   
    41   18   45 1   
    42   20   23 1   
    43   20   24 1   
    44   20   25 1   
    45   21   26 2   
    46   21   46 1   
    47   22   27 2   
    48   22   47 1   
    49   23   48 1   
    50   23   49 1   
    51   23   50 1   
    52   24   51 1   
    53   24   52 1   
    54   24   53 1   
    55   25   54 1   
    56   25   55 1   
    57   25   56 1   
    58   26   27 1   
    59   26   57 1   
@<TRIPOS>SUBSTRUCTURE
     1 VVS         1 TEMP              0 ****  ****    0 ROOT
