@<TRIPOS>MOLECULE
VVV
   33    34     1     0     0
SMALL
bcc


@<TRIPOS>ATOM
      1 C1         -0.7610   -1.1090    0.0280 ca        1 VVV      0.099100
      2 C2          0.5590   -0.5990    0.0700 ca        1 VVV     -0.085800
      3 C3          0.7500    0.8120    0.0230 ca        1 VVV      0.065600
      4 C4         -0.3980    1.6680   -0.0550 ca        1 VVV      0.093100
      5 C5         -1.6820    1.1480   -0.0870 ca        1 VVV     -0.212000
      6 C6         -1.8630   -0.2420   -0.0440 ca        1 VVV      0.086100
      7 C7          1.7420   -1.4390    0.1800 cc        1 VVV      0.034600
      8 C8          2.9770   -0.8760    0.2030 cd        1 VVV     -0.242200
      9 C9          3.1780    0.5720    0.1300 c         1 VVV      0.693700
     10 N10         2.0270    1.3590    0.0490 n         1 VVV     -0.433100
     11 O11        -0.9690   -2.4720    0.1610 os        1 VVV     -0.331900
     12 C12        -1.5270   -3.0970   -0.9980 c3        1 VVV      0.113700
     13 O13        -3.1080   -0.8430   -0.1170 os        1 VVV     -0.323900
     14 C14        -4.2180   -0.0180    0.2200 c3        1 VVV      0.113700
     15 C15         1.6170   -2.9130    0.2850 c3        1 VVV     -0.064900
     16 O16         4.2900    1.1360    0.1390 o         1 VVV     -0.638500
     17 O17        -0.1220    3.0260   -0.0870 os        1 VVV     -0.335900
     18 C18        -1.2360    3.8960   -0.2440 c3        1 VVV      0.117700
     19 H5         -2.5560    1.8120   -0.1450 ha        1 VVV      0.150000
     20 H8          3.8980   -1.4720    0.2840 ha        1 VVV      0.164000
     21 HN10        2.1180    2.3520    0.0140 hn        1 VVV      0.345500
     22 H12        -0.8630   -2.9420   -1.8830 h1        1 VVV      0.046033
     23 H12A       -1.5660   -4.1790   -0.7140 h1        1 VVV      0.046033
     24 H12B       -2.5510   -2.7030   -1.2040 h1        1 VVV      0.046033
     25 H14        -5.0660   -0.7440    0.3000 h1        1 VVV      0.044700
     26 H14A       -4.0530    0.5050    1.1920 h1        1 VVV      0.044700
     27 H14B       -4.4130    0.7210   -0.5960 h1        1 VVV      0.044700
     28 H15         1.1120   -3.3240   -0.6250 hc        1 VVV      0.057700
     29 H15A        2.6200   -3.3970    0.3850 hc        1 VVV      0.057700
     30 H15B        0.9960   -3.1830    1.1770 hc        1 VVV      0.057700
     31 H18        -1.7810    3.6760   -1.1950 h1        1 VVV      0.048033
     32 H18A       -1.9240    3.8160    0.6330 h1        1 VVV      0.048033
     33 H18B       -0.7650    4.9110   -0.2840 h1        1 VVV      0.048033
@<TRIPOS>BOND
     1    1    2 ar  
     2    1    6 ar  
     3    1   11 1   
     4    2    3 ar  
     5    2    7 1   
     6    3    4 ar  
     7    3   10 1   
     8    4    5 ar  
     9    4   17 1   
    10    5    6 ar  
    11    5   19 1   
    12    6   13 1   
    13    7    8 2   
    14    7   15 1   
    15    8    9 1   
    16    8   20 1   
    17    9   10 1   
    18    9   16 2   
    19   10   21 1   
    20   11   12 1   
    21   12   22 1   
    22   12   23 1   
    23   12   24 1   
    24   13   14 1   
    25   14   25 1   
    26   14   26 1   
    27   14   27 1   
    28   15   28 1   
    29   15   29 1   
    30   15   30 1   
    31   17   18 1   
    32   18   31 1   
    33   18   32 1   
    34   18   33 1   
@<TRIPOS>SUBSTRUCTURE
     1 VVV         1 TEMP              0 ****  ****    0 ROOT
