@<TRIPOS>MOLECULE
VVV
   33    34     1     0     0
SMALL
bcc


@<TRIPOS>ATOM
      1 C1          0.0210    0.1410   -0.0060 ca        1 VVV      0.099100
      2 C2          1.4340    0.0530   -0.0220 ca        1 VVV     -0.085800
      3 C3          2.1310    0.0070    1.2200 ca        1 VVV      0.065600
      4 C4          1.3810    0.0420    2.4420 ca        1 VVV      0.094100
      5 C5         -0.0030    0.1200    2.4340 ca        1 VVV     -0.213000
      6 C6         -0.6830    0.1670    1.2080 ca        1 VVV      0.086100
      7 C7          2.2220   -0.0140   -1.2430 cc        1 VVV      0.034600
      8 C8          3.5760   -0.0850   -1.1770 cd        1 VVV     -0.242200
      9 C9          4.2960   -0.1080    0.0970 c         1 VVV      0.693700
     10 N10         3.5180   -0.0660    1.2560 n         1 VVV     -0.433100
     11 O11        -0.6770    0.0970   -1.2020 os        1 VVV     -0.331900
     12 C12        -1.3870    1.2990   -1.5120 c3        1 VVV      0.113700
     13 O13        -2.0580    0.2890    1.1130 os        1 VVV     -0.323900
     14 C14        -2.7990   -0.0780    2.2720 c3        1 VVV      0.113700
     15 C15         1.5620   -0.0220   -2.5710 c3        1 VVV     -0.064900
     16 O16         5.5370   -0.1650    0.2100 o         1 VVV     -0.638500
     17 O17         2.1370   -0.0120    3.6020 os        1 VVV     -0.335900
     18 C18         1.4210    0.0550    4.8290 c3        1 VVV      0.117700
     19 H5         -0.5700    0.1440    3.3750 ha        1 VVV      0.150000
     20 H8          4.2110   -0.1360   -2.0740 ha        1 VVV      0.164000
     21 HN10        3.9690   -0.0960    2.1460 hn        1 VVV      0.345500
     22 H12        -1.8290    1.0850   -2.5170 h1        1 VVV      0.046033
     23 H12A       -2.1880    1.4880   -0.7580 h1        1 VVV      0.046033
     24 H12B       -0.6850    2.1660   -1.5630 h1        1 VVV      0.046033
     25 H14        -2.6780    0.6960    3.0690 h1        1 VVV      0.045033
     26 H14A       -2.4880   -1.0820    2.6480 h1        1 VVV      0.045033
     27 H14B       -3.8570   -0.1010    1.9070 h1        1 VVV      0.045033
     28 H15         0.8570   -0.8890   -2.6430 hc        1 VVV      0.057700
     29 H15A        2.3130   -0.1010   -3.3950 hc        1 VVV      0.057700
     30 H15B        0.9710    0.9170   -2.7150 hc        1 VVV      0.057700
     31 H18         0.8530    1.0140    4.9040 h1        1 VVV      0.047700
     32 H18A        2.2330    0.0150    5.6000 h1        1 VVV      0.047700
     33 H18B        0.7350   -0.8200    4.9340 h1        1 VVV      0.047700
@<TRIPOS>BOND
     1    1    2 ar  
     2    1    6 ar  
     3    1   11 1   
     4    2    3 ar  
     5    2    7 1   
     6    3    4 ar  
     7    3   10 1   
     8    4    5 ar  
     9    4   17 1   
    10    5    6 ar  
    11    5   19 1   
    12    6   13 1   
    13    7    8 2   
    14    7   15 1   
    15    8    9 1   
    16    8   20 1   
    17    9   10 1   
    18    9   16 2   
    19   10   21 1   
    20   11   12 1   
    21   12   22 1   
    22   12   23 1   
    23   12   24 1   
    24   13   14 1   
    25   14   25 1   
    26   14   26 1   
    27   14   27 1   
    28   15   28 1   
    29   15   29 1   
    30   15   30 1   
    31   17   18 1   
    32   18   31 1   
    33   18   32 1   
    34   18   33 1   
@<TRIPOS>SUBSTRUCTURE
     1 VVV         1 TEMP              0 ****  ****    0 ROOT
