@<TRIPOS>MOLECULE
VVV
   33    34     1     0     0
SMALL
bcc


@<TRIPOS>ATOM
      1 C1          0.0200    0.1430   -0.0060 ca        1 VVV      0.099100
      2 C2          1.4330    0.0480   -0.0220 ca        1 VVV     -0.085800
      3 C3          2.1300   -0.0060    1.2200 ca        1 VVV      0.065600
      4 C4          1.3790    0.0260    2.4410 ca        1 VVV      0.093100
      5 C5         -0.0040    0.1120    2.4340 ca        1 VVV     -0.212000
      6 C6         -0.6840    0.1680    1.2080 ca        1 VVV      0.086100
      7 C7          2.2200   -0.0180   -1.2430 cc        1 VVV      0.034600
      8 C8          3.5740   -0.0960   -1.1780 cd        1 VVV     -0.242200
      9 C9          4.2940   -0.1280    0.0960 c         1 VVV      0.693700
     10 N10         3.5160   -0.0870    1.2550 n         1 VVV     -0.433100
     11 O11        -0.6780    0.1090   -1.2020 os        1 VVV     -0.331900
     12 C12        -1.3820    1.3160   -1.5060 c3        1 VVV      0.113700
     13 O13        -2.0580    0.2990    1.1150 os        1 VVV     -0.323900
     14 C14        -2.8000   -0.0810    2.2680 c3        1 VVV      0.113700
     15 C15         1.5600   -0.0180   -2.5710 c3        1 VVV     -0.064900
     16 O16         5.5340   -0.1910    0.2090 o         1 VVV     -0.638500
     17 O17         2.1350   -0.0410    3.6010 os        1 VVV     -0.335900
     18 C18         1.4240    0.0720    4.8280 c3        1 VVV      0.117700
     19 H5         -0.5710    0.1340    3.3750 ha        1 VVV      0.150000
     20 H8          4.2090   -0.1470   -2.0750 ha        1 VVV      0.164000
     21 HN10        3.9660   -0.1230    2.1450 hn        1 VVV      0.345500
     22 H12        -2.1810    1.5060   -0.7510 h1        1 VVV      0.046033
     23 H12A       -1.8250    1.1090   -2.5120 h1        1 VVV      0.046033
     24 H12B       -0.6740    2.1790   -1.5540 h1        1 VVV      0.046033
     25 H14        -2.4920   -1.0890    2.6340 h1        1 VVV      0.044700
     26 H14A       -3.8580   -0.0990    1.9020 h1        1 VVV      0.044700
     27 H14B       -2.6800    0.6840    3.0740 h1        1 VVV      0.044700
     28 H15         0.9740    0.9250   -2.7120 hc        1 VVV      0.057700
     29 H15A        2.3100   -0.0980   -3.3960 hc        1 VVV      0.057700
     30 H15B        0.8500   -0.8810   -2.6470 hc        1 VVV      0.057700
     31 H18         0.7220   -0.7870    4.9560 h1        1 VVV      0.048033
     32 H18A        2.2370    0.0360    5.5980 h1        1 VVV      0.048033
     33 H18B        0.8740    1.0430    4.8800 h1        1 VVV      0.048033
@<TRIPOS>BOND
     1    1    2 ar  
     2    1    6 ar  
     3    1   11 1   
     4    2    3 ar  
     5    2    7 1   
     6    3    4 ar  
     7    3   10 1   
     8    4    5 ar  
     9    4   17 1   
    10    5    6 ar  
    11    5   19 1   
    12    6   13 1   
    13    7    8 2   
    14    7   15 1   
    15    8    9 1   
    16    8   20 1   
    17    9   10 1   
    18    9   16 2   
    19   10   21 1   
    20   11   12 1   
    21   12   22 1   
    22   12   23 1   
    23   12   24 1   
    24   13   14 1   
    25   14   25 1   
    26   14   26 1   
    27   14   27 1   
    28   15   28 1   
    29   15   29 1   
    30   15   30 1   
    31   17   18 1   
    32   18   31 1   
    33   18   32 1   
    34   18   33 1   
@<TRIPOS>SUBSTRUCTURE
     1 VVV         1 TEMP              0 ****  ****    0 ROOT
