@<TRIPOS>MOLECULE
VVV
   33    30     1     0     0
SMALL
bcc


@<TRIPOS>ATOM
      1 C1         -0.7490    0.0020   -0.7140 c1        1 VVV      0.054000
      2 C2          0.6500   -0.0000   -0.7380 c2        1 VVV     -0.074000
      3 C3          1.3790   -0.0710    0.4760 c1        1 VVV      0.073000
      4 C4          0.6900   -0.1400    1.7140 c1        1 VVV      0.048000
      5 C5         -0.7130   -0.1370    1.7380 c1        1 VVV     -0.212000
      6 C6         -1.4380   -0.0660    0.5310 c1        1 VVV      0.041000
      7 C7          1.3810    0.0060   -2.0630 c2        1 VVV      0.027000
      8 C8          2.8290    0.0870   -2.0860 c1        1 VVV     -0.223000
      9 C9          3.5940   -0.0030   -0.8110 c1        1 VVV      0.332000
     10 N10         2.8840   -0.0730    0.4550 n3        1 VVV     -0.287000
     11 O11        -1.8090   -0.1480   -1.6390 o         1 VVV     -0.215000
     12 C12        -2.3670    1.1040   -2.0870 c3        1 VVV     -0.076000
     13 O13        -2.7500   -0.5840    0.3470 os        1 VVV     -0.207000
     14 C14        -3.6400   -0.2870    1.4110 c3        1 VVV     -0.076000
     15 C15         0.5840   -0.1440   -3.3890 c3        1 VVV     -0.187000
     16 O16         4.7960    0.0740   -0.8240 o         1 VVV     -0.363000
     17 O17         1.5080    0.2630    2.7910 os        1 VVV     -0.219000
     18 C18         1.3810   -0.5520    3.9420 c3        1 VVV     -0.072000
     19 H5         -1.1870   -0.1840    2.5940 ha        1 VVV      0.150000
     20 H8          3.3030    0.1340   -2.9380 ha        1 VVV      0.164000
     21 HN10        3.3630   -0.1300    1.2570 hn        1 VVV      0.259000
     22 H12        -3.2110    1.2480   -1.6620 h1        1 VVV      0.085333
     23 H12A       -1.7350    1.8590   -1.8470 h1        1 VVV      0.085333
     24 H12B       -2.4890    1.0800   -3.0370 h1        1 VVV      0.085333
     25 H14        -3.4310    0.6150    1.7770 h1        1 VVV      0.084000
     26 H14A       -3.5380   -0.9590    2.1210 h1        1 VVV      0.084000
     27 H14B       -4.5630   -0.2990    1.0780 h1        1 VVV      0.084000
     28 H15        -0.0880   -0.8130   -3.2800 hc        1 VVV      0.097000
     29 H15A        0.1570    0.7150   -3.6150 hc        1 VVV      0.097000
     30 H15B        1.2100   -0.4140   -4.1300 hc        1 VVV      0.097000
     31 H18         0.6320   -0.1960    4.5290 h1        1 VVV      0.087333
     32 H18A        2.1880   -0.5430    4.4220 h1        1 VVV      0.087333
     33 H18B        1.1800   -1.4410    3.6780 h1        1 VVV      0.087333
@<TRIPOS>BOND
     1    1    2 1   
     2    1    6 1   
     3    2    3 1   
     4    2    7 1   
     5    3   10 1   
     6    4    5 1   
     7    4   17 1   
     8    5   19 1   
     9    6   13 1   
    10    7    8 1   
    11    7   15 1   
    12    8   20 1   
    13    9   10 1   
    14    9   16 1   
    15   10   21 1   
    16   11   12 1   
    17   12   22 1   
    18   12   23 1   
    19   12   24 1   
    20   13   14 1   
    21   14   25 1   
    22   14   26 1   
    23   14   27 1   
    24   15   28 1   
    25   15   29 1   
    26   15   30 1   
    27   17   18 1   
    28   18   31 1   
    29   18   32 1   
    30   18   33 1   
@<TRIPOS>SUBSTRUCTURE
     1 VVV         1 TEMP              0 ****  ****    0 ROOT
