@<TRIPOS>MOLECULE
VVV
   33    34     1     0     0
SMALL
bcc


@<TRIPOS>ATOM
      1 C1          0.0210    0.1400   -0.0060 ca        1 VVV      0.099100
      2 C2          1.4340    0.0530   -0.0220 ca        1 VVV     -0.085800
      3 C3          2.1310    0.0050    1.2200 ca        1 VVV      0.065600
      4 C4          1.3800    0.0350    2.4420 ca        1 VVV      0.093100
      5 C5         -0.0040    0.1120    2.4340 ca        1 VVV     -0.212000
      6 C6         -0.6830    0.1630    1.2080 ca        1 VVV      0.086100
      7 C7          2.2230   -0.0110   -1.2430 cc        1 VVV      0.034600
      8 C8          3.5760   -0.0800   -1.1770 cd        1 VVV     -0.242200
      9 C9          4.2960   -0.1060    0.0970 c         1 VVV      0.693700
     10 N10         3.5180   -0.0680    1.2560 ns        1 VVV     -0.433100
     11 O11        -0.6760    0.0990   -1.2030 os        1 VVV     -0.331900
     12 C12        -1.3870    1.3010   -1.5100 c3        1 VVV      0.113700
     13 O13        -2.0590    0.2850    1.1130 os        1 VVV     -0.323900
     14 C14        -2.7990   -0.0930    2.2680 c3        1 VVV      0.113700
     15 C15         1.5620   -0.0160   -2.5710 c3        1 VVV     -0.064900
     16 O16         5.5370   -0.1610    0.2110 o         1 VVV     -0.638500
     17 O17         2.1350   -0.0230    3.6020 os        1 VVV     -0.335900
     18 C18         1.4220    0.0670    4.8290 c3        1 VVV      0.117700
     19 H5         -0.5710    0.1340    3.3750 ha        1 VVV      0.150000
     20 H8          4.2120   -0.1290   -2.0730 ha        1 VVV      0.164000
     21 HN10        3.9680   -0.0990    2.1460 hn        1 VVV      0.345500
     22 H12        -2.1880    1.4880   -0.7550 h1        1 VVV      0.046033
     23 H12A       -1.8290    1.0890   -2.5150 h1        1 VVV      0.046033
     24 H12B       -0.6850    2.1680   -1.5580 h1        1 VVV      0.046033
     25 H14        -2.4860   -1.0980    2.6390 h1        1 VVV      0.044700
     26 H14A       -3.8570   -0.1170    1.9020 h1        1 VVV      0.044700
     27 H14B       -2.6820    0.6760    3.0710 h1        1 VVV      0.044700
     28 H15         0.9710    0.9230   -2.7130 hc        1 VVV      0.057700
     29 H15A        2.3140   -0.0920   -3.3950 hc        1 VVV      0.057700
     30 H15B        0.8580   -0.8840   -2.6450 hc        1 VVV      0.057700
     31 H18         0.7300   -0.8020    4.9470 h1        1 VVV      0.047700
     32 H18A        2.2340    0.0320    5.6000 h1        1 VVV      0.047700
     33 H18B        0.8610    1.0310    4.8910 h1        1 VVV      0.047700
@<TRIPOS>BOND
     1    1    2 ar  
     2    1    6 ar  
     3    1   11 1   
     4    2    3 ar  
     5    2    7 1   
     6    3    4 ar  
     7    3   10 1   
     8    4    5 ar  
     9    4   17 1   
    10    5    6 ar  
    11    5   19 1   
    12    6   13 1   
    13    7    8 2   
    14    7   15 1   
    15    8    9 1   
    16    8   20 1   
    17    9   10 1   
    18    9   16 2   
    19   10   21 1   
    20   11   12 1   
    21   12   22 1   
    22   12   23 1   
    23   12   24 1   
    24   13   14 1   
    25   14   25 1   
    26   14   26 1   
    27   14   27 1   
    28   15   28 1   
    29   15   29 1   
    30   15   30 1   
    31   17   18 1   
    32   18   31 1   
    33   18   32 1   
    34   18   33 1   
@<TRIPOS>SUBSTRUCTURE
     1 VVV         1 TEMP              0 ****  ****    0 ROOT
