@<TRIPOS>MOLECULE
VVX
   61    66     1     0     0
SMALL
bcc


@<TRIPOS>ATOM
      1 C2          1.1680    0.1050    1.0550 c3        1 VVX     -0.108600
      2 C1          2.5750   -0.2710    0.5840 c3        1 VVX      0.184500
      3 C           3.5130   -0.2330    1.7920 c3        1 VVX     -0.108600
      4 N           2.5810   -1.5070   -0.2000 n3        1 VVX     -0.734600
      5 C25         3.8180   -1.7000   -0.9420 c3        1 VVX      0.170800
      6 C24         3.7890   -2.9660   -1.8220 c3        1 VVX      0.167300
      7 N1          3.4030   -4.1580   -1.0790 n3        1 VVX     -0.724600
      8 C4          2.1780   -3.9650   -0.3170 c3        1 VVX      0.167300
      9 C3          2.2090   -2.6940    0.5540 c3        1 VVX      0.170800
     10 C5          3.3570   -5.3310   -1.9420 c3        1 VVX      0.147500
     11 C6          3.0900   -6.6020   -1.2320 cc        1 VVX      0.155700
     12 O           3.9260   -6.9630   -0.1740 os        1 VVX     -0.355800
     13 C8          3.4600   -8.2290    0.2460 cc        1 VVX      0.543900
     14 N2          2.4160   -8.6430   -0.4850 nd        1 VVX     -0.663000
     15 C7          2.1710   -7.6300   -1.4150 cd        1 VVX      0.229900
     16 C9          4.1590   -8.8490    1.3570 ca        1 VVX     -0.070500
     17 C15         3.8040  -10.1240    1.8060 ca        1 VVX     -0.179900
     18 C14         2.8220  -11.1440    1.4500 cc        1 VVX      0.369800
     19 N4          2.9480  -12.2070    2.2640 nd        1 VVX     -0.518100
     20 N3          3.8950  -11.9440    3.1810 na        1 VVX     -0.017100
     21 C13         4.5160  -10.7030    2.9230 ca        1 VVX     -0.068200
     22 C12         5.5530  -10.0230    3.5680 ca        1 VVX     -0.111000
     23 C11         5.8910   -8.7560    3.0900 cp        1 VVX     -0.007000
     24 C10         5.2010   -8.1810    2.0000 ca        1 VVX     -0.113000
     25 C16         6.9850   -8.0090    3.7130 cp        1 VVX     -0.001000
     26 C23         7.1130   -7.9260    5.1070 ca        1 VVX     -0.080800
     27 C22         6.3420   -8.4230    6.2250 cc        1 VVX     -0.191200
     28 C21         6.9770   -7.9960    7.3870 cd        1 VVX     -0.104100
     29 N5          8.1180   -7.2550    7.0670 na        1 VVX     -0.195400
     30 C20         8.2210   -7.1870    5.6750 ca        1 VVX     -0.048200
     31 C19         9.1710   -6.5520    4.8600 ca        1 VVX     -0.139000
     32 C18         9.0060   -6.6520    3.4880 ca        1 VVX     -0.115000
     33 C17         7.9360   -7.3630    2.9220 ca        1 VVX     -0.141000
     34 H21C        0.8280   -0.5660    1.8790 hc        1 VVX      0.039033
     35 H22C        0.4340    0.0450    0.2170 hc        1 VVX      0.039033
     36 H23C        1.1890    1.1540    1.4390 hc        1 VVX      0.039033
     37 H1          2.9130    0.5410   -0.1320 h1        1 VVX      0.050700
     38 HC1         3.1950   -0.9700    2.5680 hc        1 VVX      0.039033
     39 HC2         3.4890    0.7870    2.2440 hc        1 VVX      0.039033
     40 HC3         4.5630   -0.4630    1.4940 hc        1 VVX      0.039033
     41 H251        4.7160   -1.7590   -0.2610 h1        1 VVX      0.039200
     42 H252        3.9580   -0.8160   -1.6240 h1        1 VVX      0.039200
     43 H31C        2.9030   -2.8740    1.4260 h1        1 VVX      0.039200
     44 H32C        1.1720   -2.5350    0.9620 h1        1 VVX      0.039200
     45 H241        3.1040   -2.7800   -2.7010 h1        1 VVX      0.039200
     46 H242        4.8290   -3.1290   -2.2210 h1        1 VVX      0.039200
     47 H41C        2.0620   -4.8520    0.3670 h1        1 VVX      0.039200
     48 H42C        1.2710   -3.9210   -0.9890 h1        1 VVX      0.039200
     49 H51C        2.5720   -5.2360   -2.7530 h1        1 VVX      0.054200
     50 H52C        4.3680   -5.4160   -2.4420 h1        1 VVX      0.054200
     51 H7          1.3610   -7.7160   -2.1400 h4        1 VVX      0.052100
     52 H10         5.4910   -7.1730    1.6580 ha        1 VVX      0.159000
     53 H14         2.0760  -11.0900    0.6530 h4        1 VVX      0.075800
     54 H3          4.3330  -12.7030    3.6500 hn        1 VVX      0.313700
     55 H12         6.0900  -10.4640    4.4190 ha        1 VVX      0.152000
     56 H17         7.8520   -7.4150    1.8250 ha        1 VVX      0.137000
     57 H22         5.4300   -9.0080    6.1570 ha        1 VVX      0.161000
     58 H21         6.7020   -8.1660    8.4300 h4        1 VVX      0.166000
     59 H5          8.7250   -6.8190    7.7060 hn        1 VVX      0.298700
     60 H19        10.0110   -5.9950    5.2950 ha        1 VVX      0.133000
     61 H18         9.7320   -6.1640    2.8190 ha        1 VVX      0.132000
@<TRIPOS>BOND
     1    1    2 1   
     2    1   34 1   
     3    1   35 1   
     4    1   36 1   
     5    2    3 1   
     6    2    4 1   
     7    2   37 1   
     8    3   38 1   
     9    3   39 1   
    10    3   40 1   
    11    4    5 1   
    12    4    9 1   
    13    5    6 1   
    14    5   41 1   
    15    5   42 1   
    16    6    7 1   
    17    6   45 1   
    18    6   46 1   
    19    7    8 1   
    20    7   10 1   
    21    8    9 1   
    22    8   47 1   
    23    8   48 1   
    24    9   43 1   
    25    9   44 1   
    26   10   11 1   
    27   10   49 1   
    28   10   50 1   
    29   11   12 1   
    30   11   15 2   
    31   12   13 1   
    32   13   14 2   
    33   13   16 1   
    34   14   15 1   
    35   15   51 1   
    36   16   17 ar  
    37   16   24 ar  
    38   17   18 1   
    39   17   21 ar  
    40   18   19 2   
    41   18   53 1   
    42   19   20 1   
    43   20   21 1   
    44   20   54 1   
    45   21   22 ar  
    46   22   23 ar  
    47   22   55 1   
    48   23   24 ar  
    49   23   25 1   
    50   24   52 1   
    51   25   26 ar  
    52   25   33 ar  
    53   26   27 1   
    54   26   30 ar  
    55   27   28 2   
    56   27   57 1   
    57   28   29 1   
    58   28   58 1   
    59   29   30 1   
    60   29   59 1   
    61   30   31 ar  
    62   31   32 ar  
    63   31   60 1   
    64   32   33 ar  
    65   32   61 1   
    66   33   56 1   
@<TRIPOS>SUBSTRUCTURE
     1 VVX         1 TEMP              0 ****  ****    0 ROOT
