@<TRIPOS>MOLECULE
VWN
   43    46     1     0     0
SMALL
bcc


@<TRIPOS>ATOM
      1 C1         -0.4650    0.1310   -0.6910 cc        1 VWN      0.364600
      2 N2         -1.6280    0.5730   -1.3870 nh        1 VWN     -0.602400
      3 C3         -2.8280    0.6890   -0.5640 c3        1 VWN      0.145300
      4 C4         -3.0290    2.0750    0.0650 c3        1 VWN      0.094900
      5 O5         -2.9350    3.1140   -0.9030 os        1 VWN     -0.412600
      6 C6         -1.7130    3.0740   -1.6350 c3        1 VWN      0.094900
      7 C7         -1.5060    1.7050   -2.2950 c3        1 VWN      0.145300
      8 N8          0.7170    0.8940   -0.7540 nc        1 VWN     -0.686300
      9 C9          1.8050    0.4100   -0.1650 cd        1 VWN      0.510900
     10 N10         1.8610   -0.7900    0.5240 n         1 VWN     -0.471400
     11 C11         0.7040   -1.6010    0.6230 c         1 VWN      0.698700
     12 C12        -0.4920   -1.0850   -0.0230 cd        1 VWN     -0.333200
     13 O13         0.7870   -2.6750    1.2470 o         1 VWN     -0.625500
     14 C14         4.1510    0.4780   -0.9370 cc        1 VWN      0.392800
     15 C15         3.0840    1.2380   -0.2190 c3        1 VWN     -0.135000
     16 N16         4.3850    0.6210   -2.3280 na        1 VWN     -0.153300
     17 N17         4.9850   -0.4110   -0.3550 nd        1 VWN     -0.568100
     18 C18         5.8190   -0.8790   -1.3850 ca        1 VWN      0.065400
     19 C19         5.4530   -0.2320   -2.6340 ca        1 VWN     -0.065200
     20 C20         6.1300   -0.5200   -3.8270 ca        1 VWN     -0.133000
     21 C21         7.1610   -1.4450   -3.7680 ca        1 VWN     -0.107000
     22 C22         7.5240   -2.0770   -2.5630 ca        1 VWN     -0.151000
     23 C23         6.8700   -1.8100   -1.3720 ca        1 VWN     -0.064000
     24 C24         3.6930    1.4860   -3.2230 c3        1 VWN      0.024600
     25 H12        -1.3820   -1.7250    0.0350 ha        1 VWN      0.174000
     26 H31C       -2.8190   -0.0820    0.2530 h1        1 VWN      0.071200
     27 H32C       -3.6960    0.4720   -1.2500 h1        1 VWN      0.071200
     28 H71C       -0.5150    1.6900   -2.8210 h1        1 VWN      0.071200
     29 H72C       -2.3140    1.5550   -3.0690 h1        1 VWN      0.071200
     30 H41C       -2.2800    2.2550    0.8810 h1        1 VWN      0.057700
     31 H42C       -4.0700    2.1680    0.4710 h1        1 VWN      0.057700
     32 H61C       -1.8340    3.8700   -2.4160 h1        1 VWN      0.057700
     33 H62C       -0.8590    3.3260   -0.9540 h1        1 VWN      0.057700
     34 H10         2.7220   -1.1120    0.9140 hn        1 VWN      0.356500
     35 H151        3.4180    1.4580    0.8330 hc        1 VWN      0.098700
     36 H152        2.8930    2.2210   -0.7280 hc        1 VWN      0.098700
     37 H241        2.5880    1.4390   -3.0230 h1        1 VWN      0.057700
     38 H242        3.8920    1.1660   -4.2810 h1        1 VWN      0.057700
     39 H243        4.0420    2.5460   -3.0900 h1        1 VWN      0.057700
     40 H23         7.1570   -2.3080   -0.4350 ha        1 VWN      0.150000
     41 H20         5.8530   -0.0330   -4.7710 ha        1 VWN      0.136000
     42 H21         7.7130   -1.6950   -4.6860 ha        1 VWN      0.134000
     43 H22         8.3500   -2.8040   -2.5760 ha        1 VWN      0.136000
@<TRIPOS>BOND
     1    1    2 1   
     2    1    8 1   
     3    1   12 2   
     4    2    3 1   
     5    2    7 1   
     6    3    4 1   
     7    3   26 1   
     8    3   27 1   
     9    4    5 1   
    10    4   30 1   
    11    4   31 1   
    12    5    6 1   
    13    6    7 1   
    14    6   32 1   
    15    6   33 1   
    16    7   28 1   
    17    7   29 1   
    18    8    9 2   
    19    9   10 1   
    20    9   15 1   
    21   10   11 1   
    22   10   34 1   
    23   11   12 1   
    24   11   13 2   
    25   12   25 1   
    26   14   15 1   
    27   14   16 1   
    28   14   17 2   
    29   15   35 1   
    30   15   36 1   
    31   16   19 1   
    32   16   24 1   
    33   17   18 1   
    34   18   19 ar  
    35   18   23 ar  
    36   19   20 ar  
    37   20   21 ar  
    38   20   41 1   
    39   21   22 ar  
    40   21   42 1   
    41   22   23 ar  
    42   22   43 1   
    43   23   40 1   
    44   24   37 1   
    45   24   38 1   
    46   24   39 1   
@<TRIPOS>SUBSTRUCTURE
     1 VWN         1 TEMP              0 ****  ****    0 ROOT
