@<TRIPOS>MOLECULE
VWN
   43    46     1     0     0
SMALL
bcc


@<TRIPOS>ATOM
      1 C1         -2.1900   -0.8550    0.2470 cc        1 VWN      0.364600
      2 N2         -2.8050   -2.1130   -0.0190 nh        1 VWN     -0.602400
      3 C3         -4.2610   -2.0760   -0.1160 c3        1 VWN      0.145300
      4 C4         -4.7920   -1.8420   -1.5370 c3        1 VWN      0.094900
      5 O5         -4.2110   -2.7410   -2.4740 os        1 VWN     -0.412600
      6 C6         -2.7860   -2.7010   -2.4640 c3        1 VWN      0.094900
      7 C7         -2.2340   -2.9600   -1.0570 c3        1 VWN      0.145300
      8 N8         -1.1720   -0.3820   -0.6050 nc        1 VWN     -0.686300
      9 C9         -0.5630    0.7520   -0.2810 cd        1 VWN      0.510900
     10 N10        -0.8660    1.5200    0.8320 n         1 VWN     -0.471400
     11 C11        -1.8800    1.0980    1.7260 c         1 VWN      0.698700
     12 C12        -2.5510   -0.1470    1.3850 cd        1 VWN     -0.333200
     13 O13        -2.1270    1.8070    2.7170 o         1 VWN     -0.625500
     14 C14         1.8290    1.3410   -0.4710 cc        1 VWN      0.392800
     15 C15         0.5300    1.2750   -1.2060 c3        1 VWN     -0.135000
     16 N16         2.7710    0.2820   -0.4880 na        1 VWN     -0.153300
     17 N17         2.2350    2.3900    0.2780 nd        1 VWN     -0.568100
     18 C18         3.5000    2.0320    0.7760 ca        1 VWN      0.065400
     19 C19         3.8500    0.7060    0.2960 ca        1 VWN     -0.065200
     20 C20         5.0670    0.1050    0.6470 ca        1 VWN     -0.133000
     21 C21         5.9210    0.8250    1.4680 ca        1 VWN     -0.107000
     22 C22         5.5910    2.1100    1.9380 ca        1 VWN     -0.151000
     23 C23         4.3950    2.7250    1.6070 ca        1 VWN     -0.064000
     24 C24         2.6530   -0.9500   -1.1920 c3        1 VWN      0.024600
     25 H12        -3.3210   -0.4850    2.0890 ha        1 VWN      0.174000
     26 H31C       -4.6210   -3.0810    0.2460 h1        1 VWN      0.071200
     27 H32C       -4.6780   -1.2840    0.5630 h1        1 VWN      0.071200
     28 H71C       -1.1150   -2.8730   -1.0730 h1        1 VWN      0.071200
     29 H72C       -2.4980   -4.0160   -0.7580 h1        1 VWN      0.071200
     30 H41C       -5.8900   -2.0660   -1.5810 h1        1 VWN      0.057700
     31 H42C       -4.6020   -0.7860   -1.8640 h1        1 VWN      0.057700
     32 H61C       -2.4820   -3.5240   -3.1610 h1        1 VWN      0.057700
     33 H62C       -2.4360   -1.7110   -2.8580 h1        1 VWN      0.057700
     34 H10        -0.3430    2.3450    1.0370 hn        1 VWN      0.356500
     35 H151        0.6250    0.6160   -2.1100 hc        1 VWN      0.098700
     36 H152        0.2430    2.3040   -1.5610 hc        1 VWN      0.098700
     37 H241        2.8580   -0.7960   -2.2880 h1        1 VWN      0.057700
     38 H242        3.3940   -1.6870   -0.7840 h1        1 VWN      0.057700
     39 H243        1.6150   -1.3620   -1.0710 h1        1 VWN      0.057700
     40 H23         4.1420    3.7280    1.9790 ha        1 VWN      0.150000
     41 H20         5.3320   -0.8970    0.2850 ha        1 VWN      0.136000
     42 H21         6.8850    0.3820    1.7630 ha        1 VWN      0.134000
     43 H22         6.3070    2.6350    2.5890 ha        1 VWN      0.136000
@<TRIPOS>BOND
     1    1    2 1   
     2    1    8 1   
     3    1   12 2   
     4    2    3 1   
     5    2    7 1   
     6    3    4 1   
     7    3   26 1   
     8    3   27 1   
     9    4    5 1   
    10    4   30 1   
    11    4   31 1   
    12    5    6 1   
    13    6    7 1   
    14    6   32 1   
    15    6   33 1   
    16    7   28 1   
    17    7   29 1   
    18    8    9 2   
    19    9   10 1   
    20    9   15 1   
    21   10   11 1   
    22   10   34 1   
    23   11   12 1   
    24   11   13 2   
    25   12   25 1   
    26   14   15 1   
    27   14   16 1   
    28   14   17 2   
    29   15   35 1   
    30   15   36 1   
    31   16   19 1   
    32   16   24 1   
    33   17   18 1   
    34   18   19 ar  
    35   18   23 ar  
    36   19   20 ar  
    37   20   21 ar  
    38   20   41 1   
    39   21   22 ar  
    40   21   42 1   
    41   22   23 ar  
    42   22   43 1   
    43   23   40 1   
    44   24   37 1   
    45   24   38 1   
    46   24   39 1   
@<TRIPOS>SUBSTRUCTURE
     1 VWN         1 TEMP              0 ****  ****    0 ROOT
