@<TRIPOS>MOLECULE
VWN
   43    46     1     0     0
SMALL
bcc


@<TRIPOS>ATOM
      1 C1         -0.4590    0.1700   -0.6560 cc        1 VWN      0.364600
      2 N2         -1.6280    0.5660   -1.3690 nh        1 VWN     -0.603400
      3 C3         -2.8220    0.7300   -0.5450 c3        1 VWN      0.145300
      4 C4         -3.0220    2.1520   -0.0010 c3        1 VWN      0.094900
      5 O5         -2.9380    3.1290   -1.0320 os        1 VWN     -0.412600
      6 C6         -1.7220    3.0460   -1.7700 c3        1 VWN      0.094900
      7 C7         -1.5170    1.6400   -2.3450 c3        1 VWN      0.145300
      8 N8          0.7220    0.9300   -0.7760 nc        1 VWN     -0.686300
      9 C9          1.8150    0.4850   -0.1680 cd        1 VWN      0.510900
     10 N10         1.8790   -0.6700    0.5940 n         1 VWN     -0.471400
     11 C11         0.7260   -1.4760    0.7530 c         1 VWN      0.698700
     12 C12        -0.4780   -1.0030    0.0860 cd        1 VWN     -0.333200
     13 O13         0.8150   -2.5080    1.4410 o         1 VWN     -0.625500
     14 C14         4.1540    0.5100   -0.9620 cc        1 VWN      0.392800
     15 C15         3.0920    1.3100   -0.2830 c3        1 VWN     -0.135000
     16 N16         4.3770    0.5660   -2.3610 na        1 VWN     -0.153300
     17 N17         4.9950   -0.3400   -0.3330 nd        1 VWN     -0.568100
     18 C18         5.8220   -0.8700   -1.3390 ca        1 VWN      0.065400
     19 C19         5.4440   -0.3020   -2.6220 ca        1 VWN     -0.065200
     20 C20         6.1120   -0.6620   -3.8010 ca        1 VWN     -0.133000
     21 C21         7.1450   -1.5790   -3.6930 ca        1 VWN     -0.107000
     22 C22         7.5190   -2.1350   -2.4550 ca        1 VWN     -0.151000
     23 C23         6.8750   -1.7960   -1.2770 ca        1 VWN     -0.064000
     24 C24         3.6760    1.3730   -3.3020 c3        1 VWN      0.024600
     25 H12        -1.3650   -1.6390    0.1910 ha        1 VWN      0.174000
     26 H31C       -3.6950    0.4690   -1.2090 h1        1 VWN      0.071200
     27 H32C       -2.8040    0.0110    0.3190 h1        1 VWN      0.071200
     28 H71C       -2.3300    1.4410   -3.1020 h1        1 VWN      0.071200
     29 H72C       -0.5300    1.5950   -2.8780 h1        1 VWN      0.071200
     30 H41C       -4.0600    2.2680    0.4070 h1        1 VWN      0.057700
     31 H42C       -2.2670    2.3830    0.7960 h1        1 VWN      0.057700
     32 H61C       -1.8500    3.7920   -2.5970 h1        1 VWN      0.057700
     33 H62C       -0.8630    3.3420   -1.1130 h1        1 VWN      0.057700
     34 H10         2.7440   -0.9660    0.9960 hn        1 VWN      0.356500
     35 H151        3.4340    1.5950    0.7510 hc        1 VWN      0.098700
     36 H152        2.8940    2.2590   -0.8510 hc        1 VWN      0.098700
     37 H241        3.8670    0.9900   -4.3390 h1        1 VWN      0.057700
     38 H242        2.5730    1.3360   -3.0900 h1        1 VWN      0.057700
     39 H243        4.0230    2.4410   -3.2370 h1        1 VWN      0.057700
     40 H23         7.1700   -2.2350   -0.3130 ha        1 VWN      0.150000
     41 H20         5.8260   -0.2340   -4.7710 ha        1 VWN      0.136000
     42 H21         7.6910   -1.8850   -4.5990 ha        1 VWN      0.134000
     43 H22         8.3470   -2.8600   -2.4290 ha        1 VWN      0.136000
@<TRIPOS>BOND
     1    1    2 1   
     2    1    8 1   
     3    1   12 2   
     4    2    3 1   
     5    2    7 1   
     6    3    4 1   
     7    3   26 1   
     8    3   27 1   
     9    4    5 1   
    10    4   30 1   
    11    4   31 1   
    12    5    6 1   
    13    6    7 1   
    14    6   32 1   
    15    6   33 1   
    16    7   28 1   
    17    7   29 1   
    18    8    9 2   
    19    9   10 1   
    20    9   15 1   
    21   10   11 1   
    22   10   34 1   
    23   11   12 1   
    24   11   13 2   
    25   12   25 1   
    26   14   15 1   
    27   14   16 1   
    28   14   17 2   
    29   15   35 1   
    30   15   36 1   
    31   16   19 1   
    32   16   24 1   
    33   17   18 1   
    34   18   19 ar  
    35   18   23 ar  
    36   19   20 ar  
    37   20   21 ar  
    38   20   41 1   
    39   21   22 ar  
    40   21   42 1   
    41   22   23 ar  
    42   22   43 1   
    43   23   40 1   
    44   24   37 1   
    45   24   38 1   
    46   24   39 1   
@<TRIPOS>SUBSTRUCTURE
     1 VWN         1 TEMP              0 ****  ****    0 ROOT
