@<TRIPOS>MOLECULE
VWN
   43    46     1     0     0
SMALL
bcc


@<TRIPOS>ATOM
      1 C1         -0.4620    0.1080   -0.6880 cc        1 VWN      0.364600
      2 N2         -1.6300    0.5270   -1.3890 nh        1 VWN     -0.602400
      3 C3         -2.8320    0.6360   -0.5670 c3        1 VWN      0.145300
      4 C4         -3.0510    2.0260    0.0460 c3        1 VWN      0.094900
      5 O5         -2.9710    3.0550   -0.9330 os        1 VWN     -0.412600
      6 C6         -1.7480    3.0230   -1.6650 c3        1 VWN      0.094900
      7 C7         -1.5240    1.6500   -2.3090 c3        1 VWN      0.145300
      8 N8          0.7110    0.8860   -0.7600 nc        1 VWN     -0.686300
      9 C9          1.8050    0.4230   -0.1660 cd        1 VWN      0.510900
     10 N10         1.8760   -0.7680    0.5370 ns        1 VWN     -0.471400
     11 C11         0.7310   -1.5930    0.6460 c         1 VWN      0.698700
     12 C12        -0.4730   -1.1010   -0.0060 cd        1 VWN     -0.333200
     13 O13         0.8280   -2.6590    1.2810 o         1 VWN     -0.625500
     14 C14         4.1500    0.5140   -0.9380 cc        1 VWN      0.392800
     15 C15         3.0730    1.2670   -0.2290 c3        1 VWN     -0.135000
     16 N16         4.3820    0.6430   -2.3310 na        1 VWN     -0.153300
     17 N17         4.9960   -0.3570   -0.3460 nd        1 VWN     -0.568100
     18 C18         5.8360   -0.8260   -1.3710 ca        1 VWN      0.065400
     19 C19         5.4610   -0.1990   -2.6270 ca        1 VWN     -0.065200
     20 C20         6.1420   -0.4910   -3.8160 ca        1 VWN     -0.133000
     21 C21         7.1850   -1.4010   -3.7470 ca        1 VWN     -0.107000
     22 C22         7.5560   -2.0140   -2.5350 ca        1 VWN     -0.151000
     23 C23         6.8990   -1.7420   -1.3470 ca        1 VWN     -0.064000
     24 C24         3.6790    1.4880   -3.2360 c3        1 VWN      0.024600
     25 H12        -1.3540   -1.7510    0.0590 ha        1 VWN      0.174000
     26 H31C       -3.6960    0.4000   -1.2500 h1        1 VWN      0.071200
     27 H32C       -2.8120   -0.1250    0.2590 h1        1 VWN      0.071200
     28 H71C       -2.3290    1.4810   -3.0810 h1        1 VWN      0.071200
     29 H72C       -0.5320    1.6430   -2.8360 h1        1 VWN      0.071200
     30 H41C       -4.0930    2.1100    0.4520 h1        1 VWN      0.057700
     31 H42C       -2.3050    2.2250    0.8600 h1        1 VWN      0.057700
     32 H61C       -0.8980    3.2950   -0.9870 h1        1 VWN      0.057700
     33 H62C       -1.8790    3.8090   -2.4540 h1        1 VWN      0.057700
     34 H10         2.7410   -1.0740    0.9300 hn        1 VWN      0.356500
     35 H151        3.4040    1.5040    0.8210 hc        1 VWN      0.098700
     36 H152        2.8680    2.2420   -0.7500 hc        1 VWN      0.098700
     37 H241        4.0130    2.5550   -3.1150 h1        1 VWN      0.057700
     38 H242        3.8820    1.1590   -4.2900 h1        1 VWN      0.057700
     39 H243        2.5740    1.4290   -3.0350 h1        1 VWN      0.057700
     40 H23         7.1930   -2.2260   -0.4040 ha        1 VWN      0.150000
     41 H20         5.8590   -0.0190   -4.7660 ha        1 VWN      0.136000
     42 H21         7.7410   -1.6550   -4.6620 ha        1 VWN      0.134000
     43 H22         8.3930   -2.7300   -2.5390 ha        1 VWN      0.136000
@<TRIPOS>BOND
     1    1    2 1   
     2    1    8 1   
     3    1   12 2   
     4    2    3 1   
     5    2    7 1   
     6    3    4 1   
     7    3   26 1   
     8    3   27 1   
     9    4    5 1   
    10    4   30 1   
    11    4   31 1   
    12    5    6 1   
    13    6    7 1   
    14    6   32 1   
    15    6   33 1   
    16    7   28 1   
    17    7   29 1   
    18    8    9 2   
    19    9   10 1   
    20    9   15 1   
    21   10   11 1   
    22   10   34 1   
    23   11   12 1   
    24   11   13 2   
    25   12   25 1   
    26   14   15 1   
    27   14   16 1   
    28   14   17 2   
    29   15   35 1   
    30   15   36 1   
    31   16   19 1   
    32   16   24 1   
    33   17   18 1   
    34   18   19 ar  
    35   18   23 ar  
    36   19   20 ar  
    37   20   21 ar  
    38   20   41 1   
    39   21   22 ar  
    40   21   42 1   
    41   22   23 ar  
    42   22   43 1   
    43   23   40 1   
    44   24   37 1   
    45   24   38 1   
    46   24   39 1   
@<TRIPOS>SUBSTRUCTURE
     1 VWN         1 TEMP              0 ****  ****    0 ROOT
