@<TRIPOS>MOLECULE
VWS
   36    38     1     0     0
SMALL
bcc


@<TRIPOS>ATOM
      1 CL1         0.6010   -2.1760   -1.7340 cl        1 VWS     -0.025400
      2 C5          2.0510   -1.5620   -1.1330 ca        1 VWS      0.121400
      3 C4          2.6790   -2.1700   -0.0440 ca        1 VWS     -0.142000
      4 C3          3.8770   -1.6490    0.4360 ca        1 VWS      0.039500
      5 C6          2.6300   -0.4290   -1.7440 ca        1 VWS     -0.142000
      6 C2          3.8270    0.0650   -1.2710 ca        1 VWS      0.039500
      7 C1          4.4890   -0.5230   -0.1620 ca        1 VWS     -0.546500
      8 S1          5.8310    0.1140    0.3950 sy        1 VWS      1.474200
      9 O1          6.1410    1.3680   -0.1200 o         1 VWS     -0.595300
     10 O2          6.1230   -0.1490    1.7250 o         1 VWS     -0.595300
     11 N1          7.2840   -0.8770   -0.4110 n4        1 VWS     -0.551300
     12 C12         6.9240   -1.9590   -1.3070 ca        1 VWS     -0.093400
     13 C7          7.3030   -1.9190   -2.6710 ca        1 VWS     -0.122000
     14 C8          6.9350   -2.9320   -3.5520 ca        1 VWS     -0.110000
     15 C11         6.1960   -3.0400   -0.7800 ca        1 VWS     -0.060000
     16 C10         5.7640   -4.0110   -1.6660 ca        1 VWS     -0.060800
     17 C13         4.8860   -5.1530   -1.5170 cc        1 VWS     -0.166400
     18 C15         4.1110   -5.4270   -0.2530 c         1 VWS      0.941800
     19 O4          3.4670   -6.4990   -0.1560 o         1 VWS     -0.824800
     20 O5          4.1300   -4.5070    0.6250 o         1 VWS     -0.824800
     21 C9          6.1580   -3.9690   -3.0420 ca        1 VWS      0.082100
     22 O3          5.6220   -5.0530   -3.7150 os        1 VWS     -0.210200
     23 C14         4.8360   -5.7610   -2.7510 cd        1 VWS      0.073900
     24 C16         4.1500   -6.9540   -3.2450 c3        1 VWS     -0.052900
     25 H1          2.2940   -3.1070    0.4130 ha        1 VWS      0.197500
     26 H2          4.3480   -2.1640    1.3000 ha        1 VWS      0.177500
     27 H3          2.1310    0.0500   -2.6010 ha        1 VWS      0.197500
     28 H4          4.2820    0.9490   -1.7550 ha        1 VWS      0.177500
     29 H5          7.8430   -1.2710    0.3480 hn        1 VWS      0.442300
     30 H6          7.9000   -1.0770   -3.0570 ha        1 VWS      0.134000
     31 H7          7.2400   -2.9080   -4.6070 ha        1 VWS      0.160000
     32 H8          5.9280   -3.1620    0.2870 ha        1 VWS      0.198000
     33 H10         4.8920   -7.7190   -3.5860 hc        1 VWS      0.074367
     34 H11         3.4810   -6.7000   -4.1040 hc        1 VWS      0.074367
     35 H12         3.5410   -7.3760   -2.3980 hc        1 VWS      0.074367
     36 H121        7.8740   -0.2150   -0.9150 hn        1 VWS      0.442300
@<TRIPOS>BOND
     1    1    2 1   
     2    2    3 ar  
     3    2    5 ar  
     4    3    4 ar  
     5    3   25 1   
     6    4    7 ar  
     7    4   26 1   
     8    5    6 ar  
     9    5   27 1   
    10    6    7 ar  
    11    6   28 1   
    12    7    8 1   
    13    8    9 2   
    14    8   10 2   
    15    8   11 1   
    16   11   12 1   
    17   11   29 1   
    18   11   36 1   
    19   12   13 ar  
    20   12   15 ar  
    21   13   14 ar  
    22   13   30 1   
    23   14   21 ar  
    24   14   31 1   
    25   15   16 ar  
    26   15   32 1   
    27   16   17 1   
    28   16   21 ar  
    29   17   18 1   
    30   17   23 2   
    31   18   19 1   
    32   18   20 1   
    33   21   22 1   
    34   22   23 1   
    35   23   24 1   
    36   24   33 1   
    37   24   34 1   
    38   24   35 1   
@<TRIPOS>SUBSTRUCTURE
     1 VWS         1 TEMP              0 ****  ****    0 ROOT
