@<TRIPOS>MOLECULE
VWS
   35    37     1     0     0
SMALL
bcc


@<TRIPOS>ATOM
      1 CL1         4.0270   -3.6920    0.4030 cl        1 VWS     -0.097400
      2 C5          3.5090   -2.0900    0.1680 ca        1 VWS      0.074400
      3 C4          4.0000   -1.3560   -0.9180 ca        1 VWS     -0.154000
      4 C3          3.5720   -0.0450   -1.1020 ca        1 VWS     -0.004500
      5 C6          2.5980   -1.5170    1.0600 ca        1 VWS     -0.154000
      6 C2          2.1850   -0.2020    0.8590 ca        1 VWS     -0.004500
      7 C1          2.6670    0.5510   -0.2160 ca        1 VWS     -0.368500
      8 S1          2.1870    2.1630   -0.4350 sy        1 VWS      1.507200
      9 O1          2.3260    2.8290    0.8020 o         1 VWS     -0.664800
     10 O2          2.9480    2.7090   -1.5030 o         1 VWS     -0.664800
     11 N1          0.6540    2.0640   -0.9100 nh        1 VWS     -0.777500
     12 C12        -0.4420    1.6090   -0.1390 ca        1 VWS      0.076600
     13 C7         -0.5870    2.0270    1.2090 ca        1 VWS     -0.169000
     14 C8         -1.6580    1.6010    1.9910 ca        1 VWS     -0.130000
     15 C11        -1.3950    0.7560   -0.7350 ca        1 VWS     -0.079000
     16 C10        -2.4700    0.3350    0.0330 ca        1 VWS     -0.057800
     17 C13        -3.6160   -0.5220   -0.2270 cc        1 VWS     -0.148400
     18 C15        -3.9130   -1.2050   -1.5370 c         1 VWS      0.933800
     19 O4         -3.1060   -1.0160   -2.4910 o         1 VWS     -0.828300
     20 O5         -4.9470   -1.9270   -1.6110 o         1 VWS     -0.828300
     21 C9         -2.5880    0.7610    1.3940 ca        1 VWS      0.042100
     22 O3         -3.7300    0.2170    1.9720 os        1 VWS     -0.236200
     23 C14        -4.3370   -0.5660    0.9450 cd        1 VWS      0.033900
     24 C16        -5.5750   -1.2480    1.3220 c3        1 VWS     -0.042900
     25 H1          4.7100   -1.8110   -1.6230 ha        1 VWS      0.150500
     26 H2          3.9560    0.5410   -1.9570 ha        1 VWS      0.160500
     27 H3          2.2000   -2.0980    1.9060 ha        1 VWS      0.150500
     28 H4          1.4590    0.2550    1.5580 ha        1 VWS      0.160500
     29 H5          0.4120    2.1980   -1.8680 hn        1 VWS      0.462800
     30 H6          0.1580    2.7050    1.6590 ha        1 VWS      0.151000
     31 H7         -1.7620    1.9250    3.0330 ha        1 VWS      0.135000
     32 H8         -1.3350    0.4100   -1.7830 ha        1 VWS      0.190000
     33 H10        -5.3960   -1.9500    2.1730 hc        1 VWS      0.060033
     34 H11        -6.3530   -0.5070    1.6340 hc        1 VWS      0.060033
     35 H12        -5.9360   -1.8220    0.4250 hc        1 VWS      0.060033
@<TRIPOS>BOND
     1    1    2 1   
     2    2    3 ar  
     3    2    5 ar  
     4    3    4 ar  
     5    3   25 1   
     6    4    7 ar  
     7    4   26 1   
     8    5    6 ar  
     9    5   27 1   
    10    6    7 ar  
    11    6   28 1   
    12    7    8 1   
    13    8    9 2   
    14    8   10 2   
    15    8   11 1   
    16   11   12 1   
    17   11   29 1   
    18   12   13 ar  
    19   12   15 ar  
    20   13   14 ar  
    21   13   30 1   
    22   14   21 ar  
    23   14   31 1   
    24   15   16 ar  
    25   15   32 1   
    26   16   17 1   
    27   16   21 ar  
    28   17   18 1   
    29   17   23 2   
    30   18   19 1   
    31   18   20 1   
    32   21   22 1   
    33   22   23 1   
    34   23   24 1   
    35   24   33 1   
    36   24   34 1   
    37   24   35 1   
@<TRIPOS>SUBSTRUCTURE
     1 VWS         1 TEMP              0 ****  ****    0 ROOT
