@<TRIPOS>MOLECULE
VWS
   35    37     1     0     0
SMALL
bcc


@<TRIPOS>ATOM
      1 Cl1         0.1260    0.2460    0.1820 cl        1 VWS     -0.097400
      2 C5          1.8230    0.1450    0.1570 ca        1 VWS      0.074400
      3 C4          2.5480    0.4020    1.3260 ca        1 VWS     -0.153500
      4 C3          3.9370    0.3200    1.2960 ca        1 VWS     -0.004500
      5 C6          2.4810   -0.1920   -1.0300 ca        1 VWS     -0.153500
      6 C2          3.8720   -0.2660   -1.0380 ca        1 VWS     -0.004500
      7 C1          4.6170   -0.0080    0.1170 ca        1 VWS     -0.368500
      8 S1          6.3120   -0.0660    0.0910 sy        1 VWS      1.507200
      9 O1          6.7550    0.6810   -1.0210 o         1 VWS     -0.664800
     10 O2          6.7880    0.3870    1.3500 o         1 VWS     -0.664800
     11 N1          6.6570   -1.6310   -0.0430 nu        1 VWS     -0.777500
     12 C12         6.3900   -2.4620   -1.1560 ca        1 VWS      0.076600
     13 C7          6.6500   -1.9980   -2.4720 ca        1 VWS     -0.169000
     14 C8          6.4030   -2.7960   -3.5860 ca        1 VWS     -0.130000
     15 C11         5.8840   -3.7620   -0.9380 ca        1 VWS     -0.079000
     16 C10         5.6450   -4.5670   -2.0420 ca        1 VWS     -0.057800
     17 C13         5.1390   -5.9210   -2.2070 cc        1 VWS     -0.148400
     18 C15         4.7300   -6.8390   -1.0850 c         1 VWS      0.933800
     19 O4          4.3020   -7.9900   -1.3850 o         1 VWS     -0.828300
     20 O5          4.8370   -6.4050    0.0970 o         1 VWS     -0.828300
     21 C9          5.9040   -4.0720   -3.3580 ca        1 VWS      0.042100
     22 O3          5.5880   -5.0380   -4.3080 os        1 VWS     -0.236200
     23 C14         5.1210   -6.1610   -3.5620 cd        1 VWS      0.033900
     24 C16         4.7230   -7.3230   -4.3570 c3        1 VWS     -0.042900
     25 H1          2.0290    0.6590    2.2600 ha        1 VWS      0.150500
     26 H2          4.5170    0.5210    2.2150 ha        1 VWS      0.160500
     27 H3          1.9100   -0.4080   -1.9450 ha        1 VWS      0.150500
     28 H4          4.3980   -0.5380   -1.9720 ha        1 VWS      0.160500
     29 H5          6.9720   -2.1480    0.7490 hn        1 VWS      0.462800
     30 H6          7.0570   -0.9850   -2.6280 ha        1 VWS      0.151000
     31 H7          6.6020   -2.4300   -4.6010 ha        1 VWS      0.135000
     32 H8          5.6760   -4.1750    0.0660 ha        1 VWS      0.190000
     33 H10         4.3790   -8.1230   -3.6460 hc        1 VWS      0.060033
     34 H11         5.5850   -7.7010   -4.9610 hc        1 VWS      0.060033
     35 H12         3.8920   -7.0570   -5.0560 hc        1 VWS      0.060033
@<TRIPOS>BOND
     1    1    2 1   
     2    2    3 ar  
     3    2    5 ar  
     4    3    4 ar  
     5    3   25 1   
     6    4    7 ar  
     7    4   26 1   
     8    5    6 ar  
     9    5   27 1   
    10    6    7 ar  
    11    6   28 1   
    12    7    8 1   
    13    8    9 2   
    14    8   10 2   
    15    8   11 1   
    16   11   12 1   
    17   11   29 1   
    18   12   13 ar  
    19   12   15 ar  
    20   13   14 ar  
    21   13   30 1   
    22   14   21 ar  
    23   14   31 1   
    24   15   16 ar  
    25   15   32 1   
    26   16   17 1   
    27   16   21 ar  
    28   17   18 1   
    29   17   23 2   
    30   18   19 1   
    31   18   20 1   
    32   21   22 1   
    33   22   23 1   
    34   23   24 1   
    35   24   33 1   
    36   24   34 1   
    37   24   35 1   
@<TRIPOS>SUBSTRUCTURE
     1 VWS         1 TEMP              0 ****  ****    0 ROOT
