@<TRIPOS>MOLECULE
VWW
   58    59     1     0     0
SMALL
bcc


@<TRIPOS>ATOM
      1 N           4.1450    4.0610   -0.2800 n3        1 VWW     -0.892800
      2 CA          4.2940    2.7490    0.3360 c3        1 VWW      0.021500
      3 C           5.6380    2.0250   -0.0040 c         1 VWW      0.889600
      4 O           6.5510    2.6990   -0.5620 o         1 VWW     -0.848800
      5 CB          3.1370    1.7990    0.0240 c3        1 VWW     -0.063400
      6 CG          1.8210    2.2810    0.5950 c3        1 VWW     -0.147400
      7 CD          0.7980    1.1560    0.6340 c         1 VWW      0.663100
      8 OE1         0.4030    0.6930    1.7240 o         1 VWW     -0.633100
      9 OXT         5.7560    0.8100    0.3230 o         1 VWW     -0.848800
     10 N1          0.4150    0.6230   -0.5900 n         1 VWW     -0.537900
     11 CA1        -0.6310   -0.3450   -0.8030 c3        1 VWW      0.049700
     12 CB1        -0.6000   -1.5400    0.1500 c3        1 VWW     -0.018300
     13 SG          0.7420   -2.6540   -0.1570 ss        1 VWW     -0.335200
     14 CD1         2.0220   -2.1190    0.9610 c3        1 VWW      0.049000
     15 CE          3.2650   -2.8550    0.6440 ca        1 VWW     -0.076300
     16 CZ1         4.4540   -2.1610    0.3840 ca        1 VWW     -0.113000
     17 CZ2         3.2670   -4.2570    0.6260 ca        1 VWW     -0.113000
     18 CT1         5.6260   -2.8680    0.1110 ca        1 VWW     -0.139000
     19 CT2         4.4400   -4.9550    0.3500 ca        1 VWW     -0.139000
     20 CH          5.6220   -4.2610    0.0940 ca        1 VWW     -0.150000
     21 C1         -2.0590    0.2840   -0.7910 c         1 VWW      0.621100
     22 O1         -2.2560    1.4330   -0.3370 o         1 VWW     -0.644100
     23 N2         -3.0610   -0.4720   -1.3310 n         1 VWW     -0.531900
     24 CA2        -4.4270   -0.0200   -1.4830 c3        1 VWW      0.003000
     25 CB2        -5.2580   -0.2840   -0.2490 ca        1 VWW     -0.054300
     26 CG1        -5.1350    0.5680    0.8560 ca        1 VWW     -0.112500
     27 CD11       -5.9110    0.3610    1.9940 ca        1 VWW     -0.154500
     28 CE1        -6.8140   -0.7000    2.0420 ca        1 VWW     -0.156000
     29 CD2        -6.9340   -1.5570    0.9490 ca        1 VWW     -0.154500
     30 CG2        -6.1570   -1.3550   -0.1920 ca        1 VWW     -0.112500
     31 C2         -5.0960   -0.6830   -2.7480 c         1 VWW      0.914600
     32 O2         -4.8110   -1.8840   -3.0130 o         1 VWW     -0.828800
     33 OXT1       -5.8750    0.0440   -3.4160 o         1 VWW     -0.828800
     34 H           5.0430    4.5160   -0.2320 hn        1 VWW      0.331300
     35 H2          3.9440    3.9360   -1.2570 hn        1 VWW      0.331300
     36 HA          4.3130    2.9260    1.4520 h1        1 VWW      0.043700
     37 HB2         3.0460    1.6570   -1.0840 hc        1 VWW      0.052200
     38 HB3         3.4060    0.8020    0.4680 hc        1 VWW      0.052200
     39 HG2         1.9670    2.6380    1.6490 hc        1 VWW      0.066700
     40 HG3         1.4220    3.1410   -0.0020 hc        1 VWW      0.066700
     41 H1          0.6080    1.1900   -1.3850 hn        1 VWW      0.307500
     42 HA1        -0.4590   -0.7450   -1.8540 h1        1 VWW      0.073700
     43 HB21       -0.5990   -1.1950    1.2140 h1        1 VWW      0.099200
     44 HB31       -1.5140   -2.1650   -0.0150 h1        1 VWW      0.099200
     45 HD2         2.1710   -1.0120    0.8810 h1        1 VWW      0.077700
     46 HD3         1.6970   -2.3360    2.0100 h1        1 VWW      0.077700
     47 HZ1         4.4920   -1.0510    0.3940 ha        1 VWW      0.166000
     48 HZ2         2.3300   -4.8010    0.8200 ha        1 VWW      0.166000
     49 HT1         6.5510   -2.3030   -0.0890 ha        1 VWW      0.129000
     50 HT2         4.4310   -6.0540    0.3330 ha        1 VWW      0.129000
     51 HH          6.5470   -4.8130   -0.1240 ha        1 VWW      0.108000
     52 H3         -2.8680   -1.3640   -1.7320 hn        1 VWW      0.330500
     53 HA2        -4.4130    1.0980   -1.6530 h1        1 VWW      0.073700
     54 HG1        -4.4040    1.3940    0.8160 ha        1 VWW      0.163000
     55 HD1        -5.8060    1.0340    2.8570 ha        1 VWW      0.108500
     56 HE         -7.4270   -0.8620    2.9390 ha        1 VWW      0.101000
     57 HD21       -7.6410   -2.3970    0.9840 ha        1 VWW      0.108500
     58 HG21       -6.2440   -2.0310   -1.0610 ha        1 VWW      0.163000
@<TRIPOS>BOND
     1    1    2 1   
     2    1   34 1   
     3    1   35 1   
     4    2    3 1   
     5    2    5 1   
     6    2   36 1   
     7    3    4 1   
     8    3    9 1   
     9    5    6 1   
    10    5   37 1   
    11    5   38 1   
    12    6    7 1   
    13    6   39 1   
    14    6   40 1   
    15    7    8 2   
    16    7   10 1   
    17   10   11 1   
    18   10   41 1   
    19   11   12 1   
    20   11   21 1   
    21   11   42 1   
    22   12   13 1   
    23   12   43 1   
    24   12   44 1   
    25   13   14 1   
    26   14   15 1   
    27   14   45 1   
    28   14   46 1   
    29   15   16 ar  
    30   15   17 ar  
    31   16   18 ar  
    32   16   47 1   
    33   17   19 ar  
    34   17   48 1   
    35   18   20 ar  
    36   18   49 1   
    37   19   20 ar  
    38   19   50 1   
    39   20   51 1   
    40   21   22 2   
    41   21   23 1   
    42   23   24 1   
    43   23   52 1   
    44   24   25 1   
    45   24   31 1   
    46   24   53 1   
    47   25   26 ar  
    48   25   30 ar  
    49   26   27 ar  
    50   26   54 1   
    51   27   28 ar  
    52   27   55 1   
    53   28   29 ar  
    54   28   56 1   
    55   29   30 ar  
    56   29   57 1   
    57   30   58 1   
    58   31   32 1   
    59   31   33 1   
@<TRIPOS>SUBSTRUCTURE
     1 VWW         1 TEMP              0 ****  ****    0 ROOT
