@<TRIPOS>MOLECULE
VX
   15    14     1     0     0
SMALL
bcc


@<TRIPOS>ATOM
      1 P1          1.1930    0.9680   -3.6560 p5        1 VX       1.336600
      2 O1          0.3710    1.0630   -2.4250 o         1 VX      -0.868500
      3 O2          0.5390   -0.2920   -4.5430 os        1 VX      -0.587200
      4 C1          0.8480    2.2410   -4.7100 c3        1 VX      -0.363300
      5 C2          0.6970   -1.5030   -3.8690 c3        1 VX       0.166400
      6 C3          0.1020   -2.6310   -4.6840 c3        1 VX      -0.089100
      7 H1          0.1950    2.9970   -4.2200 hc        1 VX       0.057033
      8 H2          1.7810    2.7490   -5.0380 hc        1 VX       0.057033
      9 H3          0.3210    1.8810   -5.6210 hc        1 VX       0.057033
     10 H21         1.7980   -1.6770   -3.6970 h1        1 VX       0.024700
     11 H22         0.1880   -1.4260   -2.8670 h1        1 VX       0.024700
     12 H31         0.2290   -3.5990   -4.1450 hc        1 VX       0.017700
     13 H32        -0.9860   -2.4500   -4.8570 hc        1 VX       0.017700
     14 H33         0.6050   -2.6980   -5.6770 hc        1 VX       0.017700
     15 O3          2.6510    0.7080   -3.6020 o         1 VX      -0.868500
@<TRIPOS>BOND
     1    1    2 1   
     2    1    3 1   
     3    1    4 1   
     4    1   15 1   
     5    3    5 1   
     6    4    7 1   
     7    4    8 1   
     8    4    9 1   
     9    5    6 1   
    10    5   10 1   
    11    5   11 1   
    12    6   12 1   
    13    6   13 1   
    14    6   14 1   
@<TRIPOS>SUBSTRUCTURE
     1 VX          1 TEMP              0 ****  ****    0 ROOT
