@<TRIPOS>MOLECULE
VX
   15    12     1     0     0
SMALL
bcc


@<TRIPOS>ATOM
      1 P1          0.3270   -0.6940   -0.4490 p3        1 VX       2.379000
      2 O1          1.6740   -0.0960   -0.4360 o         1 VX      -1.126000
      3 O2         -0.5310   -0.5940    0.7490 o         1 VX      -1.126000
      4 C1         -0.8080    1.6970   -1.3850 c3        1 VX      -0.307000
      5 C2         -2.7280   -0.6860    3.1410 c2        1 VX      -0.234500
      6 C3         -2.7290   -0.1660    4.3610 c2        1 VX      -0.234500
      7 H1          0.1320    1.6470   -0.7910 hc        1 VX       0.077250
      8 H2         -0.6090    2.2560   -2.3280 hc        1 VX       0.077250
      9 H3         -1.5820    2.2410   -0.7970 hc        1 VX       0.077250
     10 H21        -1.1920    0.6830   -1.6420 hc        1 VX       0.077250
     11 H22        -1.8910   -0.5700    2.4230 ha        1 VX       0.116500
     12 H31        -3.5740   -1.2750    2.7600 ha        1 VX       0.116500
     13 H32        -3.5630   -0.2860    5.0640 ha        1 VX       0.116500
     14 H33        -1.8880    0.4230    4.7500 ha        1 VX       0.116500
     15 O3         -0.1530   -1.4330   -1.6300 o         1 VX      -1.126000
@<TRIPOS>BOND
     1    1    2 1   
     2    1    3 1   
     3    1   15 1   
     4    4    7 1   
     5    4    8 1   
     6    4    9 1   
     7    4   10 1   
     8    5    6 1   
     9    5   11 1   
    10    5   12 1   
    11    6   13 1   
    12    6   14 1   
@<TRIPOS>SUBSTRUCTURE
     1 VX          1 TEMP              0 ****  ****    0 ROOT
