@<TRIPOS>MOLECULE
VX
   15    12     1     0     0
SMALL
bcc


@<TRIPOS>ATOM
      1 P1          1.1850   -1.7150   -0.1890 p3        1 VX       2.374000
      2 O1          2.0270   -1.3940   -1.3530 o         1 VX      -1.122333
      3 O2          0.1130   -0.7850    0.2210 o         1 VX      -1.122333
      4 C1         -1.5440    2.0930   -0.2970 c3        1 VX      -0.286000
      5 C2         -2.2080   -0.4950    2.4880 c2        1 VX      -0.235000
      6 C3         -3.1690    0.3440    2.8530 c2        1 VX      -0.235000
      7 H1         -0.8530    2.9600   -0.2180 hc        1 VX       0.071000
      8 H2         -2.0200    2.0930   -1.3010 hc        1 VX       0.071000
      9 H3         -2.3290    2.1740    0.4850 hc        1 VX       0.071000
     10 H21        -0.9720    1.1430   -0.1520 hc        1 VX       0.071000
     11 H22        -1.5350   -0.3210    1.6250 ha        1 VX       0.116500
     12 H31        -2.0130   -1.4330    3.0260 ha        1 VX       0.116500
     13 H32        -3.8300    0.1620    3.7100 ha        1 VX       0.116500
     14 H33        -3.3670    1.2810    2.3170 ha        1 VX       0.116500
     15 O3          1.4010   -2.9570    0.5720 o         1 VX      -1.122333
@<TRIPOS>BOND
     1    1    2 1   
     2    1    3 1   
     3    1   15 1   
     4    4    7 1   
     5    4    8 1   
     6    4    9 1   
     7    4   10 1   
     8    5    6 1   
     9    5   11 1   
    10    5   12 1   
    11    6   13 1   
    12    6   14 1   
@<TRIPOS>SUBSTRUCTURE
     1 VX          1 TEMP              0 ****  ****    0 ROOT
