@<TRIPOS>MOLECULE
VX1
   35    38     1     0     0
SMALL
bcc


@<TRIPOS>ATOM
      1 N1          0.1840   -0.9150    0.5230 n4        1 VX1     -0.815300
      2 C2          1.5610   -0.3670    0.3240 ca        1 VX1      0.692900
      3 N3          2.1560    0.1740    1.4330 nb        1 VX1     -0.672000
      4 C4          3.4000    0.6590    1.2230 ca        1 VX1      0.460200
      5 C5          4.0320    0.6050   -0.0280 ca        1 VX1     -0.300600
      6 C6          3.3290    0.0140   -1.1150 cp        1 VX1      0.562800
      7 N7          2.0670   -0.4760   -0.9430 nb        1 VX1     -0.686000
      8 C8          3.9620   -0.0750   -2.4330 cp        1 VX1     -0.227500
      9 C9          5.3790   -0.3390   -2.4740 ca        1 VX1     -0.112000
     10 C10         6.0670   -0.4070   -3.6450 ca        1 VX1     -0.066000
     11 C11         5.3550   -0.2070   -4.8720 ca        1 VX1     -0.067000
     12 N12         5.7680   -0.1900   -6.1620 nc        1 VX1     -0.092500
     13 O13         4.7240    0.0350   -6.9290 os        1 VX1      0.038400
     14 C14         3.5420    0.1830   -6.1790 cc        1 VX1      0.151900
     15 C15         2.3310    0.4380   -6.9080 ca        1 VX1     -0.079800
     16 C16         2.3890    0.9280   -8.2250 ca        1 VX1     -0.076500
     17 C17         1.2190    1.1850   -8.9310 ca        1 VX1     -0.130500
     18 C18        -0.0230    0.9480   -8.3290 ca        1 VX1      0.049400
     19 CL19       -1.4500    1.2600   -9.1840 cl        1 VX1     -0.053400
     20 C20        -0.0910    0.4490   -7.0220 ca        1 VX1     -0.130500
     21 C21         1.0800    0.1950   -6.3170 ca        1 VX1     -0.076500
     22 C22         3.9000    0.0370   -4.8310 ca        1 VX1     -0.186000
     23 C23         3.2330    0.0950   -3.5880 ca        1 VX1      0.030000
     24 HN1        -0.4780   -0.3640   -0.0350 hn        1 VX1      0.479800
     25 HN1A        0.1620   -1.8940    0.2110 hn        1 VX1      0.479800
     26 H4          3.8890    1.1060    2.1130 h4        1 VX1      0.075100
     27 H5          5.0410    1.0210   -0.1730 ha        1 VX1      0.199000
     28 H9          5.9050   -0.5060   -1.5200 ha        1 VX1      0.140000
     29 H10         7.1480   -0.6130   -3.6790 ha        1 VX1      0.172000
     30 H16         3.3690    1.1090   -8.6970 ha        1 VX1      0.148000
     31 H17         1.2730    1.5720   -9.9620 ha        1 VX1      0.160500
     32 H20        -1.0690    0.2530   -6.5560 ha        1 VX1      0.160500
     33 H21         1.0240   -0.2130   -5.2980 ha        1 VX1      0.148000
     34 H23         2.1510    0.2950   -3.5680 ha        1 VX1      0.145000
     35 H13        -0.0740   -0.8620    1.5170 hn        1 VX1      0.479800
@<TRIPOS>BOND
     1    1    2 1   
     2    1   24 1   
     3    1   25 1   
     4    1   35 1   
     5    2    3 ar  
     6    2    7 ar  
     7    3    4 ar  
     8    4    5 ar  
     9    4   26 1   
    10    5    6 ar  
    11    5   27 1   
    12    6    7 ar  
    13    6    8 1   
    14    8    9 ar  
    15    8   23 ar  
    16    9   10 ar  
    17    9   28 1   
    18   10   11 ar  
    19   10   29 1   
    20   11   12 2   
    21   11   22 ar  
    22   12   13 1   
    23   13   14 1   
    24   14   15 1   
    25   14   22 2   
    26   15   16 ar  
    27   15   21 ar  
    28   16   17 ar  
    29   16   30 1   
    30   17   18 ar  
    31   17   31 1   
    32   18   19 1   
    33   18   20 ar  
    34   20   21 ar  
    35   20   32 1   
    36   21   33 1   
    37   22   23 ar  
    38   23   34 1   
@<TRIPOS>SUBSTRUCTURE
     1 VX1         1 TEMP              0 ****  ****    0 ROOT
