@<TRIPOS>MOLECULE
VX1
   34    37     1     0     0
SMALL
bcc


@<TRIPOS>ATOM
      1 N1          3.9450    3.6900    1.2110 nh        1 VX1     -0.932500
      2 C2          4.1150    2.5110    0.4850 ca        1 VX1      0.873900
      3 N3          5.2880    2.3730   -0.2590 nb        1 VX1     -0.748000
      4 C4          5.4620    1.1890   -0.8590 ca        1 VX1      0.467200
      5 C5          4.5420    0.1300   -0.7760 ca        1 VX1     -0.417600
      6 C6          3.3690    0.3590   -0.0210 cp        1 VX1      0.533800
      7 N7          3.1310    1.5370    0.6030 nb        1 VX1     -0.756000
      8 C8          2.3620   -0.7140    0.0830 cp        1 VX1     -0.163500
      9 C9          2.8370   -2.0630    0.2540 ca        1 VX1     -0.093000
     10 C10         1.9900   -3.1260    0.3320 ca        1 VX1     -0.100000
     11 C11         0.5810   -2.8870    0.2450 ca        1 VX1     -0.071000
     12 N12        -0.4830   -3.7280    0.2750 nc        1 VX1     -0.119500
     13 O13        -1.5800   -3.0160    0.1630 os        1 VX1      0.022400
     14 C14        -1.2970   -1.6360    0.0510 cc        1 VX1      0.096900
     15 C15        -2.4190   -0.7450   -0.0750 ca        1 VX1     -0.049800
     16 C16        -3.6700   -1.2360   -0.4850 ca        1 VX1     -0.087500
     17 C17        -4.7550   -0.3750   -0.6170 ca        1 VX1     -0.129500
     18 C18        -4.5960    0.9870   -0.3370 ca        1 VX1      0.034400
     19 CL19       -5.9160    2.0410   -0.5000 cl        1 VX1     -0.081400
     20 C20        -3.3570    1.4860    0.0790 ca        1 VX1     -0.129500
     21 C21        -2.2740    0.6210    0.2110 ca        1 VX1     -0.087500
     22 C22         0.0920   -1.5030    0.0940 ca        1 VX1     -0.142000
     23 C23         1.0210   -0.4350    0.0140 ca        1 VX1     -0.028000
     24 HN1         4.5100    4.4650    0.9560 hn        1 VX1      0.431800
     25 HN1A        3.0340    3.8880    1.5520 hn        1 VX1      0.431800
     26 H4          6.3950    1.0870   -1.4460 h4        1 VX1      0.027100
     27 H5          4.7180   -0.8210   -1.2880 ha        1 VX1      0.157000
     28 H9          3.9260   -2.2170    0.3300 ha        1 VX1      0.144000
     29 H10         2.3520   -4.1560    0.4640 ha        1 VX1      0.155000
     30 H16        -3.7890   -2.3100   -0.7000 ha        1 VX1      0.152500
     31 H17        -5.7320   -0.7660   -0.9400 ha        1 VX1      0.154000
     32 H20        -3.2360    2.5560    0.3050 ha        1 VX1      0.154000
     33 H21        -1.3030    1.0120    0.5510 ha        1 VX1      0.152500
     34 H23         0.6530    0.5950   -0.1110 ha        1 VX1      0.152000
@<TRIPOS>BOND
     1    1    2 1   
     2    1   24 1   
     3    1   25 1   
     4    2    3 ar  
     5    2    7 ar  
     6    3    4 ar  
     7    4    5 ar  
     8    4   26 1   
     9    5    6 ar  
    10    5   27 1   
    11    6    7 ar  
    12    6    8 1   
    13    8    9 ar  
    14    8   23 ar  
    15    9   10 ar  
    16    9   28 1   
    17   10   11 ar  
    18   10   29 1   
    19   11   12 2   
    20   11   22 ar  
    21   12   13 1   
    22   13   14 1   
    23   14   15 1   
    24   14   22 2   
    25   15   16 ar  
    26   15   21 ar  
    27   16   17 ar  
    28   16   30 1   
    29   17   18 ar  
    30   17   31 1   
    31   18   19 1   
    32   18   20 ar  
    33   20   21 ar  
    34   20   32 1   
    35   21   33 1   
    36   22   23 ar  
    37   23   34 1   
@<TRIPOS>SUBSTRUCTURE
     1 VX1         1 TEMP              0 ****  ****    0 ROOT
