@<TRIPOS>MOLECULE
VX1
   34    37     1     0     0
SMALL
bcc


@<TRIPOS>ATOM
      1 N1          0.2260   -1.0050    0.4690 nv        1 VX1     -0.926500
      2 C2          1.5260   -0.5130    0.3150 ca        1 VX1      0.867900
      3 N3          2.1250    0.0890    1.4210 nb        1 VX1     -0.747000
      4 C4          3.3240    0.6450    1.2060 ca        1 VX1      0.466200
      5 C5          3.9800    0.6250   -0.0370 ca        1 VX1     -0.415600
      6 C6          3.3180   -0.0300   -1.0990 cp        1 VX1      0.532800
      7 N7          2.1020   -0.6060   -0.9460 nb        1 VX1     -0.754000
      8 C8          3.9670   -0.0920   -2.4230 cp        1 VX1     -0.166500
      9 C9          5.3850   -0.3400   -2.4640 ca        1 VX1     -0.093000
     10 C10         6.0790   -0.3890   -3.6330 ca        1 VX1     -0.101000
     11 C11         5.3690   -0.1900   -4.8610 ca        1 VX1     -0.071000
     12 N12         5.7830   -0.1700   -6.1520 nc        1 VX1     -0.119500
     13 O13         4.7400    0.0470   -6.9200 os        1 VX1      0.021400
     14 C14         3.5550    0.1840   -6.1640 cc        1 VX1      0.097900
     15 C15         2.3380    0.4250   -6.8920 ca        1 VX1     -0.050800
     16 C16         2.3870    0.8940   -8.2160 ca        1 VX1     -0.087500
     17 C17         1.2120    1.1360   -8.9200 ca        1 VX1     -0.130000
     18 C18        -0.0240    0.9090   -8.3050 ca        1 VX1      0.034400
     19 Cl19       -1.4590    1.2060   -9.1600 cl        1 VX1     -0.081400
     20 C20        -0.0850    0.4350   -6.9900 ca        1 VX1     -0.130000
     21 C21         1.0930    0.1930   -6.2880 ca        1 VX1     -0.087500
     22 C22         3.9120    0.0420   -4.8210 ca        1 VX1     -0.143000
     23 C23         3.2420    0.0870   -3.5730 ca        1 VX1     -0.026000
     24 HN1        -0.0810   -1.1650    1.4000 hn        1 VX1      0.427800
     25 HN1A       -0.0910   -1.6490   -0.2180 hn        1 VX1      0.427800
     26 H4          3.7880    1.1310    2.0860 h4        1 VX1      0.028100
     27 H5          4.9550    1.1040   -0.1770 ha        1 VX1      0.157000
     28 H9          5.9050   -0.4990   -1.5050 ha        1 VX1      0.143000
     29 H10         7.1620   -0.5790   -3.6650 ha        1 VX1      0.155000
     30 H16         3.3640    1.0680   -8.6960 ha        1 VX1      0.152500
     31 H17         1.2580    1.5050   -9.9570 ha        1 VX1      0.154500
     32 H20        -1.0580    0.2520   -6.5090 ha        1 VX1      0.154500
     33 H21         1.0430   -0.1920   -5.2580 ha        1 VX1      0.152500
     34 H23         2.1570    0.2730   -3.5460 ha        1 VX1      0.154000
@<TRIPOS>BOND
     1    1    2 1   
     2    1   24 1   
     3    1   25 1   
     4    2    3 ar  
     5    2    7 ar  
     6    3    4 ar  
     7    4    5 ar  
     8    4   26 1   
     9    5    6 ar  
    10    5   27 1   
    11    6    7 ar  
    12    6    8 1   
    13    8    9 ar  
    14    8   23 ar  
    15    9   10 ar  
    16    9   28 1   
    17   10   11 ar  
    18   10   29 1   
    19   11   12 2   
    20   11   22 ar  
    21   12   13 1   
    22   13   14 1   
    23   14   15 1   
    24   14   22 2   
    25   15   16 ar  
    26   15   21 ar  
    27   16   17 ar  
    28   16   30 1   
    29   17   18 ar  
    30   17   31 1   
    31   18   19 1   
    32   18   20 ar  
    33   20   21 ar  
    34   20   32 1   
    35   21   33 1   
    36   22   23 ar  
    37   23   34 1   
@<TRIPOS>SUBSTRUCTURE
     1 VX1         1 TEMP              0 ****  ****    0 ROOT
