@<TRIPOS>MOLECULE
VX2
   44    47     1     0     0
SMALL
bcc


@<TRIPOS>ATOM
      1 C1         -4.8630   -0.9150   -0.6430 c3        1 VX2      0.689200
      2 N2         -0.3990    3.8850    0.4400 nc        1 VX2     -0.046000
      3 C3         -2.8820   -1.9840    0.4990 ca        1 VX2     -0.073000
      4 C4         -1.5990   -1.9120    1.0380 ca        1 VX2     -0.143000
      5 C5         -0.8870   -0.7130    1.0080 ca        1 VX2     -0.072000
      6 C9          0.8270    3.2960    0.2180 cd        1 VX2     -0.156300
      7 C10         2.1530    3.8000    0.0250 cd        1 VX2     -0.006000
      8 C12         2.8520    1.4640   -0.2310 cc        1 VX2      0.627200
      9 C13         3.7870   -0.8360   -0.4510 c3        1 VX2      0.203500
     10 C2         -3.4520   -0.8430   -0.0710 ca        1 VX2     -0.175300
     11 C7         -2.7520    0.3630   -0.1110 ca        1 VX2     -0.045000
     12 C11         3.1540    2.9050   -0.1950 cc        1 VX2     -0.268300
     13 C15         4.7500   -3.0290   -1.1810 c3        1 VX2     -0.075400
     14 N1         -1.3030    2.9580    0.5370 nc        1 VX2     -0.343700
     15 F1         -5.2030   -2.1410   -1.1640 f         1 VX2     -0.235967
     16 F2         -5.8550   -0.6580    0.2730 f         1 VX2     -0.235967
     17 F3         -5.1140   -0.0350   -1.6660 f         1 VX2     -0.235967
     18 C6         -1.4580    0.4270    0.4280 ca        1 VX2     -0.087900
     19 C8         -0.7490    1.6970    0.3890 cd        1 VX2      0.368400
     20 C14         4.9300   -1.5270   -1.2190 c3        1 VX2     -0.093400
     21 C16         4.6980   -3.5470    0.2410 c3        1 VX2     -0.081400
     22 C17         3.6150   -2.8480    1.0360 c3        1 VX2     -0.075400
     23 C18         3.7850   -1.3440    1.0010 c3        1 VX2     -0.093400
     24 N4          1.6000    0.9760   -0.0190 nd        1 VX2     -0.554800
     25 N5          0.6390    1.8690    0.1800 na        1 VX2      0.125300
     26 H3         -3.4460   -2.9300    0.5160 ha        1 VX2      0.152000
     27 H4         -1.1470   -2.8050    1.4920 ha        1 VX2      0.143000
     28 H5          0.1210   -0.6720    1.4490 ha        1 VX2      0.152000
     29 H10         2.3130    4.8880    0.0610 ha        1 VX2      0.174000
     30 H13         2.8120   -1.1460   -0.9350 h1        1 VX2      0.086700
     31 H7         -3.2150    1.2560   -0.5650 ha        1 VX2      0.171000
     32 H11         4.1890    3.2360   -0.3580 ha        1 VX2      0.156000
     33 H15         3.8040   -3.3070   -1.7160 hc        1 VX2      0.045950
     34 H15A        5.6000   -3.5150   -1.7280 hc        1 VX2      0.045950
     35 HN3         4.8010    0.9700   -0.3440 hn        1 VX2      0.414800
     36 H14         4.9390   -1.1790   -2.2850 hc        1 VX2      0.047700
     37 H14A        5.9170   -1.2540   -0.7610 hc        1 VX2      0.047700
     38 H16         4.5040   -4.6510    0.2320 hc        1 VX2      0.043700
     39 H16A        5.6920   -3.3840    0.7360 hc        1 VX2      0.043700
     40 H17         2.6100   -3.1200    0.6190 hc        1 VX2      0.045950
     41 H17A        3.6440   -3.1980    2.1000 hc        1 VX2      0.045950
     42 H18         4.7490   -1.0620    1.5010 hc        1 VX2      0.047700
     43 H18A        2.9490   -0.8640    1.5740 hc        1 VX2      0.047700
     44 N3          3.8990    0.6080   -0.5750 nh        1 VX2     -0.824900
@<TRIPOS>BOND
     1    1   10 1   
     2    1   15 1   
     3    1   16 1   
     4    1   17 1   
     5    2    6 2   
     6    2   14 1   
     7    3    4 ar  
     8    3   10 ar  
     9    3   26 1   
    10    4    5 ar  
    11    4   27 1   
    12    5   18 ar  
    13    5   28 1   
    14    6    7 1   
    15    6   25 1   
    16    7   12 2   
    17    7   29 1   
    18    8   12 1   
    19    8   24 2   
    20    8   44 1   
    21    9   20 1   
    22    9   23 1   
    23    9   30 1   
    24    9   44 1   
    25   10   11 ar  
    26   11   18 ar  
    27   11   31 1   
    28   12   32 1   
    29   13   20 1   
    30   13   21 1   
    31   13   33 1   
    32   13   34 1   
    33   14   19 2   
    34   18   19 1   
    35   19   25 1   
    36   20   36 1   
    37   20   37 1   
    38   21   22 1   
    39   21   38 1   
    40   21   39 1   
    41   22   23 1   
    42   22   40 1   
    43   22   41 1   
    44   23   42 1   
    45   23   43 1   
    46   24   25 1   
    47   35   44 1   
@<TRIPOS>SUBSTRUCTURE
     1 VX2         1 TEMP              0 ****  ****    0 ROOT
