@<TRIPOS>MOLECULE
VX2
   45    46     1     0     0
SMALL
bcc


@<TRIPOS>ATOM
      1 C1          0.4440    0.5850    2.6500 c3        1 VX2      0.484000
      2 N2          5.3930   -1.5200    4.4870 n2        1 VX2      0.038000
      3 C3          2.3600    0.5400    1.0230 c2        1 VX2      0.017000
      4 C4          3.7950    0.6690    0.6710 c3        1 VX2     -0.242000
      5 C5          4.7200    1.0020    1.7380 c1        1 VX2     -0.052000
      6 C9          4.5170   -1.5590    5.6290 c2        1 VX2     -0.122000
      7 C10         3.5780   -0.6670    5.8640 c1        1 VX2     -0.127000
      8 C12         3.2720    1.7180    6.3350 c2        1 VX2      0.200000
      9 C13         8.2480    1.5710    2.6660 c3        1 VX2     -0.242000
     10 C2          1.9290    0.7240    2.2950 c2        1 VX2     -0.266000
     11 C7          2.7940    1.0550    3.3790 c1        1 VX2     -0.011000
     12 C11         2.7600    0.3480    5.9730 c2        1 VX2     -0.064000
     13 C15        10.3110    0.4400    1.7990 c3        1 VX2     -0.173000
     14 N1          5.7240   -0.5300    3.8650 n2        1 VX2     -0.065000
     15 F1         -0.3140    0.0080    1.6590 f         1 VX2     -0.152000
     16 F2          0.2040   -0.1830    3.7590 f         1 VX2     -0.152000
     17 F3         -0.1730    1.7830    2.9040 f         1 VX2     -0.152000
     18 C6          4.2070    1.3190    3.0690 c3        1 VX2     -0.208000
     19 C8          5.1210    0.7800    4.1700 c2        1 VX2     -0.120000
     20 C14         9.7080    1.2580    2.9200 c3        1 VX2     -0.170500
     21 C16         9.5410   -0.8480    1.6010 c3        1 VX2     -0.170500
     22 C17         8.0750   -0.5900    1.3130 c3        1 VX2     -0.242000
     23 C18         7.5090    0.6260    1.8570 c2        1 VX2      0.187000
     24 N4          4.4810    2.1740    5.9320 n2        1 VX2     -0.232000
     25 N5          5.3010    1.3080    5.3650 n2        1 VX2     -0.015000
     26 H3          3.9150    1.4510   -0.1460 hc        1 VX2      0.194000
     27 H4          1.6670    0.2770    0.2010 ha        1 VX2      0.180000
     28 H5          4.1460   -0.3000    0.1940 hc        1 VX2      0.194000
     29 H10         4.7420   -2.4150    6.2930 h4        1 VX2      0.205000
     30 H13         1.6570    2.1010    7.5150 hn        1 VX2      0.249000
     31 H7          4.2810    2.4720    3.1320 hc        1 VX2      0.236000
     32 H11         1.6920    0.2830    5.6870 ha        1 VX2      0.198000
     33 H15         8.1390    2.5930    2.1840 hc        1 VX2      0.184250
     34 H15A       10.3180    1.0350    0.8490 hc        1 VX2      0.106500
     35 HN3         7.6910    1.6680    3.6560 hc        1 VX2      0.184250
     36 H14         9.8060    0.6950    3.8870 hc        1 VX2      0.115250
     37 H14A       10.2770    2.2180    3.0390 hc        1 VX2      0.115250
     38 H16        11.3780    0.1990    2.0480 hc        1 VX2      0.106500
     39 H16A        9.9870   -1.4310    0.7530 hc        1 VX2      0.115250
     40 H17         9.6340   -1.4820    2.5230 hc        1 VX2      0.115250
     41 H17A        7.8880   -0.5820    0.1950 hc        1 VX2      0.184250
     42 H18         7.4480   -1.4550    1.7050 hc        1 VX2      0.184250
     43 H18A        6.3590    0.8570    1.6510 ha        1 VX2      0.278000
     44 H32         2.7360    3.4160    7.3710 hn        1 VX2      0.249000
     45 N3          2.4410    2.5160    7.0740 n3        1 VX2     -0.342000
@<TRIPOS>BOND
     1    1   10 1   
     2    1   15 1   
     3    1   16 1   
     4    1   17 1   
     5    2    6 1   
     6    2   14 1   
     7    3    4 1   
     8    3   10 1   
     9    3   27 1   
    10    4    5 1   
    11    4   26 1   
    12    4   28 1   
    13    5   18 1   
    14    6    7 1   
    15    6   29 1   
    16    7   12 1   
    17    8   12 1   
    18    8   24 1   
    19    8   45 1   
    20    9   20 1   
    21    9   23 1   
    22    9   33 1   
    23    9   35 1   
    24   10   11 1   
    25   11   18 1   
    26   12   32 1   
    27   13   20 1   
    28   13   21 1   
    29   13   34 1   
    30   13   38 1   
    31   14   19 1   
    32   18   19 1   
    33   18   31 1   
    34   19   25 1   
    35   20   36 1   
    36   20   37 1   
    37   21   22 1   
    38   21   39 1   
    39   21   40 1   
    40   22   23 1   
    41   22   41 1   
    42   22   42 1   
    43   23   43 1   
    44   24   25 1   
    45   30   45 1   
    46   44   45 1   
@<TRIPOS>SUBSTRUCTURE
     1 VX2         1 TEMP              0 ****  ****    0 ROOT
