@<TRIPOS>MOLECULE
VX2
   44    59     1     0     0
SMALL
bcc


@<TRIPOS>ATOM
      1 C1          0.0000    0.0000    0.0000 c3        1 VX2      0.449000
      2 N2          1.9980   -0.1990    6.2810 n2        1 VX2     -0.036000
      3 C3          2.5030    0.0000    0.0000 c3        1 VX2      0.101000
      4 C4          3.7230    0.0000    0.6550 c3        1 VX2     -0.185000
      5 C5          3.7670   -0.0090    2.0340 c2        1 VX2     -0.333000
      6 C9          3.2810    0.1300    6.3230 c3        1 VX2     -0.079000
      7 C10         4.1920    0.3550    7.3720 c3        1 VX2      0.155000
      8 C12         5.8820    0.8050    5.7290 c2        1 VX2      0.093000
      9 C13         7.6290    1.2700    4.0410 DU        1 VX2      0.039000
     10 C2          1.3230   -0.0020    0.7220 c2        1 VX2     -0.257000
     11 C7          1.3550   -0.0040    2.1010 c2        1 VX2     -0.053000
     12 C11         5.4770    0.6880    7.0730 c2        1 VX2     -0.227000
     13 C15         9.2840    2.3410    2.5060 DU        1 VX2     -0.017000
     14 N1          1.6140   -0.2870    5.0560 n2        1 VX2      0.013000
     15 F1          0.2230    0.0030   -1.3810 f         1 VX2     -0.127333
     16 F2         -0.7250   -1.1430    0.3530 f         1 VX2     -0.127333
     17 F3         -0.7250    1.1410    0.3580 f         1 VX2     -0.127333
     18 C6          2.5800   -0.0170    2.7680 c2        1 VX2      0.139000
     19 C8          2.6220   -0.0190    4.2460 c2        1 VX2     -0.242000
     20 C14         8.8330    2.2110    3.9620 c3        1 VX2     -0.676000
     21 C16         9.6760    0.9630    1.9670 DU        1 VX2     -0.231000
     22 C17         8.4710    0.0230    2.0480 DU        1 VX2     -0.261000
     23 C18         8.0210   -0.1070    3.5040 c3        1 VX2     -0.208000
     24 N4          5.0330    0.5950    4.7500 n2        1 VX2     -0.307000
     25 N5          3.7070    0.2520    5.0240 n3        1 VX2      0.402000
     26 H3          3.2290    0.1730    0.7860 hc        1 VX2      0.118000
     27 H4          3.0910    0.0040   -0.2250 DU        1 VX2      0.081000
     28 H5          4.2120   -0.0030    1.0460 DU        1 VX2      0.221000
     29 H10         4.3100    0.2730    6.2980 DU        1 VX2     -0.342000
     30 H13         6.9330    1.0840    4.8500 DU        1 VX2      0.043000
     31 H7          2.3600    0.3070    2.3570 ha        1 VX2      0.090000
     32 H11         4.6650    0.5760    6.3650 DU        1 VX2      0.222000
     33 H15         8.7580    2.0900    3.4190 ha        1 VX2      0.140000
     34 H15A        8.4700    2.7410    1.9120 ha        1 VX2      0.140000
     35 HN3         7.8410    1.5520    4.7850 DU        1 VX2     -0.021000
     36 H14         8.4820    1.7810    4.8920 DU        1 VX2      0.483000
     37 H14A        9.6450    1.8070    4.5550 hc        1 VX2      0.160000
     38 H16         9.3230    1.6640    2.7140 DU        1 VX2      0.255000
     39 H16A        9.9910    1.0560    0.9350 ha        1 VX2      0.161000
     40 H17         9.4870    0.2920    2.3090 DU        1 VX2      0.160000
     41 H17A        8.7500   -0.9530    1.6690 ha        1 VX2      0.133000
     42 H18         7.8370    0.1630    2.4710 DU        1 VX2      0.132000
     43 H18A        7.2150   -0.8280    3.4350 hc        1 VX2      0.126000
     44 N3          7.1980    1.1460    5.4360 ny        1 VX2     -0.201000
@<TRIPOS>BOND
     1    1   10 1   
     2    1   15 1   
     3    1   16 1   
     4    1   17 1   
     5    2    6 1   
     6    2   14 1   
     7    3    4 1   
     8    3   10 1   
     9    3   26 1   
    10    3   27 1   
    11    4    5 1   
    12    4   27 1   
    13    4   28 1   
    14    5   18 1   
    15    5   28 1   
    16    6    7 1   
    17    6   25 1   
    18    6   29 1   
    19    7   12 1   
    20    7   29 1   
    21    7   32 1   
    22    8   12 1   
    23    8   24 1   
    24    8   44 1   
    25    9   20 1   
    26    9   23 1   
    27    9   30 1   
    28    9   35 1   
    29    9   36 1   
    30    9   44 1   
    31   10   11 1   
    32   11   18 1   
    33   11   31 1   
    34   12   32 1   
    35   13   20 1   
    36   13   21 1   
    37   13   33 1   
    38   13   34 1   
    39   13   38 1   
    40   14   19 1   
    41   18   19 1   
    42   19   25 1   
    43   20   36 1   
    44   20   37 1   
    45   21   22 1   
    46   21   38 1   
    47   21   39 1   
    48   21   40 1   
    49   22   23 1   
    50   22   40 1   
    51   22   41 1   
    52   22   42 1   
    53   23   42 1   
    54   23   43 1   
    55   24   25 1   
    56   29   32 1   
    57   30   44 1   
    58   35   36 1   
    59   35   44 1   
@<TRIPOS>SUBSTRUCTURE
     1 VX2         1 TEMP              0 ****  ****    0 ROOT
