@<TRIPOS>MOLECULE
VX3
   38    41     1     0     0
SMALL
bcc


@<TRIPOS>ATOM
      1 O2         -3.5950    2.1720    0.0160 o         1 VX3     -0.835300
      2 C16         0.3800   -0.7030   -0.0040 cc        1 VX3     -0.111400
      3 C19         2.8050   -3.4650   -0.7310 ca        1 VX3     -0.135500
      4 C3         -4.1490    1.0290   -0.0150 c         1 VX3      0.916200
      5 O4         -5.3970    0.8590   -0.0360 o         1 VX3     -0.835300
      6 C5         -3.2550   -0.1960   -0.0270 ca        1 VX3     -0.124600
      7 C6         -1.8480   -0.0730   -0.0150 ca        1 VX3     -0.018200
      8 N7         -1.0680    1.0760    0.0170 na        1 VX3     -0.137400
      9 C9          0.2780    0.7100    0.0180 cd        1 VX3     -0.014300
     10 C10         1.3360    1.7110    0.0180 ca        1 VX3     -0.018800
     11 C11         2.5090    1.4990   -0.7230 ca        1 VX3     -0.117000
     12 C12         3.5150    2.4630   -0.7380 ca        1 VX3     -0.137500
     13 C13         3.3620    3.6490   -0.0200 ca        1 VX3     -0.142000
     14 C14         2.1980    3.8670    0.7160 ca        1 VX3     -0.137500
     15 C15         1.1880    2.9070    0.7360 ca        1 VX3     -0.117000
     16 C17         1.5740   -1.5090    0.0230 ca        1 VX3      0.023200
     17 C18         1.6660   -2.6650   -0.7720 ca        1 VX3     -0.134500
     18 C20         3.8720   -3.1290    0.1010 ca        1 VX3     -0.157000
     19 C21         3.7930   -1.9840    0.8940 ca        1 VX3     -0.135500
     20 C22         2.6570   -1.1810    0.8570 ca        1 VX3     -0.134500
     21 C23        -0.9720   -1.2210   -0.0280 ca        1 VX3     -0.107800
     22 C24        -1.5420   -2.5000   -0.0360 ca        1 VX3     -0.117000
     23 C25        -2.9200   -2.6170   -0.0480 ca        1 VX3     -0.168000
     24 C26        -3.7620   -1.4850   -0.0460 ca        1 VX3     -0.108000
     25 H11         2.6290    0.5600   -1.2860 ha        1 VX3      0.147000
     26 H12         4.4290    2.2870   -1.3220 ha        1 VX3      0.123500
     27 H13         4.1550    4.4090   -0.0370 ha        1 VX3      0.119000
     28 H14         2.0730    4.8020    1.2810 ha        1 VX3      0.123500
     29 H15         0.2750    3.0910    1.3230 ha        1 VX3      0.147000
     30 H18         0.8240   -2.9310   -1.4290 ha        1 VX3      0.140000
     31 H20         4.7690   -3.7620    0.1330 ha        1 VX3      0.115000
     32 H21         4.6300   -1.7160    1.5550 ha        1 VX3      0.117000
     33 H22         2.5960   -0.2770    1.4830 ha        1 VX3      0.140000
     34 H24        -0.8960   -3.3890   -0.0280 ha        1 VX3      0.113000
     35 H25        -3.3800   -3.6150   -0.0570 ha        1 VX3      0.106000
     36 H26        -4.8570   -1.6100   -0.0570 ha        1 VX3      0.149000
     37 HN7        -1.4690    1.9920   -0.0010 hn        1 VX3      0.348700
     38 H19         2.8620   -4.3650   -1.3600 ha        1 VX3      0.117000
@<TRIPOS>BOND
     1    1    4 1   
     2    2    9 2   
     3    2   16 1   
     4    2   21 1   
     5    3   17 ar  
     6    3   18 ar  
     7    3   38 1   
     8    4    5 1   
     9    4    6 1   
    10    6    7 ar  
    11    6   24 ar  
    12    7    8 1   
    13    7   21 ar  
    14    8    9 1   
    15    8   37 1   
    16    9   10 1   
    17   10   11 ar  
    18   10   15 ar  
    19   11   12 ar  
    20   11   25 1   
    21   12   13 ar  
    22   12   26 1   
    23   13   14 ar  
    24   13   27 1   
    25   14   15 ar  
    26   14   28 1   
    27   15   29 1   
    28   16   17 ar  
    29   16   20 ar  
    30   17   30 1   
    31   18   19 ar  
    32   18   31 1   
    33   19   20 ar  
    34   19   32 1   
    35   20   33 1   
    36   21   22 ar  
    37   22   23 ar  
    38   22   34 1   
    39   23   24 ar  
    40   23   35 1   
    41   24   36 1   
@<TRIPOS>SUBSTRUCTURE
     1 VX3         1 TEMP              0 ****  ****    0 ROOT
