@<TRIPOS>MOLECULE
VX3
   38    41     1     0     0
SMALL
bcc


@<TRIPOS>ATOM
      1 O2         -0.1680    0.1610   -0.1030 o         1 VX3     -0.835300
      2 C16         1.0180   -0.0570   -4.8590 cc        1 VX3     -0.111400
      3 C19         2.6410   -0.9580   -8.1130 ca        1 VX3     -0.135500
      4 C3          1.0950    0.0710   -0.0130 c         1 VX3      0.916200
      5 O4          1.7170    0.0520    1.0840 o         1 VX3     -0.835300
      6 C5          1.8990   -0.0170   -1.2960 ca        1 VX3     -0.124600
      7 C6          1.2620   -0.0110   -2.5570 ca        1 VX3     -0.018200
      8 N7         -0.0920    0.0770   -2.8560 na        1 VX3     -0.137400
      9 C9         -0.2540    0.0460   -4.2410 cd        1 VX3     -0.014300
     10 C10        -1.5740    0.0910   -4.8520 ca        1 VX3     -0.018800
     11 C11        -1.8500   -0.6710   -5.9970 ca        1 VX3     -0.117000
     12 C12        -3.1180   -0.6420   -6.5730 ca        1 VX3     -0.137500
     13 C13        -4.1270    0.1420   -6.0130 ca        1 VX3     -0.142000
     14 C14        -3.8610    0.9000   -4.8730 ca        1 VX3     -0.137500
     15 C15        -2.5940    0.8760   -4.2920 ca        1 VX3     -0.117000
     16 C17         1.3220   -0.0850   -6.2670 ca        1 VX3      0.023200
     17 C18         2.3210   -0.9440   -6.7580 ca        1 VX3     -0.134500
     18 C20         1.9730   -0.1180   -9.0030 ca        1 VX3     -0.157000
     19 C21         0.9800    0.7380   -8.5280 ca        1 VX3     -0.135500
     20 C22         0.6560    0.7560   -7.1750 ca        1 VX3     -0.134500
     21 C23         1.9990   -0.0960   -3.7960 ca        1 VX3     -0.107800
     22 C24         3.3970   -0.1710   -3.7410 ca        1 VX3     -0.117000
     23 C25         4.0170   -0.1760   -2.5040 ca        1 VX3     -0.168000
     24 C26         3.2810   -0.1030   -1.3020 ca        1 VX3     -0.108000
     25 H11        -1.0520   -1.2860   -6.4400 ha        1 VX3      0.147000
     26 H12        -3.3230   -1.2430   -7.4700 ha        1 VX3      0.123500
     27 H13        -5.1270    0.1610   -6.4660 ha        1 VX3      0.119000
     28 H14        -4.6530    1.5180   -4.4260 ha        1 VX3      0.123500
     29 H15        -2.3960    1.4800   -3.3930 ha        1 VX3      0.147000
     30 H18         2.8490   -1.6070   -6.0550 ha        1 VX3      0.140000
     31 H20         2.2280   -0.1300  -10.0710 ha        1 VX3      0.115000
     32 H21         0.4510    1.4050   -9.2250 ha        1 VX3      0.117000
     33 H22        -0.1290    1.4310   -6.8010 ha        1 VX3      0.140000
     34 H24         3.9810   -0.2170   -4.6690 ha        1 VX3      0.113000
     35 H25         5.1130   -0.2360   -2.4470 ha        1 VX3      0.106000
     36 H26         3.8040   -0.1110   -0.3330 ha        1 VX3      0.149000
     37 HN7        -0.7920    0.1140   -2.1440 hn        1 VX3      0.348700
     38 H19         3.4240   -1.6360   -8.4810 ha        1 VX3      0.117000
@<TRIPOS>BOND
     1    1    4 1   
     2    2    9 2   
     3    2   16 1   
     4    2   21 1   
     5    3   17 ar  
     6    3   18 ar  
     7    3   38 1   
     8    4    5 1   
     9    4    6 1   
    10    6    7 ar  
    11    6   24 ar  
    12    7    8 1   
    13    7   21 ar  
    14    8    9 1   
    15    8   37 1   
    16    9   10 1   
    17   10   11 ar  
    18   10   15 ar  
    19   11   12 ar  
    20   11   25 1   
    21   12   13 ar  
    22   12   26 1   
    23   13   14 ar  
    24   13   27 1   
    25   14   15 ar  
    26   14   28 1   
    27   15   29 1   
    28   16   17 ar  
    29   16   20 ar  
    30   17   30 1   
    31   18   19 ar  
    32   18   31 1   
    33   19   20 ar  
    34   19   32 1   
    35   20   33 1   
    36   21   22 ar  
    37   22   23 ar  
    38   22   34 1   
    39   23   24 ar  
    40   23   35 1   
    41   24   36 1   
@<TRIPOS>SUBSTRUCTURE
     1 VX3         1 TEMP              0 ****  ****    0 ROOT
