@<TRIPOS>MOLECULE
VX6
   63    67     1     0     0
SMALL
bcc


@<TRIPOS>ATOM
      1 N1         -1.0560    0.8380   -0.0970 n3        1 VX6     -0.730600
      2 C2          0.3190    0.5120   -0.4260 c3        1 VX6      0.155800
      3 C3          1.1140    0.0030    0.7940 c3        1 VX6      0.198300
      4 N4          0.8840    0.7310    2.0320 nh        1 VX6     -0.694300
      5 C5         -0.3860    1.4240    2.2270 c3        1 VX6      0.198300
      6 C6         -1.0950    1.8620    0.9320 c3        1 VX6      0.155800
      7 C7         -1.8610    1.1570   -1.2550 c3        1 VX6      0.151100
      8 C8          1.7040    0.5070    3.1030 ca        1 VX6      0.734200
      9 C9          2.8820   -0.3430    2.9900 ca        1 VX6     -0.400600
     10 C10         3.6870   -0.4490    4.1230 ca        1 VX6      0.553200
     11 N11         3.4470    0.1770    5.3130 nb        1 VX6     -0.803000
     12 C12         2.3110    0.9410    5.3320 ca        1 VX6      0.769300
     13 N13         1.4290    1.1120    4.3220 nb        1 VX6     -0.720000
     14 N14         4.9090   -1.3020    4.0520 n4        1 VX6     -0.585100
     15 C15         6.1290   -0.5280    3.9740 cc        1 VX6     -0.140700
     16 C17         7.1930   -0.6830    3.0530 cd        1 VX6     -0.203300
     17 C18         8.1510    0.3220    3.4440 cd        1 VX6      0.347600
     18 N19         7.6670    1.0230    4.5250 nc        1 VX6     -0.433800
     19 N20         6.4890    0.5240    4.8440 na        1 VX6      0.035400
     20 C21         9.4500    0.5690    2.7930 c3        1 VX6     -0.143400
     21 S23         1.9470    1.9330    6.7120 ss        1 VX6      0.000800
     22 C24         2.4370    1.1950    8.1410 ca        1 VX6     -0.011100
     23 C25         2.4990    2.1110    9.2120 ca        1 VX6     -0.101500
     24 C26         2.7280    1.6860   10.5110 ca        1 VX6     -0.079000
     25 C27         2.9240    0.3130   10.7620 ca        1 VX6     -0.060400
     26 C28         2.8990   -0.6090    9.7020 ca        1 VX6     -0.079000
     27 C29         2.6530   -0.1610    8.4060 ca        1 VX6     -0.101500
     28 N30         3.1310   -0.1560   12.1330 n4        1 VX6     -0.549200
     29 C31         4.6210   -0.2840   12.4750 c         1 VX6      0.599100
     30 O32         5.1040   -1.3750   12.2140 o         1 VX6     -0.418100
     31 C33         5.2320    0.9020   13.0860 cx        1 VX6     -0.287700
     32 C34         6.0030    0.7170   14.3870 cx        1 VX6     -0.061900
     33 C35         6.7520    0.9720   13.1260 cx        1 VX6     -0.061900
     34 H21         0.8710    1.3920   -0.8700 h1        1 VX6      0.061450
     35 H22         0.3180   -0.3180   -1.1880 h1        1 VX6      0.061450
     36 H31         0.8600   -1.0840    0.9660 h1        1 VX6      0.069200
     37 H32         2.2050    0.0860    0.5190 h1        1 VX6      0.069200
     38 H51        -1.0690    0.7400    2.8080 h1        1 VX6      0.069200
     39 H52        -0.2080    2.3570    2.8360 h1        1 VX6      0.069200
     40 H61        -0.6410    2.8350    0.5800 h1        1 VX6      0.061450
     41 H62        -2.1730    2.0600    1.1990 h1        1 VX6      0.061450
     42 H71        -1.5090    2.0750   -1.8000 h1        1 VX6      0.051367
     43 H72        -1.8360    0.2850   -1.9600 h1        1 VX6      0.051367
     44 H73        -2.9190    1.3190   -0.9200 h1        1 VX6      0.051367
     45 H9          3.1100   -0.8690    2.0540 ha        1 VX6      0.178000
     46 H14         4.9500   -1.9150    4.8810 hn        1 VX6      0.476300
     47 H17         7.2900   -1.3950    2.2380 ha        1 VX6      0.195000
     48 H20         5.9380    0.9290    5.5720 hn        1 VX6      0.355700
     49 H211       10.2900    0.4090    3.5170 hc        1 VX6      0.077700
     50 H212        9.5810   -0.1300    1.9300 hc        1 VX6      0.077700
     51 H213        9.5100    1.6220    2.4160 hc        1 VX6      0.077700
     52 H25         2.3500    3.1900    9.0170 ha        1 VX6      0.172500
     53 H26         2.7500    2.4290   11.3260 ha        1 VX6      0.165000
     54 H28         3.0610   -1.6860    9.8790 ha        1 VX6      0.165000
     55 H29         2.6090   -0.9060    7.5950 ha        1 VX6      0.172500
     56 H30         2.6870    0.4980   12.7860 hn        1 VX6      0.465800
     57 H33         4.6750    1.8490   12.9390 hc        1 VX6      0.118700
     58 H341        6.0440   -0.2900   14.8440 hc        1 VX6      0.112700
     59 H342        5.9120    1.5170   15.1480 hc        1 VX6      0.112700
     60 H351        7.3300    0.1460   12.6680 hc        1 VX6      0.112700
     61 H352        7.2200    1.9600   12.9510 hc        1 VX6      0.112700
     62 H142        4.8560   -1.8830    3.2020 hn        1 VX6      0.476300
     63 H302        2.6880   -1.0810   12.2320 hn        1 VX6      0.465800
@<TRIPOS>BOND
     1    1    2 1   
     2    1    6 1   
     3    1    7 1   
     4    2    3 1   
     5    2   34 1   
     6    2   35 1   
     7    3    4 1   
     8    3   36 1   
     9    3   37 1   
    10    4    5 1   
    11    4    8 1   
    12    5    6 1   
    13    5   38 1   
    14    5   39 1   
    15    6   40 1   
    16    6   41 1   
    17    7   42 1   
    18    7   43 1   
    19    7   44 1   
    20    8    9 ar  
    21    8   13 ar  
    22    9   10 ar  
    23    9   45 1   
    24   10   11 ar  
    25   10   14 1   
    26   11   12 ar  
    27   12   13 ar  
    28   12   21 1   
    29   14   15 1   
    30   14   46 1   
    31   14   62 1   
    32   15   16 2   
    33   15   19 1   
    34   16   17 1   
    35   16   47 1   
    36   17   18 2   
    37   17   20 1   
    38   18   19 1   
    39   19   48 1   
    40   20   49 1   
    41   20   50 1   
    42   20   51 1   
    43   21   22 1   
    44   22   23 ar  
    45   22   27 ar  
    46   23   24 ar  
    47   23   52 1   
    48   24   25 ar  
    49   24   53 1   
    50   25   26 ar  
    51   25   28 1   
    52   26   27 ar  
    53   26   54 1   
    54   27   55 1   
    55   28   29 1   
    56   28   56 1   
    57   28   63 1   
    58   29   30 2   
    59   29   31 1   
    60   31   32 1   
    61   31   33 1   
    62   31   57 1   
    63   32   33 1   
    64   32   58 1   
    65   32   59 1   
    66   33   60 1   
    67   33   61 1   
@<TRIPOS>SUBSTRUCTURE
     1 VX6         1 TEMP              0 ****  ****    0 ROOT
