@<TRIPOS>MOLECULE
VX6
   61    65     1     0     0
SMALL
bcc


@<TRIPOS>ATOM
      1 N1          7.0370    1.9000   -0.2540 n3        1 VX6     -0.732600
      2 C2          6.6570    0.4950   -0.2670 c3        1 VX6      0.162800
      3 C3          5.1650    0.2810   -0.5940 c3        1 VX6      0.189300
      4 N4          4.2920    1.0830    0.2530 nh        1 VX6     -0.737300
      5 C5          4.6650    2.4910    0.2790 c3        1 VX6      0.189300
      6 C6          6.1610    2.6950    0.5940 c3        1 VX6      0.162800
      7 C7          8.4350    2.0920    0.0570 c3        1 VX6      0.157100
      8 C8          2.9100    0.7790    0.1680 ca        1 VX6      0.694200
      9 C9          2.4890   -0.5770    0.3010 ca        1 VX6     -0.449600
     10 C10         1.0950   -0.8420    0.3110 ca        1 VX6      0.695200
     11 N11         0.1730    0.1670    0.1630 nb        1 VX6     -0.783000
     12 C12         0.6740    1.4260    0.0560 ca        1 VX6      0.770300
     13 N13         1.9900    1.7890    0.0420 nb        1 VX6     -0.765000
     14 N14         0.6000   -2.1400    0.5460 nh        1 VX6     -0.713300
     15 C15         1.4010   -3.2530    0.2540 cc        1 VX6      0.066300
     16 C17         1.4540   -4.0850   -0.8880 cd        1 VX6     -0.291300
     17 C18         2.4030   -5.1200   -0.5530 cd        1 VX6      0.307600
     18 N19         2.8910   -4.9110    0.7110 nc        1 VX6     -0.506800
     19 N20         2.2960   -3.8290    1.1900 na        1 VX6     -0.005600
     20 C21         2.7930   -6.2360   -1.4330 c3        1 VX6     -0.120400
     21 S23        -0.4180    2.7620   -0.1070 ss        1 VX6     -0.137200
     22 C24        -1.9910    2.1310   -0.0240 ca        1 VX6     -0.090100
     23 C25        -2.8290    2.6110    0.9900 ca        1 VX6     -0.040000
     24 C26        -4.1650    2.2460    1.0450 ca        1 VX6     -0.190500
     25 C27        -4.7070    1.3520    0.0840 ca        1 VX6      0.103600
     26 C28        -3.8540    0.8560   -0.9250 ca        1 VX6     -0.190500
     27 C29        -2.5200    1.2500   -0.9700 ca        1 VX6     -0.040000
     28 N30        -6.0620    1.0130    0.1850 n         1 VX6     -0.470100
     29 C31        -6.7720    0.1000   -0.5890 c         1 VX6      0.698100
     30 O32        -6.2540   -0.5530   -1.5110 o         1 VX6     -0.583100
     31 C33        -8.2230   -0.0490   -0.2330 cx        1 VX6     -0.231700
     32 C34        -9.0200   -1.1100   -0.9500 cx        1 VX6     -0.103900
     33 C35        -8.6580   -1.3000    0.4900 cx        1 VX6     -0.103900
     34 H21         7.2550   -0.0170   -1.0720 h1        1 VX6      0.040200
     35 H22         6.8890   -0.0110    0.7150 h1        1 VX6      0.040200
     36 H31         4.9420   -0.8090   -0.4370 h1        1 VX6      0.055450
     37 H32         4.9940    0.5220   -1.6830 h1        1 VX6      0.055450
     38 H51         4.0780    3.0030    1.0920 h1        1 VX6      0.055450
     39 H52         4.4270    2.9940   -0.7010 h1        1 VX6      0.055450
     40 H61         6.3350    2.4800    1.6890 h1        1 VX6      0.040200
     41 H62         6.3990    3.7800    0.4120 h1        1 VX6      0.040200
     42 H71         8.7140    1.7490    1.0920 h1        1 VX6      0.033367
     43 H72         9.0520    1.5210   -0.6860 h1        1 VX6      0.033367
     44 H73         8.6770    3.1830   -0.0350 h1        1 VX6      0.033367
     45 H9          3.2160   -1.3890    0.4110 ha        1 VX6      0.158000
     46 H14        -0.3710   -2.2870    0.3500 hn        1 VX6      0.449800
     47 H17         0.9040   -3.9770   -1.8150 ha        1 VX6      0.171000
     48 H20         2.5260   -3.4750    2.0900 hn        1 VX6      0.328700
     49 H211        2.3160   -6.1090   -2.4350 hc        1 VX6      0.050033
     50 H212        3.9030   -6.2720   -1.5650 hc        1 VX6      0.050033
     51 H213        2.4600   -7.2120   -0.9980 hc        1 VX6      0.050033
     52 H25        -2.4210    3.2920    1.7550 ha        1 VX6      0.145000
     53 H26        -4.7980    2.6530    1.8490 ha        1 VX6      0.153500
     54 H28        -4.2310    0.1560   -1.6890 ha        1 VX6      0.153500
     55 H29        -1.8730    0.8500   -1.7670 ha        1 VX6      0.145000
     56 H30        -6.5600    1.4570    0.9250 hn        1 VX6      0.318500
     57 H33        -8.7250    0.9070    0.0120 hc        1 VX6      0.095700
     58 H341      -10.0650   -0.8840   -1.2240 hc        1 VX6      0.084450
     59 H342       -8.5040   -1.7180   -1.7180 hc        1 VX6      0.084450
     60 H351       -7.8960   -2.0560    0.7540 hc        1 VX6      0.084450
     61 H352       -9.4410   -1.2110    1.2650 hc        1 VX6      0.084450
@<TRIPOS>BOND
     1    1    2 1   
     2    1    6 1   
     3    1    7 1   
     4    2    3 1   
     5    2   34 1   
     6    2   35 1   
     7    3    4 1   
     8    3   36 1   
     9    3   37 1   
    10    4    5 1   
    11    4    8 1   
    12    5    6 1   
    13    5   38 1   
    14    5   39 1   
    15    6   40 1   
    16    6   41 1   
    17    7   42 1   
    18    7   43 1   
    19    7   44 1   
    20    8    9 ar  
    21    8   13 ar  
    22    9   10 ar  
    23    9   45 1   
    24   10   11 ar  
    25   10   14 1   
    26   11   12 ar  
    27   12   13 ar  
    28   12   21 1   
    29   14   15 1   
    30   14   46 1   
    31   15   16 2   
    32   15   19 1   
    33   16   17 1   
    34   16   47 1   
    35   17   18 2   
    36   17   20 1   
    37   18   19 1   
    38   19   48 1   
    39   20   49 1   
    40   20   50 1   
    41   20   51 1   
    42   21   22 1   
    43   22   23 ar  
    44   22   27 ar  
    45   23   24 ar  
    46   23   52 1   
    47   24   25 ar  
    48   24   53 1   
    49   25   26 ar  
    50   25   28 1   
    51   26   27 ar  
    52   26   54 1   
    53   27   55 1   
    54   28   29 1   
    55   28   56 1   
    56   29   30 2   
    57   29   31 1   
    58   31   32 1   
    59   31   33 1   
    60   31   57 1   
    61   32   33 1   
    62   32   58 1   
    63   32   59 1   
    64   33   60 1   
    65   33   61 1   
@<TRIPOS>SUBSTRUCTURE
     1 VX6         1 TEMP              0 ****  ****    0 ROOT
