@<TRIPOS>MOLECULE
VX6
   61    65     1     0     0
SMALL
bcc


@<TRIPOS>ATOM
      1 N1         -0.3470    0.7290   -0.4190 n3        1 VX6     -0.732600
      2 C2          1.1010    0.5950   -0.3840 c3        1 VX6      0.162800
      3 C3          1.6330    0.1980    1.0080 c3        1 VX6      0.189300
      4 N4          1.1330    1.0710    2.0610 nh        1 VX6     -0.737300
      5 C5         -0.3170    1.2180    2.0340 c3        1 VX6      0.189300
      6 C6         -0.8400    1.6020    0.6360 c3        1 VX6      0.162800
      7 C7         -0.8380    1.1060   -1.7260 c3        1 VX6      0.157100
      8 C8          1.7460    0.9110    3.3300 ca        1 VX6      0.694200
      9 C9          3.1700    0.9250    3.4180 ca        1 VX6     -0.449600
     10 C10         3.7550    0.8630    4.7090 ca        1 VX6      0.695200
     11 N11         2.9840    0.7590    5.8420 nb        1 VX6     -0.783000
     12 C12         1.6370    0.7660    5.6520 ca        1 VX6      0.770300
     13 N13         0.9750    0.8290    4.4610 nb        1 VX6     -0.765000
     14 N14         5.1490    0.9810    4.8850 nu        1 VX6     -0.713300
     15 C15         6.0130    0.6340    3.8360 cc        1 VX6      0.066300
     16 C17         6.7110   -0.5650    3.5660 cd        1 VX6     -0.291300
     17 C18         7.5170   -0.2740    2.4040 cd        1 VX6      0.307600
     18 N19         7.3050    1.0190    2.0030 nc        1 VX6     -0.506800
     19 N20         6.4370    1.5560    2.8480 na        1 VX6     -0.005600
     20 C21         8.4330   -1.2220    1.7440 c3        1 VX6     -0.120400
     21 S23         0.5880    0.6650    7.0280 ss        1 VX6     -0.137200
     22 C24         1.5770    0.6410    8.4070 ca        1 VX6     -0.090100
     23 C25         1.3940    1.6570    9.3530 ca        1 VX6     -0.040000
     24 C26         2.0670    1.6340   10.5650 ca        1 VX6     -0.190500
     25 C27         2.9810    0.5880   10.8610 ca        1 VX6      0.103600
     26 C28         3.1760   -0.4230    9.8960 ca        1 VX6     -0.190500
     27 C29         2.4770   -0.3880    8.6940 ca        1 VX6     -0.040000
     28 N30         3.6360    0.6130   12.0980 ns        1 VX6     -0.470100
     29 C31         4.6230   -0.2550   12.5560 c         1 VX6      0.698100
     30 O32         5.0570   -1.2050   11.8810 o         1 VX6     -0.583100
     31 C33         5.1390    0.0340   13.9360 cx        1 VX6     -0.231700
     32 C34         6.2900   -0.7960   14.4470 cx        1 VX6     -0.103900
     33 C35         6.5160    0.6360   14.0750 cx        1 VX6     -0.103900
     34 H21         1.3890   -0.2240   -1.1020 h1        1 VX6      0.040200
     35 H22         1.6180    1.5430   -0.7130 h1        1 VX6      0.040200
     36 H31         2.7550    0.2630    0.9680 h1        1 VX6      0.055450
     37 H32         1.3500   -0.8750    1.2120 h1        1 VX6      0.055450
     38 H51        -0.8290    0.2710    2.3690 h1        1 VX6      0.055450
     39 H52        -0.6070    2.0450    2.7410 h1        1 VX6      0.055450
     40 H61        -1.9620    1.5130    0.6600 h1        1 VX6      0.040200
     41 H62        -0.5830    2.6840    0.4360 h1        1 VX6      0.040200
     42 H71        -0.4920    0.3450   -2.4740 h1        1 VX6      0.033367
     43 H72        -0.4860    2.1210   -2.0590 h1        1 VX6      0.033367
     44 H73        -1.9590    1.1060   -1.7020 h1        1 VX6      0.033367
     45 H9          3.7930    1.0000    2.5210 ha        1 VX6      0.158000
     46 H14         5.5030    0.7380    5.7890 hn        1 VX6      0.449800
     47 H17         6.6590   -1.5010    4.1090 ha        1 VX6      0.171000
     48 H20         6.1150    2.4890    2.7250 hn        1 VX6      0.328700
     49 H211        9.4930   -0.8760    1.8440 hc        1 VX6      0.050033
     50 H212        8.3380   -2.2290    2.2190 hc        1 VX6      0.050033
     51 H213        8.1960   -1.3140    0.6550 hc        1 VX6      0.050033
     52 H25         0.7020    2.4870    9.1330 ha        1 VX6      0.145000
     53 H26         1.8890    2.4420   11.2910 ha        1 VX6      0.153500
     54 H28         3.8790   -1.2520   10.0820 ha        1 VX6      0.153500
     55 H29         2.6440   -1.1890    7.9560 ha        1 VX6      0.145000
     56 H30         3.3860    1.3660   12.7000 hn        1 VX6      0.318500
     57 H33         4.3530    0.3370   14.6550 hc        1 VX6      0.095700
     58 H341        6.2930   -1.0890   15.5120 hc        1 VX6      0.084450
     59 H342        6.6910   -1.5910   13.7890 hc        1 VX6      0.084450
     60 H351        7.0910    0.8670   13.1600 hc        1 VX6      0.084450
     61 H352        6.6810    1.3870   14.8680 hc        1 VX6      0.084450
@<TRIPOS>BOND
     1    1    2 1   
     2    1    6 1   
     3    1    7 1   
     4    2    3 1   
     5    2   34 1   
     6    2   35 1   
     7    3    4 1   
     8    3   36 1   
     9    3   37 1   
    10    4    5 1   
    11    4    8 1   
    12    5    6 1   
    13    5   38 1   
    14    5   39 1   
    15    6   40 1   
    16    6   41 1   
    17    7   42 1   
    18    7   43 1   
    19    7   44 1   
    20    8    9 ar  
    21    8   13 ar  
    22    9   10 ar  
    23    9   45 1   
    24   10   11 ar  
    25   10   14 1   
    26   11   12 ar  
    27   12   13 ar  
    28   12   21 1   
    29   14   15 1   
    30   14   46 1   
    31   15   16 2   
    32   15   19 1   
    33   16   17 1   
    34   16   47 1   
    35   17   18 2   
    36   17   20 1   
    37   18   19 1   
    38   19   48 1   
    39   20   49 1   
    40   20   50 1   
    41   20   51 1   
    42   21   22 1   
    43   22   23 ar  
    44   22   27 ar  
    45   23   24 ar  
    46   23   52 1   
    47   24   25 ar  
    48   24   53 1   
    49   25   26 ar  
    50   25   28 1   
    51   26   27 ar  
    52   26   54 1   
    53   27   55 1   
    54   28   29 1   
    55   28   56 1   
    56   29   30 2   
    57   29   31 1   
    58   31   32 1   
    59   31   33 1   
    60   31   57 1   
    61   32   33 1   
    62   32   58 1   
    63   32   59 1   
    64   33   60 1   
    65   33   61 1   
@<TRIPOS>SUBSTRUCTURE
     1 VX6         1 TEMP              0 ****  ****    0 ROOT
