@<TRIPOS>MOLECULE
VX6
   61    65     1     0     0
SMALL
bcc


@<TRIPOS>ATOM
      1 N1         -0.3550    0.7290   -0.4160 n3        1 VX6     -0.732600
      2 C2          1.0940    0.5940   -0.3820 c3        1 VX6      0.162800
      3 C3          1.6270    0.1980    1.0090 c3        1 VX6      0.189300
      4 N4          1.1290    1.0710    2.0630 nh        1 VX6     -0.737300
      5 C5         -0.3210    1.2190    2.0380 c3        1 VX6      0.189300
      6 C6         -0.8460    1.6020    0.6400 c3        1 VX6      0.162800
      7 C7         -0.8470    1.1040   -1.7210 c3        1 VX6      0.157100
      8 C8          1.7430    0.9130    3.3310 ca        1 VX6      0.694200
      9 C9          3.1670    0.9270    3.4170 ca        1 VX6     -0.449600
     10 C10         3.7550    0.8660    4.7070 ca        1 VX6      0.695200
     11 N11         2.9840    0.7620    5.8410 nb        1 VX6     -0.783000
     12 C12         1.6380    0.7690    5.6540 ca        1 VX6      0.770300
     13 N13         0.9730    0.8310    4.4630 nb        1 VX6     -0.765000
     14 N14         5.1480    0.9840    4.8820 nh        1 VX6     -0.713300
     15 C15         6.0110    0.6380    3.8320 cc        1 VX6      0.066300
     16 C17         6.7130   -0.5590    3.5630 cd        1 VX6     -0.291300
     17 C18         7.5160   -0.2680    2.4000 cd        1 VX6      0.307600
     18 N19         7.3010    1.0240    1.9970 nc        1 VX6     -0.506800
     19 N20         6.4320    1.5600    2.8420 na        1 VX6     -0.005600
     20 C21         8.4340   -1.2140    1.7400 c3        1 VX6     -0.120400
     21 S23         0.5890    0.6680    7.0310 ss        1 VX6     -0.137200
     22 C24         1.5800    0.6440    8.4080 ca        1 VX6     -0.090100
     23 C25         1.4000    1.6610    9.3540 ca        1 VX6     -0.040000
     24 C26         2.0740    1.6370   10.5660 ca        1 VX6     -0.190500
     25 C27         2.9870    0.5900   10.8600 ca        1 VX6      0.103600
     26 C28         3.1800   -0.4220    9.8960 ca        1 VX6     -0.190500
     27 C29         2.4790   -0.3860    8.6950 ca        1 VX6     -0.040000
     28 N30         3.6440    0.6140   12.0970 n         1 VX6     -0.470100
     29 C31         4.6290   -0.2560   12.5560 c         1 VX6      0.698100
     30 O32         5.0590   -1.2080   11.8810 o         1 VX6     -0.583100
     31 C33         5.1470    0.0330   13.9340 cx        1 VX6     -0.231700
     32 C34         6.2860   -0.8100   14.4500 cx        1 VX6     -0.103900
     33 C35         6.5330    0.6160   14.0700 cx        1 VX6     -0.103900
     34 H21         1.6110    1.5430   -0.7120 h1        1 VX6      0.040200
     35 H22         1.3810   -0.2250   -1.0990 h1        1 VX6      0.040200
     36 H31         2.7490    0.2630    0.9680 h1        1 VX6      0.055450
     37 H32         1.3450   -0.8750    1.2140 h1        1 VX6      0.055450
     38 H51        -0.6100    2.0460    2.7450 h1        1 VX6      0.055450
     39 H52        -0.8320    0.2710    2.3730 h1        1 VX6      0.055450
     40 H61        -1.9680    1.5120    0.6660 h1        1 VX6      0.040200
     41 H62        -0.5900    2.6830    0.4390 h1        1 VX6      0.040200
     42 H71        -0.5010    0.3430   -2.4690 h1        1 VX6      0.033367
     43 H72        -1.9680    1.1050   -1.6970 h1        1 VX6      0.033367
     44 H73        -0.4960    2.1190   -2.0560 h1        1 VX6      0.033367
     45 H9          3.7890    1.0020    2.5190 ha        1 VX6      0.158000
     46 H14         5.5040    0.7410    5.7860 hn        1 VX6      0.449800
     47 H17         6.6630   -1.4950    4.1070 ha        1 VX6      0.171000
     48 H20         6.1080    2.4910    2.7190 hn        1 VX6      0.328700
     49 H211        8.1960   -1.3080    0.6510 hc        1 VX6      0.050033
     50 H212        8.3420   -2.2210    2.2150 hc        1 VX6      0.050033
     51 H213        9.4930   -0.8660    1.8390 hc        1 VX6      0.050033
     52 H25         0.7080    2.4900    9.1350 ha        1 VX6      0.145000
     53 H26         1.8980    2.4460   11.2910 ha        1 VX6      0.153500
     54 H28         3.8830   -1.2510   10.0810 ha        1 VX6      0.153500
     55 H29         2.6450   -1.1870    7.9560 ha        1 VX6      0.145000
     56 H30         3.3960    1.3690   12.6990 hn        1 VX6      0.318500
     57 H33         4.3650    0.3520   14.6510 hc        1 VX6      0.095700
     58 H341        6.2840   -1.0970   15.5170 hc        1 VX6      0.084700
     59 H342        6.6750   -1.6150   13.7970 hc        1 VX6      0.084700
     60 H351        6.7080    1.3690   14.8600 hc        1 VX6      0.084700
     61 H352        7.1120    0.8330   13.1540 hc        1 VX6      0.084700
@<TRIPOS>BOND
     1    1    2 1   
     2    1    6 1   
     3    1    7 1   
     4    2    3 1   
     5    2   34 1   
     6    2   35 1   
     7    3    4 1   
     8    3   36 1   
     9    3   37 1   
    10    4    5 1   
    11    4    8 1   
    12    5    6 1   
    13    5   38 1   
    14    5   39 1   
    15    6   40 1   
    16    6   41 1   
    17    7   42 1   
    18    7   43 1   
    19    7   44 1   
    20    8    9 ar  
    21    8   13 ar  
    22    9   10 ar  
    23    9   45 1   
    24   10   11 ar  
    25   10   14 1   
    26   11   12 ar  
    27   12   13 ar  
    28   12   21 1   
    29   14   15 1   
    30   14   46 1   
    31   15   16 2   
    32   15   19 1   
    33   16   17 1   
    34   16   47 1   
    35   17   18 2   
    36   17   20 1   
    37   18   19 1   
    38   19   48 1   
    39   20   49 1   
    40   20   50 1   
    41   20   51 1   
    42   21   22 1   
    43   22   23 ar  
    44   22   27 ar  
    45   23   24 ar  
    46   23   52 1   
    47   24   25 ar  
    48   24   53 1   
    49   25   26 ar  
    50   25   28 1   
    51   26   27 ar  
    52   26   54 1   
    53   27   55 1   
    54   28   29 1   
    55   28   56 1   
    56   29   30 2   
    57   29   31 1   
    58   31   32 1   
    59   31   33 1   
    60   31   57 1   
    61   32   33 1   
    62   32   58 1   
    63   32   59 1   
    64   33   60 1   
    65   33   61 1   
@<TRIPOS>SUBSTRUCTURE
     1 VX6         1 TEMP              0 ****  ****    0 ROOT
