@<TRIPOS>MOLECULE
VXA
    8     7     1     0     0
SMALL
bcc


@<TRIPOS>ATOM
      1 P1          0.0290   -0.0570    0.0480 p5        1 VXA      1.270600
      2 O1          1.5100    0.0300    0.0040 o         1 VXA     -0.887500
      3 O2         -0.7050    0.0290    1.3360 o         1 VXA     -0.887500
      4 C1         -0.4850   -1.4290   -0.8080 c3        1 VXA     -0.357300
      5 H11        -1.5910   -1.4620   -0.9020 hc        1 VXA      0.044033
      6 H12        -0.0480   -1.4610   -1.8290 hc        1 VXA      0.044033
      7 H13        -0.1650   -2.3520   -0.2770 hc        1 VXA      0.044033
      8 HP1        -0.4730    0.8610   -0.7860 hp        1 VXA     -0.269400
@<TRIPOS>BOND
     1    1    2 1   
     2    1    3 1   
     3    1    4 1   
     4    1    8 1   
     5    4    5 1   
     6    4    6 1   
     7    4    7 1   
@<TRIPOS>SUBSTRUCTURE
     1 VXA         1 TEMP              0 ****  ****    0 ROOT
