@<TRIPOS>MOLECULE
VXA
    8     7     1     0     0
SMALL
bcc


@<TRIPOS>ATOM
      1 P1          2.3160    0.0310   -0.3710 p5        1 VXA      1.270600
      2 O1          2.8180    1.2460    0.3190 o         1 VXA     -0.887500
      3 O2          2.1100    0.0170   -1.8410 o         1 VXA     -0.887500
      4 C1          0.9120   -0.5240    0.4060 c3        1 VXA     -0.357300
      5 H11         1.0700   -0.6430    1.4980 hc        1 VXA      0.044033
      6 H12         0.0840    0.2050    0.2630 hc        1 VXA      0.044033
      7 H13         0.5760   -1.4990   -0.0060 hc        1 VXA      0.044033
      8 HP1         3.1070   -0.9980   -0.0450 hp        1 VXA     -0.269400
@<TRIPOS>BOND
     1    1    2 1   
     2    1    3 1   
     3    1    4 1   
     4    1    8 1   
     5    4    5 1   
     6    4    6 1   
     7    4    7 1   
@<TRIPOS>SUBSTRUCTURE
     1 VXA         1 TEMP              0 ****  ****    0 ROOT
