@<TRIPOS>MOLECULE
VXO
   60    61     1     0     0
SMALL
bcc


@<TRIPOS>ATOM
      1 C1          0.1000    1.1620    0.8540 c3        1 VXO     -0.133000
      2 C2          1.5310    1.2630    1.2970 c2        1 VXO     -0.104000
      3 C3         -0.7650    0.7220    1.9990 c2        1 VXO     -0.100000
      4 C4         -4.8000   -6.2440    7.0260 ca        1 VXO     -0.138000
      5 C5          1.8840    0.4090    2.2410 c1        1 VXO     -0.337000
      6 C6         -4.3000   -6.7840    8.2150 ca        1 VXO     -0.053000
      7 C7         -0.8300    0.0180    5.4480 c1        1 VXO      0.270000
      8 C8         -0.3020    0.0380    3.0720 c2        1 VXO     -0.062000
      9 C9         -4.8110   -3.9510    7.8740 ca        1 VXO     -0.105000
     10 C10        -5.0530   -4.8670    6.8260 ca        1 VXO      0.020000
     11 C11        -1.1390   -0.3460    4.2060 c2        1 VXO     -0.382000
     12 C12         1.1120   -0.4360    2.9860 c2        1 VXO      0.154000
     13 C13        -4.0400   -5.8700    9.2190 ca        1 VXO     -0.036000
     14 C14        -4.2840   -4.4890    9.0420 ca        1 VXO     -0.018000
     15 C16        -2.1370   -2.6290    3.9140 c2        1 VXO      0.301000
     16 C17        -3.4450   -4.8050   11.1100 c1        1 VXO      0.201000
     17 C20        -2.3780   -1.1300    3.9280 c3        1 VXO     -0.100000
     18 C21        -5.5440   -4.5110    5.4700 cy        1 VXO     -0.099000
     19 C22        -6.8110   -2.8710    4.7560 cy        1 VXO     -0.165000
     20 C23        -4.5630   -3.0810    3.5480 c3        1 VXO     -0.022000
     21 C24        -7.0820   -4.2980    5.2870 cy        1 VXO     -0.096000
     22 C25        -5.2860   -3.0940    4.8900 cy        1 VXO     -0.149000
     23 N26         1.5240   -1.5620    3.6250 n3        1 VXO     -0.317000
     24 N27        -3.1850   -3.4730    3.5870 n         1 VXO     -0.373000
     25 O28        -4.0500   -1.6350    8.0260 oh        1 VXO     -0.281000
     26 O29        -6.1760   -1.9400    7.6870 o         1 VXO     -0.285000
     27 O30        -1.0240   -3.1460    4.1470 o         1 VXO     -0.382000
     28 O31        -3.5240   -6.0240   10.5190 os        1 VXO     -0.147000
     29 O32        -3.8970   -3.8600   10.2390 os        1 VXO     -0.163000
     30 H1         -0.2370    2.1760    0.5110 hc        1 VXO      0.105500
     31 H2         -0.0420    0.4500   -0.0030 hc        1 VXO      0.105500
     32 H3         -1.8290    0.9920    1.9160 ha        1 VXO      0.126000
     33 H5          2.1540    2.0680    0.8960 ha        1 VXO      0.140000
     34 H4         -5.0100   -6.9410    6.1970 ha        1 VXO      0.152000
     35 H6         -4.1210   -7.8610    8.3390 ha        1 VXO      0.171000
     36 H7          2.3620   -1.9880    3.3050 hn        1 VXO      0.233500
     37 H26         0.8410   -2.1440    4.0570 hn        1 VXO      0.233500
     38 H211       -5.1770   -5.2910    4.7490 hc        1 VXO      0.101000
     39 H212       -5.0950   -3.7830    2.8410 h1        1 VXO      0.098000
     40 H201       -3.1610   -0.9040    4.7040 hc        1 VXO      0.119000
     41 H202       -2.7860   -0.8170    2.9270 hc        1 VXO      0.119000
     42 H27        -3.2620   -2.1140    8.3230 ho        1 VXO      0.241000
     43 H171       -1.0170   -4.4240   10.9100 ha        1 VXO      0.003500
     44 H172       -1.1870   -4.4830   10.2570 ha        1 VXO      0.003500
     45 H181       -8.9950   -4.0890    6.2430 hc        1 VXO      0.088000
     46 H182       -7.9600   -5.4240    6.9050 hc        1 VXO      0.088000
     47 H183       -7.5830   -3.6930    7.3060 hc        1 VXO      0.088000
     48 H24        -8.5710    0.4730    2.5300 hc        1 VXO      0.066750
     49 H191       -8.8050    1.0540    4.2340 hc        1 VXO      0.066750
     50 H192      -10.0160   -0.0710    3.4840 hc        1 VXO      0.066750
     51 H193       -8.3610   -0.6780    3.9200 hc        1 VXO      0.066750
     52 H25        -7.1610   -2.6970    3.7160 hc        1 VXO      0.109000
     53 H221       -7.4760   -4.9770    4.4900 hc        1 VXO      0.094000
     54 H222       -7.1910   -2.0700    5.4290 hc        1 VXO      0.109000
     55 H231       -4.7950   -2.3860    5.5960 hc        1 VXO      0.109000
     56 H232       -4.6470   -2.0410    3.1190 h1        1 VXO      0.098000
     57 C18        -7.9480   -4.3810    6.5040 c3        1 VXO     -0.215000
     58 C19        -8.9380    0.1950    3.5410 c3        1 VXO     -0.268000
     59 H272       -3.0040   -4.4490    3.6690 hn        1 VXO      0.228000
     60 C15        -5.0910   -2.5000    7.8440 c2        1 VXO      0.356000
@<TRIPOS>BOND
     1    1    2 1   
     2    1    3 1   
     3    1   30 1   
     4    1   31 1   
     5    2    5 1   
     6    2   33 1   
     7    3    8 1   
     8    3   32 1   
     9    4    6 1   
    10    4   10 1   
    11    4   34 1   
    12    5   12 1   
    13    6   13 1   
    14    6   35 1   
    15    7   11 1   
    16    8   11 1   
    17    8   12 1   
    18    9   10 1   
    19    9   14 1   
    20    9   60 1   
    21   10   18 1   
    22   11   17 1   
    23   12   23 1   
    24   13   14 1   
    25   13   28 1   
    26   14   29 1   
    27   15   17 1   
    28   15   24 1   
    29   15   27 1   
    30   16   28 1   
    31   16   29 1   
    32   17   40 1   
    33   17   41 1   
    34   18   21 1   
    35   18   22 1   
    36   18   38 1   
    37   19   21 1   
    38   19   22 1   
    39   19   52 1   
    40   19   54 1   
    41   20   22 1   
    42   20   24 1   
    43   20   39 1   
    44   20   56 1   
    45   21   53 1   
    46   21   57 1   
    47   22   55 1   
    48   23   36 1   
    49   23   37 1   
    50   24   59 1   
    51   25   42 1   
    52   25   60 1   
    53   26   60 1   
    54   43   44 1   
    55   45   57 1   
    56   46   57 1   
    57   47   57 1   
    58   48   58 1   
    59   49   58 1   
    60   50   58 1   
    61   51   58 1   
@<TRIPOS>SUBSTRUCTURE
     1 VXO         1 TEMP              0 ****  ****    0 ROOT
