@<TRIPOS>MOLECULE
VXO
   60    61     1     0     0
SMALL
bcc


@<TRIPOS>ATOM
      1 C1          2.9690    0.0030    1.5210 c1        1 VXO      0.245000
      2 C2          3.4620   -0.5150    2.8400 c3        1 VXO     -0.329000
      3 C3         -0.5300    0.4370    1.0800 c2        1 VXO     -0.142000
      4 C4         -4.4610   -6.2500    6.0700 ca        1 VXO     -0.139000
      5 C5          2.0340   -0.3040    2.5890 c2        1 VXO     -0.396000
      6 C6         -3.4950   -7.0680    6.6700 ca        1 VXO     -0.056000
      7 C7         -1.0680   -0.7240    4.4940 c1        1 VXO     -0.247000
      8 C8         -0.4680   -0.0050    2.3390 c2        1 VXO     -0.072000
      9 C9         -4.6730   -4.8130    8.0430 ca        1 VXO     -0.060000
     10 C10        -5.0460   -5.1510    6.7200 ca        1 VXO     -0.002000
     11 C11        -1.5590   -0.2510    3.3090 c2        1 VXO     -0.262000
     12 C12         0.7890   -0.3600    3.0330 c2        1 VXO      0.097000
     13 C13        -3.1390   -6.7260    7.9600 ca        1 VXO     -0.052000
     14 C14        -3.7130   -5.6180    8.6330 ca        1 VXO      0.016000
     15 C16        -3.8840   -1.1960    3.0940 c2        1 VXO      0.304000
     16 C17        -2.2360   -6.6040   10.0170 c1        1 VXO      0.183000
     17 C20        -2.9720    0.0200    3.0110 c3        1 VXO     -0.091000
     18 C21        -6.0770   -4.3500    6.0000 c3        1 VXO     -0.146000
     19 C22        -6.7130   -2.1100    5.0900 c3        1 VXO     -0.138000
     20 C23        -4.5660   -3.1950    4.3670 c3        1 VXO     -0.024000
     21 C24        -7.4400   -1.5040    6.2330 c2        1 VXO     -0.169000
     22 C25        -5.5540   -2.9940    5.5320 c3        1 VXO     -0.121000
     23 N26         0.4100   -0.8210    4.4000 n4        1 VXO      0.002000
     24 N27        -3.6870   -2.0900    4.1230 n         1 VXO     -0.373000
     25 O28        -4.3810   -2.8070    9.2900 oh        1 VXO     -0.294000
     26 O29        -6.4760   -3.4250    8.9320 o         1 VXO     -0.350000
     27 O30        -4.7910   -1.3600    2.2480 o         1 VXO     -0.397000
     28 O31        -2.2240   -7.3080    8.8570 os        1 VXO     -0.152000
     29 O32        -3.1260   -5.5820    9.9100 os        1 VXO     -0.146000
     30 H1          0.3720    0.5720    0.4650 ha        1 VXO      0.136500
     31 H2          4.0060    0.1620    3.5310 hc        1 VXO      0.151000
     32 H3         -1.4850    0.6840    0.5960 ha        1 VXO      0.136500
     33 H5          3.8620   -1.5470    2.9140 hc        1 VXO      0.151000
     34 H4         -4.7760   -6.4820    5.0390 ha        1 VXO      0.154000
     35 H6         -3.0520   -7.9260    6.1470 ha        1 VXO      0.166000
     36 H7          0.8310   -0.2280    5.1150 hn        1 VXO      0.234500
     37 H26         0.6970   -1.7880    4.5500 hn        1 VXO      0.234500
     38 H211       -6.4570   -4.9240    5.1130 hc        1 VXO      0.114000
     39 H212       -3.9280   -4.0980    4.6000 h1        1 VXO      0.095500
     40 H201       -3.3740    0.7810    3.7370 hc        1 VXO      0.111500
     41 H202       -3.0870    0.4450    1.9770 hc        1 VXO      0.111500
     42 H27        -5.1550   -3.4090    3.4290 h1        1 VXO      0.095500
     43 H171       -0.1890   -5.2610    9.8020 ha        1 VXO      0.003000
     44 H172       -0.4270   -5.1800    9.1730 ha        1 VXO      0.003000
     45 H181       -8.2180    0.1970    5.2000 ha        1 VXO      0.111500
     46 H182       -8.6900    0.0470    6.9860 ha        1 VXO      0.111500
     47 H183       -4.8560   -2.1050    9.7660 ho        1 VXO      0.249000
     48 H24        -7.3820   -2.0560    7.1890 ha        1 VXO      0.134000
     49 H191      -10.9320   -2.8350    4.0310 hc        1 VXO      0.067750
     50 H192       -9.5420   -1.7030    4.3320 hc        1 VXO      0.067750
     51 H193      -10.5300   -1.5500    2.8130 hc        1 VXO      0.067750
     52 H25        -6.9520   -4.1810    6.6900 hc        1 VXO      0.114000
     53 H221       -7.4380   -2.7210    4.4820 hc        1 VXO      0.102500
     54 H222       -9.4200   -2.9690    3.0350 hc        1 VXO      0.067750
     55 H231       -5.0270   -2.5020    6.3970 hc        1 VXO      0.096000
     56 H232       -6.3240   -1.3060    4.4070 hc        1 VXO      0.102500
     57 C18        -8.1420   -0.3770    6.1340 c2        1 VXO     -0.227000
     58 C19       -10.1070   -2.2640    3.5530 c3        1 VXO     -0.271000
     59 H272       -2.9990   -1.8800    4.8140 hn        1 VXO      0.254000
     60 C15        -5.2800   -3.6800    8.7580 c2        1 VXO      0.365000
@<TRIPOS>BOND
     1    1    2 1   
     2    1    5 1   
     3    2    5 1   
     4    2   31 1   
     5    2   33 1   
     6    3    8 1   
     7    3   30 1   
     8    3   32 1   
     9    4    6 1   
    10    4   10 1   
    11    4   34 1   
    12    5   12 1   
    13    6   13 1   
    14    6   35 1   
    15    7   11 1   
    16    7   23 1   
    17    8   11 1   
    18    8   12 1   
    19    9   10 1   
    20    9   14 1   
    21    9   60 1   
    22   10   18 1   
    23   11   17 1   
    24   12   23 1   
    25   13   14 1   
    26   13   28 1   
    27   14   29 1   
    28   15   17 1   
    29   15   24 1   
    30   15   27 1   
    31   16   28 1   
    32   16   29 1   
    33   17   40 1   
    34   17   41 1   
    35   18   22 1   
    36   18   38 1   
    37   18   52 1   
    38   19   21 1   
    39   19   22 1   
    40   19   53 1   
    41   19   56 1   
    42   20   22 1   
    43   20   24 1   
    44   20   39 1   
    45   20   42 1   
    46   21   48 1   
    47   21   57 1   
    48   22   55 1   
    49   23   36 1   
    50   23   37 1   
    51   24   59 1   
    52   25   47 1   
    53   25   60 1   
    54   26   60 1   
    55   43   44 1   
    56   45   57 1   
    57   46   57 1   
    58   49   58 1   
    59   50   58 1   
    60   51   58 1   
    61   54   58 1   
@<TRIPOS>SUBSTRUCTURE
     1 VXO         1 TEMP              0 ****  ****    0 ROOT
