@<TRIPOS>MOLECULE
VXO
   60    61     1     0     0
SMALL
bcc


@<TRIPOS>ATOM
      1 C1          1.4000   -0.2650    1.8440 c3        1 VXO     -0.119000
      2 C2          2.3190   -0.3300    3.0280 c2        1 VXO     -0.049000
      3 C3         -0.0400   -0.3060    2.2860 c2        1 VXO     -0.170000
      4 C4         -3.9760   -5.9880    5.6230 ca        1 VXO     -0.136000
      5 C5          1.8650   -1.0870    4.0250 c1        1 VXO     -0.168000
      6 C6         -2.7210   -6.1830    6.2130 ca        1 VXO     -0.057000
      7 C7         -1.5150   -2.0250    5.1310 c1        1 VXO     -0.245000
      8 C8         -0.4250   -0.7630    3.4920 c2        1 VXO     -0.024000
      9 C9         -4.6520   -4.3030    7.2690 ca        1 VXO     -0.102000
     10 C10        -4.9210   -5.0680    6.1110 ca        1 VXO      0.013000
     11 C11        -1.7060   -1.1270    4.1100 c2        1 VXO     -0.255000
     12 C12         0.6250   -1.4140    4.3540 c2        1 VXO     -0.101000
     13 C13        -2.4520   -5.3990    7.3180 ca        1 VXO     -0.047000
     14 C14        -3.3980   -4.4800    7.8320 ca        1 VXO     -0.003000
     15 C16        -3.9910   -1.5680    3.1180 c2        1 VXO      0.300000
     16 C17        -1.5390   -4.3670    9.0980 c1        1 VXO      0.182000
     17 C20        -2.9870   -0.5640    3.6630 c3        1 VXO     -0.092000
     18 C21        -6.2130   -4.9070    5.3740 c3        1 VXO     -0.104000
     19 C22        -7.0820   -2.7360    4.4410 c2        1 VXO     -0.106000
     20 C23        -5.1010   -3.7490    3.4030 c3        1 VXO      0.003000
     21 C24        -8.2340   -2.5190    5.3590 c3        1 VXO     -0.093000
     22 C25        -6.1970   -3.7420    4.4460 c2        1 VXO     -0.179000
     23 N26        -0.0490   -2.2990    5.2940 ny        1 VXO      0.039000
     24 N27        -4.0250   -2.8340    3.6670 ns        1 VXO     -0.364000
     25 O28        -5.2470   -2.1390    8.2530 oh        1 VXO     -0.275000
     26 O29        -6.8240   -3.6310    8.1130 o         1 VXO     -0.296000
     27 O30        -4.7610   -1.2390    2.1890 o         1 VXO     -0.394000
     28 O31        -1.3100   -5.2950    8.1360 os        1 VXO     -0.157000
     29 O32        -2.7900   -3.8590    8.9400 os        1 VXO     -0.159000
     30 H1          1.6090    0.7060    1.3170 hc        1 VXO      0.123000
     31 H2          1.5630   -1.0930    1.1020 hc        1 VXO      0.123000
     32 H3         -0.7720    0.0070    1.5270 ha        1 VXO      0.157000
     33 H5          3.2010    0.3180    3.0760 ha        1 VXO      0.161000
     34 H4         -4.2320   -6.5850    4.7310 ha        1 VXO      0.154000
     35 H6         -1.9990   -6.9100    5.8180 ha        1 VXO      0.164000
     36 H7          0.2240   -2.0870    6.2560 hn        1 VXO      0.233000
     37 H26         0.1430   -3.2800    5.0950 hn        1 VXO      0.233000
     38 H211       -6.4130   -5.8360    4.7700 hc        1 VXO      0.116000
     39 H212       -4.6600   -4.7850    3.3370 h1        1 VXO      0.100000
     40 H201       -3.4930   -0.0400    4.5220 hc        1 VXO      0.112500
     41 H202       -2.8130    0.1990    2.8560 hc        1 VXO      0.112500
     42 H27        -6.9710   -1.9420    3.6740 ha        1 VXO      0.142000
     43 H171        0.1550   -2.7070    8.3240 ha        1 VXO      0.003250
     44 H172       -0.3690   -2.2840    8.4120 ha        1 VXO      0.003250
     45 H181       -7.8780   -0.3660    5.4150 hc        1 VXO      0.077167
     46 H182       -7.1660   -1.2980    6.8070 hc        1 VXO      0.077167
     47 H183       -8.9530   -1.0010    6.7310 hc        1 VXO      0.077167
     48 H24        -8.3080   -3.3480    6.1200 hc        1 VXO      0.106000
     49 H191       -9.6680   -3.4450    4.0090 hc        1 VXO      0.077167
     50 H192      -10.3920   -2.3370    5.2490 hc        1 VXO      0.077167
     51 H193       -9.5100   -1.6490    3.8220 hc        1 VXO      0.077167
     52 H25        -5.1020    0.2850    8.1510 ha        1 VXO      0.003250
     53 H221       -7.0480   -4.8190    6.1230 hc        1 VXO      0.116000
     54 H222       -5.7550    0.1400    8.0400 ha        1 VXO      0.003250
     55 H231       -4.2950   -2.0230    8.1050 ho        1 VXO      0.242000
     56 H232       -5.5510   -3.4940    2.3980 h1        1 VXO      0.100000
     57 C18        -8.0450   -1.2170    6.1190 c3        1 VXO     -0.205500
     58 C19        -9.5250   -2.4860    4.5610 c3        1 VXO     -0.205500
     59 H272       -3.4770   -3.0010    4.4840 hn        1 VXO      0.242000
     60 C15        -5.6390   -3.3900    7.8800 c2        1 VXO      0.358000
@<TRIPOS>BOND
     1    1    2 1   
     2    1    3 1   
     3    1   30 1   
     4    1   31 1   
     5    2    5 1   
     6    2   33 1   
     7    3    8 1   
     8    3   32 1   
     9    4    6 1   
    10    4   10 1   
    11    4   34 1   
    12    5   12 1   
    13    6   13 1   
    14    6   35 1   
    15    7   11 1   
    16    7   23 1   
    17    8   11 1   
    18    8   12 1   
    19    9   10 1   
    20    9   14 1   
    21    9   60 1   
    22   10   18 1   
    23   11   17 1   
    24   12   23 1   
    25   13   14 1   
    26   13   28 1   
    27   14   29 1   
    28   15   17 1   
    29   15   24 1   
    30   15   27 1   
    31   16   28 1   
    32   16   29 1   
    33   17   40 1   
    34   17   41 1   
    35   18   22 1   
    36   18   38 1   
    37   18   53 1   
    38   19   21 1   
    39   19   22 1   
    40   19   42 1   
    41   20   22 1   
    42   20   24 1   
    43   20   39 1   
    44   20   56 1   
    45   21   48 1   
    46   21   57 1   
    47   21   58 1   
    48   23   36 1   
    49   23   37 1   
    50   24   59 1   
    51   25   55 1   
    52   25   60 1   
    53   26   60 1   
    54   43   44 1   
    55   45   57 1   
    56   46   57 1   
    57   47   57 1   
    58   49   58 1   
    59   50   58 1   
    60   51   58 1   
    61   52   54 1   
@<TRIPOS>SUBSTRUCTURE
     1 VXO         1 TEMP              0 ****  ****    0 ROOT
