@<TRIPOS>MOLECULE
VXO
   59    62     1     0     0
SMALL
bcc


@<TRIPOS>ATOM
      1 C1         -5.9640   -1.4360   -0.4480 ca        1 VXO     -0.165000
      2 C2         -5.3970   -2.1710   -1.5040 ca        1 VXO     -0.139000
      3 C3         -5.3130   -0.3390    0.0960 ca        1 VXO     -0.100000
      4 C4          2.4530   -1.2600    2.1800 ca        1 VXO     -0.152000
      5 C5         -4.1690   -1.8300   -2.0490 ca        1 VXO     -0.132000
      6 C6          2.2920   -2.6560    2.1950 ca        1 VXO     -0.138000
      7 C7         -2.0590    0.9440   -1.0070 cc        1 VXO     -0.044100
      8 C8         -4.0720    0.0380   -0.4170 ca        1 VXO     -0.075800
      9 C9          1.9170   -1.0970   -0.2120 ca        1 VXO     -0.080600
     10 C10         2.2760   -0.4970    1.0230 ca        1 VXO     -0.063300
     11 C11        -3.1260    1.0870   -0.1090 cd        1 VXO     -0.225400
     12 C12        -3.4960   -0.7220   -1.5120 ca        1 VXO     -0.062200
     13 C13         1.9440   -3.2360    0.9940 ca        1 VXO      0.034100
     14 C14         1.7580   -2.4700   -0.1860 ca        1 VXO      0.065100
     15 C16        -1.9580    2.3700    1.7060 c         1 VXO      0.643100
     16 C17         1.3830   -4.6620   -0.6860 c3        1 VXO      0.319200
     17 C20        -3.2560    2.0860    0.9560 c3        1 VXO     -0.067200
     18 C21         2.5010    0.9780    1.0820 c3        1 VXO     -0.032100
     19 C22         1.4780    3.2630    0.8170 c3        1 VXO     -0.070400
     20 C23         0.3120    1.5450    2.2090 c3        1 VXO      0.076000
     21 C24         2.0290    3.6590   -0.5460 c3        1 VXO     -0.067700
     22 C25         1.2070    1.7750    0.9720 c3        1 VXO     -0.106700
     23 N26        -2.2870   -0.1200   -1.8710 na        1 VXO     -0.146400
     24 N27        -1.0800    1.3180    1.9110 n         1 VXO     -0.532900
     25 O28         2.7450    0.1510   -2.0750 o         1 VXO     -0.833300
     26 O29         0.5360   -0.0100   -1.8320 o         1 VXO     -0.833300
     27 O30        -1.7530    3.5060    2.1860 o         1 VXO     -0.635100
     28 O31         1.7220   -4.5850    0.7160 os        1 VXO     -0.353900
     29 O32         1.4130   -3.3310   -1.2310 os        1 VXO     -0.318900
     30 H1         -6.9410   -1.7440   -0.0490 ha        1 VXO      0.113000
     31 H2         -5.9430   -3.0380   -1.9040 ha        1 VXO      0.114000
     32 H3         -5.7620    0.2310    0.9220 ha        1 VXO      0.122000
     33 H5         -3.7310   -2.4090   -2.8720 ha        1 VXO      0.130000
     34 H4          2.7310   -0.7580    3.1190 ha        1 VXO      0.120000
     35 H6          2.4340   -3.2430    3.1080 ha        1 VXO      0.133000
     36 H7         -1.1230    1.5130   -1.1030 h4        1 VXO      0.208000
     37 H26        -1.5490   -0.5440   -2.3920 hn        1 VXO      0.345700
     38 H211        3.0330    1.2520    2.0310 hc        1 VXO      0.056700
     39 H212        3.1650    1.2570    0.2150 hc        1 VXO      0.056700
     40 H201       -3.6110    3.0670    0.5340 hc        1 VXO      0.066200
     41 H202       -4.0170    1.7470    1.7100 hc        1 VXO      0.066200
     42 H27        -1.2530    0.4980    1.3650 hn        1 VXO      0.312500
     43 H171        2.1550   -5.2820   -1.2050 h2        1 VXO      0.052700
     44 H172        0.3450   -5.0670   -0.7790 h2        1 VXO      0.052700
     45 H181        1.0460    2.2440   -1.8780 hc        1 VXO      0.034033
     46 H182        0.0250    3.6780   -1.3980 hc        1 VXO      0.034033
     47 H183        1.3650    3.8750   -2.6000 hc        1 VXO      0.034033
     48 H24         2.9750    3.0780   -0.7390 hc        1 VXO      0.061700
     49 H191        1.4520    5.7490   -0.3720 hc        1 VXO      0.034033
     50 H192        3.1000    5.3670    0.2750 hc        1 VXO      0.034033
     51 H193        2.8230    5.4340   -1.5140 hc        1 VXO      0.034033
     52 H25         0.6790    1.4070    0.0410 hc        1 VXO      0.100700
     53 H221        2.2040    3.5880    1.6090 hc        1 VXO      0.037200
     54 H222        0.5170    3.8200    0.9950 hc        1 VXO      0.037200
     55 H231        0.6770    0.6300    2.7600 h1        1 VXO      0.056200
     56 H232        0.3870    2.4290    2.9030 h1        1 VXO      0.056200
     57 C15         1.7250   -0.2700   -1.4720 c         1 VXO      0.933200
     58 C18         1.0570    3.3470   -1.6650 c3        1 VXO     -0.097600
     59 C19         2.3700    5.1370   -0.5380 c3        1 VXO     -0.097600
@<TRIPOS>BOND
     1    1    2 ar  
     2    1    3 ar  
     3    1   30 1   
     4    2    5 ar  
     5    2   31 1   
     6    3    8 ar  
     7    3   32 1   
     8    4    6 ar  
     9    4   10 ar  
    10    4   34 1   
    11    5   12 ar  
    12    5   33 1   
    13    6   13 ar  
    14    6   35 1   
    15    7   11 2   
    16    7   23 1   
    17    7   36 1   
    18    8   11 1   
    19    8   12 ar  
    20    9   10 ar  
    21    9   14 ar  
    22    9   57 1   
    23   10   18 1   
    24   11   17 1   
    25   12   23 1   
    26   13   14 ar  
    27   13   28 1   
    28   14   29 1   
    29   15   17 1   
    30   15   24 1   
    31   15   27 2   
    32   16   28 1   
    33   16   29 1   
    34   16   43 1   
    35   16   44 1   
    36   17   40 1   
    37   17   41 1   
    38   18   22 1   
    39   18   38 1   
    40   18   39 1   
    41   19   21 1   
    42   19   22 1   
    43   19   53 1   
    44   19   54 1   
    45   20   22 1   
    46   20   24 1   
    47   20   55 1   
    48   20   56 1   
    49   21   48 1   
    50   21   58 1   
    51   21   59 1   
    52   22   52 1   
    53   23   37 1   
    54   24   42 1   
    55   25   57 1   
    56   26   57 1   
    57   45   58 1   
    58   46   58 1   
    59   47   58 1   
    60   49   59 1   
    61   50   59 1   
    62   51   59 1   
@<TRIPOS>SUBSTRUCTURE
     1 VXO         1 TEMP              0 ****  ****    0 ROOT
