@<TRIPOS>MOLECULE
VXQ
   22    23     1     0     0
SMALL
bcc


@<TRIPOS>ATOM
      1 N           3.8410   -0.0100   -0.5190 n3        1 VXQ     -0.917800
      2 C5         -2.0830   -1.5030    0.1760 c3        1 VXQ     -0.052100
      3 CB          2.9190   -0.4310    0.5120 c3        1 VXQ      0.209100
      4 OE         -2.5020    0.8130   -0.4300 os        1 VXQ     -0.321900
      5 CG          1.4890   -0.0720    0.2300 ca        1 VXQ     -0.132300
      6 CM         -3.1600   -0.4650   -0.1950 c3        1 VXQ      0.119400
      7 CZ         -1.1430    0.6240   -0.2330 ca        1 VXQ      0.119100
      8 CD1         0.4950   -1.0600    0.3550 ca        1 VXQ     -0.075000
      9 CD2         1.1510    1.2380   -0.1210 ca        1 VXQ     -0.077000
     10 CE1        -0.8210   -0.7100    0.1250 ca        1 VXQ     -0.163300
     11 CE2        -0.1770    1.6110   -0.3620 ca        1 VXQ     -0.155000
     12 HN          4.7240   -0.4630   -0.3980 hn        1 VXQ      0.351300
     13 HNA         3.4850   -0.2170   -1.4310 hn        1 VXQ      0.351300
     14 H5A        -2.0710   -2.3470   -0.5560 hc        1 VXQ      0.063200
     15 HB          2.9790   -1.5440    0.7100 h1        1 VXQ      0.031700
     16 HBA         3.2330    0.0870    1.4660 h1        1 VXQ      0.031700
     17 HM         -3.6920   -0.7190   -1.1430 h1        1 VXQ      0.058700
     18 HMA        -3.8890   -0.2900    0.6340 h1        1 VXQ      0.058700
     19 HD1         0.7640   -2.0900    0.6320 ha        1 VXQ      0.134000
     20 HD2         1.9460    1.9960   -0.2120 ha        1 VXQ      0.150000
     21 HE2        -0.4430    2.6390   -0.6390 ha        1 VXQ      0.151000
     22 H5         -2.2650   -1.9240    1.1950 hc        1 VXQ      0.063200
@<TRIPOS>BOND
     1    1    3 1   
     2    1   12 1   
     3    1   13 1   
     4    2    6 1   
     5    2   10 1   
     6    2   14 1   
     7    2   22 1   
     8    3    5 1   
     9    3   15 1   
    10    3   16 1   
    11    4    6 1   
    12    4    7 1   
    13    5    8 ar  
    14    5    9 ar  
    15    6   17 1   
    16    6   18 1   
    17    7   10 ar  
    18    7   11 ar  
    19    8   10 ar  
    20    8   19 1   
    21    9   11 ar  
    22    9   20 1   
    23   11   21 1   
@<TRIPOS>SUBSTRUCTURE
     1 VXQ         1 TEMP              0 ****  ****    0 ROOT
