@<TRIPOS>MOLECULE
VXQ
   23    24     1     0     0
SMALL
bcc


@<TRIPOS>ATOM
      1 N           0.0510   -0.0220   -0.1360 n4        1 VXQ     -0.848600
      2 C5          2.8540    0.0100    4.9660 c3        1 VXQ     -0.061100
      3 CB          1.5490   -0.0120    0.0210 c3        1 VXQ      0.188100
      4 OE          3.1460    2.4180    4.8130 os        1 VXQ     -0.290900
      5 CG          1.9390    0.6590    1.2840 ca        1 VXQ     -0.256300
      6 CM          3.2480    1.2850    5.7370 c3        1 VXQ      0.116400
      7 CZ          2.7460    1.9330    3.5960 ca        1 VXQ      0.185100
      8 CD1         2.1440   -0.1150    2.4460 ca        1 VXQ     -0.047000
      9 CD2         2.1480    2.0450    1.2960 ca        1 VXQ     -0.055000
     10 CE1         2.5450    0.5210    3.5990 ca        1 VXQ     -0.155300
     11 CE2         2.5530    2.7090    2.4540 ca        1 VXQ     -0.153000
     12 HN         -0.2150   -0.4770   -1.0130 hn        1 VXQ      0.454800
     13 HNA        -0.3020    0.9400   -0.1330 hn        1 VXQ      0.454800
     14 HB          1.8930   -1.0870    0.0030 hx        1 VXQ      0.109200
     15 HBA         1.9730    0.5250   -0.8760 hx        1 VXQ      0.109200
     16 HM          2.5510    1.5170    6.5790 h1        1 VXQ      0.085200
     17 HMA         4.3100    1.2720    6.0850 h1        1 VXQ      0.085200
     18 HD1         2.0030   -1.2060    2.4250 ha        1 VXQ      0.142000
     19 HD2         2.0090    2.6300    0.3720 ha        1 VXQ      0.139000
     20 HE2         2.7230    3.7960    2.4700 ha        1 VXQ      0.180000
     21 H5          3.6970   -0.7260    4.9500 hc        1 VXQ      0.081700
     22 HN3        -0.3770   -0.5220    0.6490 hn        1 VXQ      0.454800
     23 H5A         1.9670   -0.4850    5.4340 hc        1 VXQ      0.081700
@<TRIPOS>BOND
     1    1    3 1   
     2    1   12 1   
     3    1   13 1   
     4    1   22 1   
     5    2    6 1   
     6    2   10 1   
     7    2   21 1   
     8    2   23 1   
     9    3    5 1   
    10    3   14 1   
    11    3   15 1   
    12    4    6 1   
    13    4    7 1   
    14    5    8 ar  
    15    5    9 ar  
    16    6   16 1   
    17    6   17 1   
    18    7   10 ar  
    19    7   11 ar  
    20    8   10 ar  
    21    8   18 1   
    22    9   11 ar  
    23    9   19 1   
    24   11   20 1   
@<TRIPOS>SUBSTRUCTURE
     1 VXQ         1 TEMP              0 ****  ****    0 ROOT
