@<TRIPOS>MOLECULE
VXQ
   23    24     1     0     0
SMALL
bcc


@<TRIPOS>ATOM
      1 N           0.0490   -0.0260   -0.1330 n4        1 VXQ     -0.848600
      2 C5          2.8550    0.0130    4.9660 c3        1 VXQ     -0.061100
      3 CB          1.5470   -0.0150    0.0220 c3        1 VXQ      0.188100
      4 OE          3.1480    2.4210    4.8100 os        1 VXQ     -0.290900
      5 CG          1.9390    0.6580    1.2840 ca        1 VXQ     -0.256300
      6 CM          3.2490    1.2890    5.7350 c3        1 VXQ      0.116400
      7 CZ          2.7470    1.9350    3.5930 ca        1 VXQ      0.185100
      8 CD1         2.1430   -0.1150    2.4460 ca        1 VXQ     -0.047000
      9 CD2         2.1490    2.0440    1.2940 ca        1 VXQ     -0.054000
     10 CE1         2.5460    0.5230    3.5980 ca        1 VXQ     -0.155300
     11 CE2         2.5540    2.7090    2.4510 ca        1 VXQ     -0.153000
     12 HN         -0.2180   -0.4830   -1.0090 hn        1 VXQ      0.454800
     13 HNA        -0.3770   -0.5260    0.6530 hn        1 VXQ      0.454800
     14 HB          1.8930   -1.0890    0.0040 hx        1 VXQ      0.109200
     15 HBA         1.9690    0.5220   -0.8770 hx        1 VXQ      0.109200
     16 HM          4.3110    1.2760    6.0820 h1        1 VXQ      0.085200
     17 HMA         2.5530    1.5230    6.5770 h1        1 VXQ      0.085200
     18 HD1         2.0020   -1.2060    2.4260 ha        1 VXQ      0.142000
     19 HD2         2.0090    2.6270    0.3690 ha        1 VXQ      0.139000
     20 HE2         2.7250    3.7960    2.4650 ha        1 VXQ      0.180000
     21 H5          3.6970   -0.7230    4.9510 hc        1 VXQ      0.081700
     22 HN3        -0.3050    0.9350   -0.1300 hn        1 VXQ      0.454800
     23 H5A         1.9670   -0.4800    5.4350 hc        1 VXQ      0.081700
@<TRIPOS>BOND
     1    1    3 1   
     2    1   12 1   
     3    1   13 1   
     4    1   22 1   
     5    2    6 1   
     6    2   10 1   
     7    2   21 1   
     8    2   23 1   
     9    3    5 1   
    10    3   14 1   
    11    3   15 1   
    12    4    6 1   
    13    4    7 1   
    14    5    8 ar  
    15    5    9 ar  
    16    6   16 1   
    17    6   17 1   
    18    7   10 ar  
    19    7   11 ar  
    20    8   10 ar  
    21    8   18 1   
    22    9   11 ar  
    23    9   19 1   
    24   11   20 1   
@<TRIPOS>SUBSTRUCTURE
     1 VXQ         1 TEMP              0 ****  ****    0 ROOT
