@<TRIPOS>MOLECULE
VXQ
   23    24     1     0     0
SMALL
bcc


@<TRIPOS>ATOM
      1 N           0.0450   -0.0160   -0.1340 nz        1 VXQ     -0.848600
      2 C5          2.8520    0.0100    4.9670 c3        1 VXQ     -0.061100
      3 CB          1.5430   -0.0140    0.0230 c3        1 VXQ      0.188100
      4 OE          3.1560    2.4170    4.8090 os        1 VXQ     -0.290900
      5 CG          1.9380    0.6580    1.2840 ca        1 VXQ     -0.256300
      6 CM          3.2530    1.2840    5.7350 c3        1 VXQ      0.116400
      7 CZ          2.7530    1.9310    3.5930 ca        1 VXQ      0.185100
      8 CD1         2.1390   -0.1160    2.4470 ca        1 VXQ     -0.047000
      9 CD2         2.1550    2.0430    1.2940 ca        1 VXQ     -0.055000
     10 CE1         2.5450    0.5210    3.5980 ca        1 VXQ     -0.155300
     11 CE2         2.5640    2.7070    2.4500 ca        1 VXQ     -0.153000
     12 HN         -0.2250   -0.4710   -1.0090 hn        1 VXQ      0.454800
     13 HNA        -0.3850   -0.5120    0.6530 hn        1 VXQ      0.454800
     14 HB          1.8810   -1.0900    0.0060 hx        1 VXQ      0.109200
     15 HBA         1.9690    0.5200   -0.8760 hx        1 VXQ      0.109200
     16 HM          4.3150    1.2660    6.0820 h1        1 VXQ      0.085200
     17 HMA         2.5580    1.5220    6.5770 h1        1 VXQ      0.085200
     18 HD1         1.9920   -1.2060    2.4280 ha        1 VXQ      0.142000
     19 HD2         2.0180    2.6260    0.3690 ha        1 VXQ      0.139000
     20 HE2         2.7410    3.7920    2.4630 ha        1 VXQ      0.180000
     21 H5          1.9620   -0.4790    5.4360 hc        1 VXQ      0.081700
     22 HN3        -0.3030    0.9480   -0.1320 hn        1 VXQ      0.454800
     23 H5A         3.6900   -0.7300    4.9520 hc        1 VXQ      0.081700
@<TRIPOS>BOND
     1    1    3 1   
     2    1   12 1   
     3    1   13 1   
     4    1   22 1   
     5    2    6 1   
     6    2   10 1   
     7    2   21 1   
     8    2   23 1   
     9    3    5 1   
    10    3   14 1   
    11    3   15 1   
    12    4    6 1   
    13    4    7 1   
    14    5    8 ar  
    15    5    9 ar  
    16    6   16 1   
    17    6   17 1   
    18    7   10 ar  
    19    7   11 ar  
    20    8   10 ar  
    21    8   18 1   
    22    9   11 ar  
    23    9   19 1   
    24   11   20 1   
@<TRIPOS>SUBSTRUCTURE
     1 VXQ         1 TEMP              0 ****  ****    0 ROOT
