@<TRIPOS>MOLECULE
VXQ
   22    22     1     0     0
SMALL
bcc


@<TRIPOS>ATOM
      1 N          -2.2180   -0.6940   -2.8240 n3        1 VXQ     -0.333000
      2 C5          0.6750   -0.8010    2.3340 c3        1 VXQ     -0.139000
      3 CB         -0.7760   -0.7700   -2.6260 c3        1 VXQ     -0.045000
      4 OE          1.3450    1.4620    2.3020 os        1 VXQ     -0.204000
      5 CG         -0.4140   -0.1220   -1.3210 c2        1 VXQ     -0.160000
      6 CM          1.3160    0.3050    3.1230 c3        1 VXQ     -0.031000
      7 CZ          0.7600    1.0850    0.9250 c2        1 VXQ      0.074000
      8 CD1        -0.2950   -0.8440   -0.1280 c2        1 VXQ     -0.077000
      9 CD2         0.0580    1.2160   -1.3910 c1        1 VXQ     -0.088000
     10 CE1         0.2890   -0.2470    0.9960 c2        1 VXQ     -0.150000
     11 CE2         0.6440    1.8110   -0.2640 c1        1 VXQ     -0.151000
     12 HN         -2.6670   -1.1660   -2.1090 hn        1 VXQ      0.141500
     13 HNA        -2.4660    0.1440   -2.8180 hn        1 VXQ      0.141500
     14 H5         -0.1770   -1.1190    2.8270 hc        1 VXQ      0.103500
     15 H5A         1.3070   -1.5050    2.2100 hc        1 VXQ      0.103500
     16 HB         -0.5060   -1.6870   -2.6120 h1        1 VXQ      0.097000
     17 HBA        -0.3300   -0.3170   -3.3400 h1        1 VXQ      0.097000
     18 HM          0.7480    0.5000    3.9590 h1        1 VXQ      0.099500
     19 HMA         2.2350    0.0480    3.3530 h1        1 VXQ      0.099500
     20 HD1        -0.4830   -1.7390   -0.1180 ha        1 VXQ      0.135000
     21 HD2        -0.0260    1.6900   -2.1690 ha        1 VXQ      0.135000
     22 HE2         0.9810    2.7500   -0.3080 ha        1 VXQ      0.152000
@<TRIPOS>BOND
     1    1    3 1   
     2    1   12 1   
     3    1   13 1   
     4    2    6 1   
     5    2   10 1   
     6    2   14 1   
     7    2   15 1   
     8    3    5 1   
     9    3   16 1   
    10    3   17 1   
    11    4    6 1   
    12    4    7 1   
    13    5    8 1   
    14    5    9 1   
    15    6   18 1   
    16    6   19 1   
    17    7   10 1   
    18    7   11 1   
    19    8   10 1   
    20    8   20 1   
    21    9   21 1   
    22   11   22 1   
@<TRIPOS>SUBSTRUCTURE
     1 VXQ         1 TEMP              0 ****  ****    0 ROOT
