@<TRIPOS>MOLECULE
VXR
   44    47     1     0     0
SMALL
bcc


@<TRIPOS>ATOM
      1 C1         -0.1710   -0.0740    0.1660 cc        1 VXR      0.349000
      2 C2          1.0220    0.6410    0.2510 cd        1 VXR     -0.281300
      3 C3          1.4330    0.6060    1.6200 cd        1 VXR     -0.110300
      4 C4          0.4710   -0.1310    2.3190 cc        1 VXR      0.170500
      5 O5         -0.5320   -0.5580    1.4200 os        1 VXR     -0.369800
      6 C6         -1.0830   -0.4040   -0.9420 c3        1 VXR     -0.133700
      7 C7         -0.6080    0.1680   -2.2550 c3        1 VXR     -0.099100
      8 C8          0.3850   -0.4750    3.6870 ce        1 VXR      0.023200
      9 C9         -0.5730   -1.2010    4.3120 cd        1 VXR     -0.252600
     10 S10        -1.9780   -1.9330    3.6720 ss        1 VXR      0.017200
     11 C11        -2.3860   -2.5550    5.2450 cc        1 VXR      0.461100
     12 N12        -1.5890   -2.2750    6.2480 nd        1 VXR     -0.590100
     13 C13        -0.4780   -1.4600    5.7780 c         1 VXR      0.693700
     14 N14        -3.5850   -3.3870    5.3900 ny        1 VXR     -0.704000
     15 C15        -4.3190   -3.1990    6.7140 c3        1 VXR      0.207500
     16 C16        -4.9080   -1.8280    6.8060 ca        1 VXR     -0.223300
     17 C17        -5.3800   -4.2550    6.8210 cc        1 VXR      0.298800
     18 N18        -6.1500   -4.5410    7.9590 na        1 VXR     -0.128400
     19 N19        -6.9810   -5.5420    7.6430 nc        1 VXR     -0.137800
     20 N20        -6.7640   -5.8710    6.4180 nd        1 VXR     -0.004000
     21 N21        -5.8130   -5.1350    5.8600 nd        1 VXR     -0.391000
     22 C22        -4.3170   -0.8830    7.6560 ca        1 VXR     -0.065000
     23 C23        -4.8620    0.3900    7.7730 ca        1 VXR     -0.165500
     24 C24        -6.0110    0.7270    7.0280 ca        1 VXR      0.193900
     25 C25        -6.6060   -0.2240    6.1700 ca        1 VXR     -0.165500
     26 C26        -6.0510   -1.4920    6.0670 ca        1 VXR     -0.065000
     27 F          -6.5440    1.9600    7.1340 f         1 VXR     -0.101900
     28 O28         0.4020   -1.0590    6.5350 o         1 VXR     -0.440100
     29 H2          1.5450    1.1320   -0.5680 ha        1 VXR      0.189000
     30 H3          2.3290    1.0670    2.0360 ha        1 VXR      0.183000
     31 H61        -1.1700   -1.5240   -1.0180 hc        1 VXR      0.077200
     32 H62        -2.1080   -0.0090   -0.6970 hc        1 VXR      0.077200
     33 H71         0.3980   -0.2350   -2.5240 hc        1 VXR      0.053367
     34 H72        -0.5410    1.2810   -2.2030 hc        1 VXR      0.053367
     35 H73        -1.3290   -0.1070   -3.0640 hc        1 VXR      0.053367
     36 H8          1.2260   -0.0880    4.3090 ha        1 VXR      0.186000
     37 HN14       -4.2330   -3.1570    4.6220 hn        1 VXR      0.479800
     38 H15        -3.5560   -3.3630    7.5420 hx        1 VXR      0.148700
     39 HN18       -6.1450   -4.1030    8.8550 hn        1 VXR      0.360700
     40 H22        -3.4150   -1.1400    8.2370 ha        1 VXR      0.157000
     41 H23        -4.4070    1.1380    8.4430 ha        1 VXR      0.179000
     42 H25        -7.5060    0.0480    5.5970 ha        1 VXR      0.179000
     43 H26        -6.5280   -2.2370    5.4090 ha        1 VXR      0.157000
     44 H142       -3.3020   -4.3780    5.3040 hn        1 VXR      0.479800
@<TRIPOS>BOND
     1    1    2 2   
     2    1    5 1   
     3    1    6 1   
     4    2    3 1   
     5    2   29 1   
     6    3    4 2   
     7    3   30 1   
     8    4    5 1   
     9    4    8 1   
    10    6    7 1   
    11    6   31 1   
    12    6   32 1   
    13    7   33 1   
    14    7   34 1   
    15    7   35 1   
    16    8    9 2   
    17    8   36 1   
    18    9   10 1   
    19    9   13 1   
    20   10   11 1   
    21   11   12 2   
    22   11   14 1   
    23   12   13 1   
    24   13   28 2   
    25   14   15 1   
    26   14   37 1   
    27   14   44 1   
    28   15   16 1   
    29   15   17 1   
    30   15   38 1   
    31   16   22 ar  
    32   16   26 ar  
    33   17   18 1   
    34   17   21 2   
    35   18   19 1   
    36   18   39 1   
    37   19   20 2   
    38   20   21 1   
    39   22   23 ar  
    40   22   40 1   
    41   23   24 ar  
    42   23   41 1   
    43   24   25 ar  
    44   24   27 1   
    45   25   26 ar  
    46   25   42 1   
    47   26   43 1   
@<TRIPOS>SUBSTRUCTURE
     1 VXR         1 TEMP              0 ****  ****    0 ROOT
