@<TRIPOS>MOLECULE
VXR
   43    46     1     0     0
SMALL
bcc


@<TRIPOS>ATOM
      1 C1          0.0020   -7.4630   -3.0130 cc        1 VXR      0.287000
      2 C2         -1.1990   -8.1420   -3.1540 cd        1 VXR     -0.274300
      3 C3         -2.2440   -7.1570   -3.0890 cd        1 VXR     -0.197300
      4 C4         -1.6280   -5.9230   -2.9100 cc        1 VXR      0.245500
      5 O5         -0.2340   -6.0960   -2.8600 os        1 VXR     -0.351800
      6 C6          1.4110   -7.8910   -2.9860 c3        1 VXR     -0.120700
      7 C7          2.1050   -7.6400   -4.3040 c3        1 VXR     -0.093100
      8 C8         -2.1860   -4.6150   -2.7840 ce        1 VXR     -0.086800
      9 C9         -1.5460   -3.4450   -2.6160 cd        1 VXR     -0.166600
     10 S10         0.1140   -3.0960   -2.4960 ss        1 VXR     -0.130800
     11 C11        -0.2370   -1.3530   -2.3090 cc        1 VXR      0.684100
     12 N12        -1.5200   -1.0160   -2.3200 nd        1 VXR     -0.711100
     13 C13        -2.3450   -2.1630   -2.5050 c         1 VXR      0.696700
     14 N14         0.8350   -0.4950   -2.2360 nh        1 VXR     -0.786200
     15 C15         0.6460    0.9130   -1.9410 c3        1 VXR      0.258500
     16 C16         0.5070    1.2140   -0.4670 ca        1 VXR     -0.165300
     17 C17         1.7950    1.7160   -2.5030 cc        1 VXR      0.378800
     18 N18         1.6920    3.0220   -3.0160 na        1 VXR     -0.171400
     19 N19         2.9130    3.4050   -3.4170 nc        1 VXR     -0.184800
     20 N20         3.7210    2.4340   -3.1880 nd        1 VXR     -0.042000
     21 N21         3.1150    1.3840   -2.6370 nd        1 VXR     -0.380000
     22 C22        -0.7570    1.5390    0.0380 ca        1 VXR     -0.077000
     23 C23        -0.9260    1.8180    1.3900 ca        1 VXR     -0.170000
     24 C24         0.1860    1.7630    2.2520 ca        1 VXR      0.146900
     25 C25         1.4560    1.4220    1.7510 ca        1 VXR     -0.170000
     26 C26         1.6050    1.1470    0.3960 ca        1 VXR     -0.077000
     27 F           0.0330    2.0360    3.5690 f         1 VXR     -0.132900
     28 O28        -3.5770   -2.1220   -2.5630 o         1 VXR     -0.509100
     29 H2         -1.3370   -9.2120   -3.2870 ha        1 VXR      0.167000
     30 H3         -3.3120   -7.3500   -3.1660 ha        1 VXR      0.167000
     31 H61         1.9480   -7.3370   -2.1680 hc        1 VXR      0.065200
     32 H62         1.4420   -8.9860   -2.7380 hc        1 VXR      0.065200
     33 H71         1.6160   -8.2160   -5.1260 hc        1 VXR      0.044033
     34 H72         3.1730   -7.9570   -4.2340 hc        1 VXR      0.044033
     35 H73         2.0690   -6.5550   -4.5640 hc        1 VXR      0.044033
     36 H8         -3.2970   -4.5980   -2.8350 ha        1 VXR      0.171000
     37 HN14        1.7100   -0.8950   -1.9670 hn        1 VXR      0.457800
     38 H15        -0.3010    1.2520   -2.4710 h1        1 VXR      0.109700
     39 HN18        0.8930    3.6090   -3.0830 hn        1 VXR      0.340700
     40 H22        -1.6330    1.5580   -0.6330 ha        1 VXR      0.155000
     41 H23        -1.9170    2.0730    1.7930 ha        1 VXR      0.157500
     42 H25         2.3180    1.3760    2.4330 ha        1 VXR      0.157500
     43 H26         2.6010    0.8750    0.0080 ha        1 VXR      0.155000
@<TRIPOS>BOND
     1    1    2 2   
     2    1    5 1   
     3    1    6 1   
     4    2    3 1   
     5    2   29 1   
     6    3    4 2   
     7    3   30 1   
     8    4    5 1   
     9    4    8 1   
    10    6    7 1   
    11    6   31 1   
    12    6   32 1   
    13    7   33 1   
    14    7   34 1   
    15    7   35 1   
    16    8    9 2   
    17    8   36 1   
    18    9   10 1   
    19    9   13 1   
    20   10   11 1   
    21   11   12 2   
    22   11   14 1   
    23   12   13 1   
    24   13   28 2   
    25   14   15 1   
    26   14   37 1   
    27   15   16 1   
    28   15   17 1   
    29   15   38 1   
    30   16   22 ar  
    31   16   26 ar  
    32   17   18 1   
    33   17   21 2   
    34   18   19 1   
    35   18   39 1   
    36   19   20 2   
    37   20   21 1   
    38   22   23 ar  
    39   22   40 1   
    40   23   24 ar  
    41   23   41 1   
    42   24   25 ar  
    43   24   27 1   
    44   25   26 ar  
    45   25   42 1   
    46   26   43 1   
@<TRIPOS>SUBSTRUCTURE
     1 VXR         1 TEMP              0 ****  ****    0 ROOT
