@<TRIPOS>MOLECULE
VXR
   44    47     1     0     0
SMALL
bcc


@<TRIPOS>ATOM
      1 C1         -0.1680   -0.1360    0.1500 cc        1 VXR      0.349000
      2 C2          1.0090    0.6070    0.2220 cd        1 VXR     -0.281300
      3 C3          1.4100    0.6200    1.5950 cd        1 VXR     -0.110300
      4 C4          0.4580   -0.1170    2.3080 cc        1 VXR      0.170500
      5 O5         -0.5280   -0.5910    1.4150 os        1 VXR     -0.369800
      6 C6         -1.0650   -0.5170   -0.9540 c3        1 VXR     -0.133700
      7 C7         -0.5930    0.0270   -2.2800 c3        1 VXR     -0.099100
      8 C8          0.3700   -0.4220    3.6850 ce        1 VXR      0.023200
      9 C9         -0.5770   -1.1500    4.3250 cd        1 VXR     -0.252600
     10 S10        -1.9610   -1.9310    3.6960 ss        1 VXR      0.017200
     11 C11        -2.3670   -2.5160    5.2840 cc        1 VXR      0.461100
     12 N12        -1.5840   -2.1900    6.2840 nd        1 VXR     -0.590100
     13 C13        -0.4870   -1.3650    5.7980 c         1 VXR      0.693700
     14 N14        -3.5490   -3.3690    5.4450 n4        1 VXR     -0.704000
     15 C15        -4.2990   -3.1560    6.7570 c3        1 VXR      0.207500
     16 C16        -4.9180   -1.7960    6.8020 ca        1 VXR     -0.223300
     17 C17        -5.3380   -4.2310    6.8880 cc        1 VXR      0.298800
     18 N18        -6.1100   -4.5000    8.0280 na        1 VXR     -0.128400
     19 N19        -6.9170   -5.5270    7.7370 nc        1 VXR     -0.137800
     20 N20        -6.6840   -5.8890    6.5240 nd        1 VXR     -0.004000
     21 N21        -5.7440   -5.1490    5.9510 nd        1 VXR     -0.391000
     22 C22        -4.3550   -0.8130    7.6260 ca        1 VXR     -0.065000
     23 C23        -4.9280    0.4510    7.7000 ca        1 VXR     -0.165500
     24 C24        -6.0770    0.7400    6.9360 ca        1 VXR      0.193900
     25 C25        -6.6440   -0.2500    6.1040 ca        1 VXR     -0.165500
     26 C26        -6.0620   -1.5080    6.0440 ca        1 VXR     -0.065000
     27 F          -6.6380    1.9630    7.0000 f         1 VXR     -0.101900
     28 O28         0.3780   -0.9230    6.5490 o         1 VXR     -0.440100
     29 H2          1.5270    1.0860   -0.6070 ha        1 VXR      0.189000
     30 H3          2.2920    1.1130    2.0030 ha        1 VXR      0.183000
     31 H61        -2.1000   -0.1370   -0.7280 hc        1 VXR      0.077200
     32 H62        -1.1270   -1.6400   -0.9980 hc        1 VXR      0.077200
     33 H71        -1.3010   -0.2860   -3.0850 hc        1 VXR      0.053367
     34 H72         0.4240   -0.3620   -2.5300 hc        1 VXR      0.053367
     35 H73        -0.5490    1.1430   -2.2600 hc        1 VXR      0.053367
     36 H8          1.1970   -0.0000    4.3020 ha        1 VXR      0.186000
     37 HN14       -3.2450   -4.3550    5.3910 hn        1 VXR      0.479800
     38 H15        -3.5390   -3.2780    7.5950 hx        1 VXR      0.148700
     39 HN18       -6.1220   -4.0350    8.9120 hn        1 VXR      0.360700
     40 H22        -3.4520   -1.0320    8.2230 ha        1 VXR      0.156500
     41 H23        -4.4950    1.2290    8.3500 ha        1 VXR      0.179000
     42 H25        -7.5460   -0.0150    5.5150 ha        1 VXR      0.179000
     43 H26        -6.5170   -2.2830    5.4060 ha        1 VXR      0.156500
     44 H142       -4.1960   -3.1760    4.6650 hn        1 VXR      0.479800
@<TRIPOS>BOND
     1    1    2 2   
     2    1    5 1   
     3    1    6 1   
     4    2    3 1   
     5    2   29 1   
     6    3    4 2   
     7    3   30 1   
     8    4    5 1   
     9    4    8 1   
    10    6    7 1   
    11    6   31 1   
    12    6   32 1   
    13    7   33 1   
    14    7   34 1   
    15    7   35 1   
    16    8    9 2   
    17    8   36 1   
    18    9   10 1   
    19    9   13 1   
    20   10   11 1   
    21   11   12 2   
    22   11   14 1   
    23   12   13 1   
    24   13   28 2   
    25   14   15 1   
    26   14   37 1   
    27   14   44 1   
    28   15   16 1   
    29   15   17 1   
    30   15   38 1   
    31   16   22 ar  
    32   16   26 ar  
    33   17   18 1   
    34   17   21 2   
    35   18   19 1   
    36   18   39 1   
    37   19   20 2   
    38   20   21 1   
    39   22   23 ar  
    40   22   40 1   
    41   23   24 ar  
    42   23   41 1   
    43   24   25 ar  
    44   24   27 1   
    45   25   26 ar  
    46   25   42 1   
    47   26   43 1   
@<TRIPOS>SUBSTRUCTURE
     1 VXR         1 TEMP              0 ****  ****    0 ROOT
