@<TRIPOS>MOLECULE
VXU
   26    24     1     0     0
SMALL
bcc


@<TRIPOS>ATOM
      1 C2         -1.3400    0.3740   -2.3860 c1        1 VXU     -0.069500
      2 C3          0.0350    0.4110   -2.3840 c1        1 VXU     -0.057500
      3 C1         -2.0490    0.3130   -1.1710 c1        1 VXU     -0.069500
      4 C4          0.7220    0.3880   -1.1870 c1        1 VXU     -0.048100
      5 C11        -1.3580    0.2890    0.0380 c1        1 VXU      0.054100
      6 C5          0.0060    0.3250    0.0450 c1        1 VXU      0.054100
      7 C8         -0.7300   -1.1080    2.8330 c3        1 VXU     -0.146400
      8 C9         -1.9970   -0.7940    2.0270 c3        1 VXU      0.129900
      9 C7          0.5160   -0.8980    1.9840 c3        1 VXU      0.129900
     10 C12         2.2730    0.5770   -1.1790 c3        1 VXU      0.179900
     11 N13         2.6360    1.5240   -2.1370 n3        1 VXU     -0.905800
     12 O10        -1.8870    0.4450    1.3830 os        1 VXU     -0.317900
     13 O6          0.4940    0.4090    1.3550 os        1 VXU     -0.317900
     14 H2         -1.8200    0.3900   -3.2220 ha        1 VXU      0.085500
     15 H3          0.5470    0.4560   -3.2690 ha        1 VXU      0.083500
     16 H1         -3.0020    0.2870   -1.1750 ha        1 VXU      0.085500
     17 H121        2.5530    0.8750   -0.3150 h1        1 VXU      0.033200
     18 H122        2.6840   -0.2340   -1.3770 h1        1 VXU      0.033200
     19 H81C       -0.7620   -2.0580    3.1340 hc        1 VXU      0.067700
     20 H82C       -0.6920   -0.5400    3.5950 hc        1 VXU      0.067700
     21 H91C       -2.7880   -0.7750    2.6470 h1        1 VXU      0.055450
     22 H92C       -2.1290   -1.4870    1.3620 h1        1 VXU      0.055450
     23 H71C        1.3210   -0.9570    2.5750 h1        1 VXU      0.055450
     24 H72C        0.5310   -1.5890    1.2740 h1        1 VXU      0.055450
     25 H131        3.2640    1.1590   -2.7060 hn        1 VXU      0.354300
     26 H132        2.9730    2.2160   -1.7430 hn        1 VXU      0.354300
@<TRIPOS>BOND
     1    1    3 3   
     2    1   14 1   
     3    2    4 3   
     4    2   15 1   
     5    3   16 1   
     6    4   10 1   
     7    5    6 3   
     8    5   12 1   
     9    6   13 1   
    10    7    8 1   
    11    7    9 1   
    12    7   19 1   
    13    7   20 1   
    14    8   12 1   
    15    8   21 1   
    16    8   22 1   
    17    9   13 1   
    18    9   23 1   
    19    9   24 1   
    20   10   11 1   
    21   10   17 1   
    22   10   18 1   
    23   11   25 1   
    24   11   26 1   
@<TRIPOS>SUBSTRUCTURE
     1 VXU         1 TEMP              0 ****  ****    0 ROOT
