@<TRIPOS>MOLECULE
VXU
   27    28     1     0     0
SMALL
bcc


@<TRIPOS>ATOM
      1 C2         -0.0720    0.1330   -0.0250 ca        1 VXU     -0.118000
      2 C3          1.3200    0.0860   -0.0820 ca        1 VXU     -0.087000
      3 C1         -0.7280    0.0060    1.1940 ca        1 VXU     -0.076000
      4 C4          2.0640   -0.1140    1.0820 ca        1 VXU     -0.195300
      5 C11         0.0060   -0.1860    2.3810 ca        1 VXU      0.090100
      6 C5          1.4060   -0.2900    2.3230 ca        1 VXU      0.089100
      7 C8          0.7210   -1.0750    5.2280 c3        1 VXU     -0.148400
      8 C9         -0.5920   -1.1700    4.4830 c3        1 VXU      0.122400
      9 C7          1.8870   -1.4800    4.3590 c3        1 VXU      0.127400
     10 C12         3.5480    0.0060    1.0330 c3        1 VXU      0.185100
     11 N13         4.2320   -1.2380    1.5130 n4        1 VXU     -0.843600
     12 O10        -0.7350   -0.1040    3.5420 os        1 VXU     -0.312900
     13 O6          2.2520   -0.4700    3.4070 os        1 VXU     -0.381900
     14 H2         -0.6540    0.2860   -0.9480 ha        1 VXU      0.167000
     15 H3          1.8310    0.2280   -1.0480 ha        1 VXU      0.149000
     16 H1         -1.8270    0.0810    1.2590 ha        1 VXU      0.178000
     17 H121        3.9050    0.2110   -0.0180 hx        1 VXU      0.114200
     18 H122        3.8800    0.8480    1.7120 hx        1 VXU      0.114200
     19 H81C        0.6840   -1.7520    6.1220 hc        1 VXU      0.089200
     20 H82C        0.8700   -0.0230    5.5940 hc        1 VXU      0.089200
     21 H91C       -1.4600   -0.9940    5.1780 h1        1 VXU      0.075200
     22 H92C       -0.7080   -2.1600    3.9720 h1        1 VXU      0.075200
     23 H71C        1.6800   -2.4430    3.8220 h1        1 VXU      0.058200
     24 H72C        2.8240   -1.5710    4.9760 h1        1 VXU      0.058200
     25 H131        3.9330   -1.4250    2.4820 hn        1 VXU      0.459800
     26 H132        5.2470   -1.1160    1.4880 hn        1 VXU      0.459800
     27 H133        3.9700   -2.0350    0.9280 hn        1 VXU      0.459800
@<TRIPOS>BOND
     1    1    2 ar  
     2    1    3 ar  
     3    1   14 1   
     4    2    4 ar  
     5    2   15 1   
     6    3    5 ar  
     7    3   16 1   
     8    4    6 ar  
     9    4   10 1   
    10    5    6 ar  
    11    5   12 1   
    12    6   13 1   
    13    7    8 1   
    14    7    9 1   
    15    7   19 1   
    16    7   20 1   
    17    8   12 1   
    18    8   21 1   
    19    8   22 1   
    20    9   13 1   
    21    9   23 1   
    22    9   24 1   
    23   10   11 1   
    24   10   17 1   
    25   10   18 1   
    26   11   25 1   
    27   11   26 1   
    28   11   27 1   
@<TRIPOS>SUBSTRUCTURE
     1 VXU         1 TEMP              0 ****  ****    0 ROOT
