@<TRIPOS>MOLECULE
VXU
   27    28     1     0     0
SMALL
bcc


@<TRIPOS>ATOM
      1 C2         -0.0700    0.0830   -0.0410 ca        1 VXU     -0.118000
      2 C3          1.3230    0.0520   -0.0910 ca        1 VXU     -0.087000
      3 C1         -0.7300   -0.0360    1.1760 ca        1 VXU     -0.076000
      4 C4          2.0640   -0.1240    1.0780 ca        1 VXU     -0.195300
      5 C11         0.0010   -0.2040    2.3690 ca        1 VXU      0.090100
      6 C5          1.4030   -0.2920    2.3180 ca        1 VXU      0.089100
      7 C8          0.7130   -1.0480    5.2300 c3        1 VXU     -0.148400
      8 C9         -0.5950   -1.1680    4.4800 c3        1 VXU      0.122400
      9 C7          1.8870   -1.4500    4.3710 c3        1 VXU      0.127400
     10 C12         3.5470    0.0120    1.0340 c3        1 VXU      0.185100
     11 N13         4.2430   -1.2170    1.5330 nz        1 VXU     -0.843600
     12 O10        -0.7470   -0.1170    3.5250 os        1 VXU     -0.312900
     13 O6          2.2450   -0.4480    3.4080 os        1 VXU     -0.381900
     14 H2         -0.6500    0.2170   -0.9690 ha        1 VXU      0.167000
     15 H3          1.8360    0.1880   -1.0570 ha        1 VXU      0.149000
     16 H1         -1.8300    0.0270    1.2350 ha        1 VXU      0.178000
     17 H121        3.9060    0.2090   -0.0180 hx        1 VXU      0.114200
     18 H122        3.8650    0.8670    1.7040 hx        1 VXU      0.114200
     19 H81C        0.8480    0.0090    5.5830 hc        1 VXU      0.089200
     20 H82C        0.6800   -1.7140    6.1330 hc        1 VXU      0.089200
     21 H91C       -1.4680   -0.9940    5.1700 h1        1 VXU      0.075200
     22 H92C       -0.6970   -2.1670    3.9810 h1        1 VXU      0.075200
     23 H71C        1.6940   -2.4230    3.8460 h1        1 VXU      0.058200
     24 H72C        2.8230   -1.5220    4.9930 h1        1 VXU      0.058200
     25 H131        3.9930   -2.0240    0.9570 hn        1 VXU      0.459800
     26 H132        5.2560   -1.0830    1.5100 hn        1 VXU      0.459800
     27 H133        3.9410   -1.3950    2.5030 hn        1 VXU      0.459800
@<TRIPOS>BOND
     1    1    2 ar  
     2    1    3 ar  
     3    1   14 1   
     4    2    4 ar  
     5    2   15 1   
     6    3    5 ar  
     7    3   16 1   
     8    4    6 ar  
     9    4   10 1   
    10    5    6 ar  
    11    5   12 1   
    12    6   13 1   
    13    7    8 1   
    14    7    9 1   
    15    7   19 1   
    16    7   20 1   
    17    8   12 1   
    18    8   21 1   
    19    8   22 1   
    20    9   13 1   
    21    9   23 1   
    22    9   24 1   
    23   10   11 1   
    24   10   17 1   
    25   10   18 1   
    26   11   25 1   
    27   11   26 1   
    28   11   27 1   
@<TRIPOS>SUBSTRUCTURE
     1 VXU         1 TEMP              0 ****  ****    0 ROOT
