@<TRIPOS>MOLECULE
VXU
   26    27     1     0     0
SMALL
bcc


@<TRIPOS>ATOM
      1 C2         -1.3720    2.3070    0.3890 ca        1 VXU     -0.127000
      2 C3         -2.1260    1.1500    0.2040 ca        1 VXU     -0.132000
      3 C1          0.0140    2.2700    0.2690 ca        1 VXU     -0.128000
      4 C4         -1.5100   -0.0650   -0.1080 ca        1 VXU     -0.073300
      5 C11         0.6490    1.0630   -0.0590 ca        1 VXU      0.073100
      6 C5         -0.1110   -0.1070   -0.2530 ca        1 VXU      0.084100
      7 C8          2.7860   -1.1740   -0.0010 c3        1 VXU     -0.146400
      8 C9          2.7960    0.2400    0.5410 c3        1 VXU      0.129400
      9 C7          1.4430   -1.8500    0.1870 c3        1 VXU      0.129400
     10 C12        -2.3410   -1.2960   -0.3260 c3        1 VXU      0.200100
     11 N13        -3.0780   -1.7060    0.8480 n3        1 VXU     -0.912800
     12 O10         2.0180    1.1260   -0.2680 os        1 VXU     -0.330900
     13 O6          0.4530   -1.2980   -0.6860 os        1 VXU     -0.330900
     14 H2         -1.8720    3.2550    0.6340 ha        1 VXU      0.135000
     15 H3         -3.2210    1.1930    0.3020 ha        1 VXU      0.130000
     16 H1          0.6220    3.1750    0.4090 ha        1 VXU      0.148000
     17 H121       -3.0150   -1.0890   -1.2130 h1        1 VXU      0.045200
     18 H122       -1.6700   -2.1580   -0.6140 h1        1 VXU      0.045200
     19 H81C        3.0380   -1.1510   -1.0940 hc        1 VXU      0.066200
     20 H82C        3.5710   -1.7720    0.5290 hc        1 VXU      0.066200
     21 H91C        2.4420    0.2690    1.6040 h1        1 VXU      0.056200
     22 H92C        3.8280    0.6820    0.4700 h1        1 VXU      0.056200
     23 H71C        1.4920   -2.9240   -0.1410 h1        1 VXU      0.059200
     24 H72C        1.1030   -1.7930    1.2530 h1        1 VXU      0.059200
     25 H131       -3.5430   -0.9300    1.2760 hn        1 VXU      0.348300
     26 H132       -3.7560   -2.4000    0.6010 hn        1 VXU      0.348300
@<TRIPOS>BOND
     1    1    2 ar  
     2    1    3 ar  
     3    1   14 1   
     4    2    4 ar  
     5    2   15 1   
     6    3    5 ar  
     7    3   16 1   
     8    4    6 ar  
     9    4   10 1   
    10    5    6 ar  
    11    5   12 1   
    12    6   13 1   
    13    7    8 1   
    14    7    9 1   
    15    7   19 1   
    16    7   20 1   
    17    8   12 1   
    18    8   21 1   
    19    8   22 1   
    20    9   13 1   
    21    9   23 1   
    22    9   24 1   
    23   10   11 1   
    24   10   17 1   
    25   10   18 1   
    26   11   25 1   
    27   11   26 1   
@<TRIPOS>SUBSTRUCTURE
     1 VXU         1 TEMP              0 ****  ****    0 ROOT
