@<TRIPOS>MOLECULE
VXU
   27    28     1     0     0
SMALL
bcc


@<TRIPOS>ATOM
      1 C2         -0.0620    0.1550   -0.0230 ca        1 VXU     -0.118000
      2 C3          1.3300    0.0970   -0.0790 ca        1 VXU     -0.087000
      3 C1         -0.7210    0.0280    1.1940 ca        1 VXU     -0.076000
      4 C4          2.0710   -0.1140    1.0860 ca        1 VXU     -0.195300
      5 C11         0.0100   -0.1740    2.3810 ca        1 VXU      0.090100
      6 C5          1.4100   -0.2900    2.3250 ca        1 VXU      0.089100
      7 C8          0.7130   -1.0810    5.2260 c3        1 VXU     -0.148400
      8 C9         -0.5990   -1.1620    4.4780 c3        1 VXU      0.122400
      9 C7          1.8770   -1.4920    4.3560 c3        1 VXU      0.127400
     10 C12         3.5550   -0.0060    1.0390 c3        1 VXU      0.185100
     11 N13         4.2290   -1.2570    1.5150 n4        1 VXU     -0.843600
     12 O10        -0.7320   -0.0910    3.5410 os        1 VXU     -0.312900
     13 O6          2.2520   -0.4810    3.4090 os        1 VXU     -0.381900
     14 H2         -0.6420    0.3160   -0.9470 ha        1 VXU      0.167000
     15 H3          1.8430    0.2390   -1.0430 ha        1 VXU      0.149000
     16 H1         -1.8190    0.1120    1.2580 ha        1 VXU      0.178000
     17 H121        3.8930    0.8310    1.7220 hx        1 VXU      0.114200
     18 H122        3.9160    0.2010   -0.0100 hx        1 VXU      0.114200
     19 H81C        0.6690   -1.7610    6.1170 hc        1 VXU      0.089200
     20 H82C        0.8710   -0.0320    5.5960 hc        1 VXU      0.089200
     21 H91C       -1.4660   -0.9820    5.1730 h1        1 VXU      0.075200
     22 H92C       -0.7220   -2.1500    3.9630 h1        1 VXU      0.075200
     23 H71C        2.8130   -1.5930    4.9740 h1        1 VXU      0.058200
     24 H72C        1.6630   -2.4510    3.8150 h1        1 VXU      0.058200
     25 H131        3.9260   -1.4460    2.4820 hn        1 VXU      0.459800
     26 H132        3.9610   -2.0490    0.9260 hn        1 VXU      0.459800
     27 H133        5.2450   -1.1430    1.4910 hn        1 VXU      0.459800
@<TRIPOS>BOND
     1    1    2 ar  
     2    1    3 ar  
     3    1   14 1   
     4    2    4 ar  
     5    2   15 1   
     6    3    5 ar  
     7    3   16 1   
     8    4    6 ar  
     9    4   10 1   
    10    5    6 ar  
    11    5   12 1   
    12    6   13 1   
    13    7    8 1   
    14    7    9 1   
    15    7   19 1   
    16    7   20 1   
    17    8   12 1   
    18    8   21 1   
    19    8   22 1   
    20    9   13 1   
    21    9   23 1   
    22    9   24 1   
    23   10   11 1   
    24   10   17 1   
    25   10   18 1   
    26   11   25 1   
    27   11   26 1   
    28   11   27 1   
@<TRIPOS>SUBSTRUCTURE
     1 VXU         1 TEMP              0 ****  ****    0 ROOT
