@<TRIPOS>MOLECULE
VXX
   23    23     1     0     0
SMALL
bcc


@<TRIPOS>ATOM
      1 C1          3.0780   -1.4790    0.6090 ca        1 VXX     -0.157600
      2 CO1         1.9810   -0.9310   -0.0710 ca        1 VXX     -0.046000
      3 CO2         3.1100   -1.4910    2.0080 ca        1 VXX     -0.050000
      4 CM1         0.9140   -0.3970    0.6410 ca        1 VXX     -0.219000
      5 CM2         2.0370   -0.9630    2.7320 ca        1 VXX      0.056100
      6 OM          2.0560   -1.1150    4.1080 os        1 VXX     -0.325900
      7 CZ          0.9310   -0.4110    2.0440 ca        1 VXX      0.130100
      8 CC          4.1840   -2.0320   -0.1820 c         1 VXX      0.649700
      9 CV          2.0270    0.1110    4.8390 c3        1 VXX      0.113700
     10 O1          4.2830   -2.0910   -1.4110 o         1 VXX     -0.547000
     11 O2          5.2180   -2.5350    0.5650 os        1 VXX     -0.437900
     12 O3         -0.0900    0.1100    2.7970 oh        1 VXX     -0.487100
     13 C9          6.3150   -3.0900   -0.1630 c3        1 VXX      0.128700
     14 HO1         1.9750   -0.9300   -1.1730 ha        1 VXX      0.161000
     15 HO2         3.9680   -1.9270    2.5460 ha        1 VXX      0.172000
     16 HM1         0.0520    0.0310    0.1080 ha        1 VXX      0.143000
     17 HVC1        1.0780    0.6650    4.6410 h1        1 VXX      0.046033
     18 HVC2        2.9110    0.7420    4.5770 h1        1 VXX      0.046033
     19 HVC3        2.0780   -0.2220    5.9060 h1        1 VXX      0.046033
     20 H3         -0.7840    0.4160    2.1930 ho        1 VXX      0.425000
     21 H9C1        5.9640   -3.9430   -0.7910 h1        1 VXX      0.051700
     22 H9C2        7.0160   -3.4310    0.6390 h1        1 VXX      0.051700
     23 H9C3        6.7800   -2.3060   -0.8080 h1        1 VXX      0.051700
@<TRIPOS>BOND
     1    1    2 ar  
     2    1    3 ar  
     3    1    8 1   
     4    2    4 ar  
     5    2   14 1   
     6    3    5 ar  
     7    3   15 1   
     8    4    7 ar  
     9    4   16 1   
    10    5    6 1   
    11    5    7 ar  
    12    6    9 1   
    13    7   12 1   
    14    8   10 2   
    15    8   11 1   
    16    9   17 1   
    17    9   18 1   
    18    9   19 1   
    19   11   13 1   
    20   12   20 1   
    21   13   21 1   
    22   13   22 1   
    23   13   23 1   
@<TRIPOS>SUBSTRUCTURE
     1 VXX         1 TEMP              0 ****  ****    0 ROOT
