@<TRIPOS>MOLECULE
VXX
   23    23     1     0     0
SMALL
bcc


@<TRIPOS>ATOM
      1 C1         -0.1090   -0.0870   -0.0240 ca        1 VXX     -0.157600
      2 CO1         1.2800    0.0940    0.0030 ca        1 VXX     -0.046000
      3 CO2        -0.8260   -0.2420    1.1680 ca        1 VXX     -0.050000
      4 CM1         1.9580    0.1220    1.2160 ca        1 VXX     -0.219000
      5 CM2        -0.1530   -0.2070    2.3930 ca        1 VXX      0.056100
      6 OM         -0.9200   -0.2350    3.5450 os        1 VXX     -0.325900
      7 CZ          1.2480   -0.0240    2.4170 ca        1 VXX      0.130100
      8 CC         -0.7850   -0.1120   -1.3270 c         1 VXX      0.649700
      9 CV         -0.6450   -1.3360    4.4120 c3        1 VXX      0.113700
     10 O1         -0.2800    0.0180   -2.4460 o         1 VXX     -0.547000
     11 O2         -2.1410   -0.3060   -1.2580 os        1 VXX     -0.437900
     12 O3          1.8670   -0.0130    3.6420 oh        1 VXX     -0.487100
     13 C9         -2.8420   -0.3310   -2.5030 c3        1 VXX      0.128700
     14 HO1         1.8280    0.2140   -0.9470 ha        1 VXX      0.161000
     15 HO2        -1.9200   -0.3780    1.1510 ha        1 VXX      0.172000
     16 HM1         3.0480    0.2660    1.2380 ha        1 VXX      0.143000
     17 HVC1        0.4060   -1.2880    4.7870 h1        1 VXX      0.046033
     18 HVC2       -0.8300   -2.3030    3.8850 h1        1 VXX      0.046033
     19 HVC3       -1.3730   -1.1940    5.2500 h1        1 VXX      0.046033
     20 H3          2.8120    0.1540    3.5010 ho        1 VXX      0.425000
     21 H9C1       -3.9060   -0.4940   -2.2010 h1        1 VXX      0.051700
     22 H9C2       -2.4620   -1.1670   -3.1370 h1        1 VXX      0.051700
     23 H9C3       -2.7110    0.6420   -3.0340 h1        1 VXX      0.051700
@<TRIPOS>BOND
     1    1    2 ar  
     2    1    3 ar  
     3    1    8 1   
     4    2    4 ar  
     5    2   14 1   
     6    3    5 ar  
     7    3   15 1   
     8    4    7 ar  
     9    4   16 1   
    10    5    6 1   
    11    5    7 ar  
    12    6    9 1   
    13    7   12 1   
    14    8   10 2   
    15    8   11 1   
    16    9   17 1   
    17    9   18 1   
    18    9   19 1   
    19   11   13 1   
    20   12   20 1   
    21   13   21 1   
    22   13   22 1   
    23   13   23 1   
@<TRIPOS>SUBSTRUCTURE
     1 VXX         1 TEMP              0 ****  ****    0 ROOT
