@<TRIPOS>MOLECULE
VXX
   23    23     1     0     0
SMALL
bcc


@<TRIPOS>ATOM
      1 C1         -0.1000   -0.1130   -0.0290 ca        1 VXX     -0.157600
      2 CO1         1.2910    0.0510    0.0020 ca        1 VXX     -0.046000
      3 CO2        -0.8260   -0.2310    1.1620 ca        1 VXX     -0.050000
      4 CM1         1.9630    0.0980    1.2180 ca        1 VXX     -0.219000
      5 CM2        -0.1590   -0.1760    2.3900 ca        1 VXX      0.056100
      6 OM         -0.9330   -0.1680    3.5380 os        1 VXX     -0.325900
      7 CZ          1.2440   -0.0110    2.4190 ca        1 VXX      0.130100
      8 CC         -0.7690   -0.1580   -1.3340 c         1 VXX      0.649700
      9 CV         -0.6770   -1.2520    4.4320 c3        1 VXX      0.113700
     10 O1         -0.2560   -0.0620   -2.4540 o         1 VXX     -0.547000
     11 O2         -2.1280   -0.3320   -1.2700 os        1 VXX     -0.437900
     12 O3          1.8560    0.0200    3.6460 oh        1 VXX     -0.487100
     13 C9         -2.8230   -0.3770   -2.5170 c3        1 VXX      0.128700
     14 HO1         1.8460    0.1410   -0.9470 ha        1 VXX      0.161000
     15 HO2        -1.9210   -0.3530    1.1420 ha        1 VXX      0.172000
     16 HM1         3.0540    0.2280    1.2430 ha        1 VXX      0.143000
     17 HVC1        0.3730   -1.2090    4.8110 h1        1 VXX      0.046033
     18 HVC2       -0.8720   -2.2280    3.9260 h1        1 VXX      0.046033
     19 HVC3       -1.4080   -1.0810    5.2620 h1        1 VXX      0.046033
     20 H3          2.8040    0.1720    3.5070 ho        1 VXX      0.425000
     21 H9C1       -3.8900   -0.5180   -2.2170 h1        1 VXX      0.051700
     22 H9C2       -2.4510   -1.2330   -3.1290 h1        1 VXX      0.051700
     23 H9C3       -2.6750    0.5820   -3.0700 h1        1 VXX      0.051700
@<TRIPOS>BOND
     1    1    2 ar  
     2    1    3 ar  
     3    1    8 1   
     4    2    4 ar  
     5    2   14 1   
     6    3    5 ar  
     7    3   15 1   
     8    4    7 ar  
     9    4   16 1   
    10    5    6 1   
    11    5    7 ar  
    12    6    9 1   
    13    7   12 1   
    14    8   10 2   
    15    8   11 1   
    16    9   17 1   
    17    9   18 1   
    18    9   19 1   
    19   11   13 1   
    20   12   20 1   
    21   13   21 1   
    22   13   22 1   
    23   13   23 1   
@<TRIPOS>SUBSTRUCTURE
     1 VXX         1 TEMP              0 ****  ****    0 ROOT
