@<TRIPOS>MOLECULE
VYD
   68    70     1     0     0
SMALL
bcc


@<TRIPOS>ATOM
      1 C1          7.1880    2.3740   -0.1550 ca        1 VYD     -0.122000
      2 C2          8.2200    1.4380   -0.1560 ca        1 VYD     -0.123000
      3 C3          5.8610    1.9590   -0.1470 ca        1 VYD     -0.112000
      4 C4          7.9230    0.0780   -0.1310 ca        1 VYD     -0.123000
      5 C5          5.5350    0.5860   -0.1380 ca        1 VYD      0.052600
      6 C6          6.5930   -0.3520   -0.1110 ca        1 VYD      0.016400
      7 C7          3.2920    0.6190    0.8340 c         1 VYD      0.703500
      8 C9          1.8420    0.1400    0.7850 c3        1 VYD      0.097800
      9 C10        -2.3840   -0.6900    0.1600 c3        1 VYD     -0.069400
     10 C11        -3.5600    1.4640   -0.3570 c3        1 VYD      0.156800
     11 C12        -1.1910    1.2980   -0.7940 c3        1 VYD      0.155800
     12 C13         3.6700   -0.4040   -1.3660 c3        1 VYD      0.102000
     13 C14        -3.5220    0.2340    0.5670 c3        1 VYD     -0.173700
     14 C15        -1.0610    0.0620    0.1100 c3        1 VYD     -0.102700
     15 C16         2.3230   -1.1800   -1.2080 c3        1 VYD      0.186200
     16 C17         2.6100   -2.5150   -0.5070 c3        1 VYD     -0.108100
     17 C18         1.8690   -1.5000   -2.6430 c3        1 VYD     -0.108100
     18 C19       -10.3570    0.0990    1.4280 c3        1 VYD     -0.091600
     19 C20       -10.3910    0.3010   -1.0470 c3        1 VYD     -0.091600
     20 C21         0.0190   -0.8940   -0.4140 c3        1 VYD      0.174800
     21 C22        -8.2140    0.3830    0.1530 c3        1 VYD     -0.103400
     22 C23        -7.2660   -0.4490    1.0200 c3        1 VYD      0.082000
     23 C24        -9.6130   -0.2150    0.1460 c3        1 VYD     -0.064700
     24 N25        -2.3030    2.1710   -0.4740 n3        1 VYD     -0.796200
     25 N26         4.1780    0.1610   -0.1370 n         1 VYD     -0.383000
     26 N27         1.3540   -0.3160   -0.5040 n3        1 VYD     -0.724600
     27 CL          6.2930   -2.0260   -0.0410 cl        1 VYD     -0.092400
     28 H1          7.4200    3.4500   -0.1590 ha        1 VYD      0.139000
     29 H2          9.2690    1.7690   -0.1680 ha        1 VYD      0.139000
     30 H3          5.0530    2.7080   -0.1190 ha        1 VYD      0.152000
     31 H4          8.7370   -0.6630   -0.1170 ha        1 VYD      0.148000
     32 H5          1.7510   -0.6490    1.5910 h1        1 VYD      0.069200
     33 H6          1.2110    1.0250    1.0880 h1        1 VYD      0.069200
     34 H7         -2.3170   -1.5400    0.8890 hc        1 VYD      0.062200
     35 H8         -2.6140   -1.1340   -0.8450 hc        1 VYD      0.062200
     36 H9         -3.8570    1.1250   -1.3900 h1        1 VYD      0.057700
     37 H10        -4.3390    2.1880    0.0120 h1        1 VYD      0.057700
     38 H11        -0.2440    1.9030   -0.7390 h1        1 VYD      0.064200
     39 H12        -1.3230    0.9530   -1.8580 h1        1 VYD      0.064200
     40 H13         4.4360   -1.1220   -1.7760 h1        1 VYD      0.055700
     41 H14         3.5180    0.4200   -2.1230 h1        1 VYD      0.055700
     42 H15        -3.3530    0.5690    1.6290 hc        1 VYD      0.064700
     43 H16        -0.8000    0.3920    1.1530 hc        1 VYD      0.047700
     44 H17         3.0110   -2.3510    0.5220 hc        1 VYD      0.045700
     45 H18         1.6810   -3.1300   -0.4380 hc        1 VYD      0.045700
     46 H19         3.3690   -3.0870   -1.0930 hc        1 VYD      0.045700
     47 H20         2.7390   -1.9030   -3.2170 hc        1 VYD      0.045700
     48 H21         1.0670   -2.2760   -2.6390 hc        1 VYD      0.045700
     49 H22         1.4900   -0.5870   -3.1610 hc        1 VYD      0.045700
     50 H23        -9.8130   -0.3110    2.3120 hc        1 VYD      0.034867
     51 H24       -10.4650    1.2030    1.5590 hc        1 VYD      0.034867
     52 H25       -11.3780   -0.3530    1.4010 hc        1 VYD      0.034867
     53 H26       -10.4660    1.4150   -1.0140 hc        1 VYD      0.034867
     54 H27        -9.8870    0.0090   -1.9990 hc        1 VYD      0.034867
     55 H28       -11.4240   -0.1230   -1.0480 hc        1 VYD      0.034867
     56 H29         0.0100   -1.8120    0.2470 h1        1 VYD      0.042700
     57 H30        -0.2840   -1.2140   -1.4510 h1        1 VYD      0.042700
     58 H31        -8.2610    1.4380    0.5290 hc        1 VYD      0.044700
     59 H32        -7.8220    0.4180   -0.8980 hc        1 VYD      0.044700
     60 H33        -7.6860   -0.5090    2.0650 h1        1 VYD      0.063700
     61 H34        -7.2110   -1.4970    0.6040 h1        1 VYD      0.063700
     62 H35        -9.5230   -1.3350    0.0520 hc        1 VYD      0.051700
     63 H36        -2.1110    2.6690    0.3780 hn        1 VYD      0.350800
     64 H39        -5.8430    1.0150    1.4300 hn        1 VYD      0.302500
     65 O29         3.6570    1.3460    1.7760 o         1 VYD     -0.628500
     66 C8         -4.8510   -0.5090    0.4840 c         1 VYD      0.659100
     67 N28        -5.9320    0.0780    1.1180 n         1 VYD     -0.565900
     68 O30        -4.9550   -1.6110   -0.0880 o         1 VYD     -0.605100
@<TRIPOS>BOND
     1    1    2 ar  
     2    1    3 ar  
     3    1   28 1   
     4    2    4 ar  
     5    2   29 1   
     6    3    5 ar  
     7    3   30 1   
     8    4    6 ar  
     9    4   31 1   
    10    5    6 ar  
    11    5   25 1   
    12    6   27 1   
    13    7    8 1   
    14    7   25 1   
    15    7   65 2   
    16    8   26 1   
    17    8   32 1   
    18    8   33 1   
    19    9   13 1   
    20    9   14 1   
    21    9   34 1   
    22    9   35 1   
    23   10   13 1   
    24   10   24 1   
    25   10   36 1   
    26   10   37 1   
    27   11   14 1   
    28   11   24 1   
    29   11   38 1   
    30   11   39 1   
    31   12   15 1   
    32   12   25 1   
    33   12   40 1   
    34   12   41 1   
    35   13   42 1   
    36   13   66 1   
    37   14   20 1   
    38   14   43 1   
    39   15   16 1   
    40   15   17 1   
    41   15   26 1   
    42   16   44 1   
    43   16   45 1   
    44   16   46 1   
    45   17   47 1   
    46   17   48 1   
    47   17   49 1   
    48   18   23 1   
    49   18   50 1   
    50   18   51 1   
    51   18   52 1   
    52   19   23 1   
    53   19   53 1   
    54   19   54 1   
    55   19   55 1   
    56   20   26 1   
    57   20   56 1   
    58   20   57 1   
    59   21   22 1   
    60   21   23 1   
    61   21   58 1   
    62   21   59 1   
    63   22   60 1   
    64   22   61 1   
    65   22   67 1   
    66   23   62 1   
    67   24   63 1   
    68   64   67 1   
    69   66   67 1   
    70   66   68 2   
@<TRIPOS>SUBSTRUCTURE
     1 VYD         1 TEMP              0 ****  ****    0 ROOT
