@<TRIPOS>MOLECULE
VYD
   69    64     1     0     0
SMALL
bcc


@<TRIPOS>ATOM
      1 C1         -2.1650    0.5200    0.9440 c1        1 VYD     -0.054000
      2 C2         -2.3840   -0.3340   -0.1600 c2        1 VYD     -0.542000
      3 C3         -1.9380   -0.0530    2.2650 c3        1 VYD     -0.161000
      4 C4         -2.5860    0.1630   -1.3790 c1        1 VYD      0.408000
      5 C5         -1.6820    1.0070    3.3050 c2        1 VYD      0.023000
      6 C6         -1.4950    2.2910    2.9380 c2        1 VYD     -0.152000
      7 C7         -2.1400    1.3610    5.6920 c2        1 VYD      0.298000
      8 C9         -1.9220   -1.5600    8.2760 c2        1 VYD     -0.033000
      9 C10        -4.2970    0.7820   10.0260 c2        1 VYD     -0.059000
     10 C11        -5.9960    4.4240    6.8850 c2        1 VYD      0.098000
     11 C12        -6.3690    2.5510    5.3750 c3        1 VYD     -0.150000
     12 C13        -0.9740   -0.6310    4.8450 c1        1 VYD     -0.036000
     13 C14        -4.8360    1.9060    9.5340 c2        1 VYD     -0.186000
     14 C15        -2.9550   -1.1630    9.2930 c3        1 VYD     -0.139000
     15 C16        -0.7710   -1.3310    6.1770 c3        1 VYD     -0.042000
     16 C17         0.6870   -1.0210    6.5770 c3        1 VYD     -0.206000
     17 C18        -0.8500   -2.8340    5.8410 c3        1 VYD     -0.206000
     18 C19        -8.3320    3.1990   13.3510 c1        1 VYD     -0.247000
     19 C20       -10.1200    4.9990   12.6770 c3        1 VYD     -0.122000
     20 C21        -2.9400    0.3140    9.6500 c3        1 VYD     -0.144000
     21 C22        -8.7350    4.7360    8.6630 c3        1 VYD     -0.205000
     22 C23        -8.1790    3.6340    9.5530 c3        1 VYD     -0.103000
     23 C24        -9.1450    4.0210   13.0390 c1        1 VYD     -0.157000
     24 N25        -5.6310    3.2910    6.3760 n3        1 VYD     -0.081000
     25 N26        -1.5660    0.5420    4.6630 n         1 VYD     -0.174000
     26 N27        -1.7330   -0.9070    7.1900 n2        1 VYD     -0.255000
     27 CL         -1.1110    3.5550    3.9970 cl        1 VYD     -0.039000
     28 H1         -2.8210   -0.6850    2.5760 hc        1 VYD      0.141000
     29 H2         -2.3810   -1.4420   -0.0460 ha        1 VYD      0.177000
     30 H3         -1.0420   -0.7500    2.2580 hc        1 VYD      0.141000
     31 H4         -1.5870    2.6020    1.8830 h4        1 VYD      0.215000
     32 H5         -1.3760   -2.4930    8.5450 h4        1 VYD      0.115000
     33 H6         -1.4650    1.5410    6.5640 h5        1 VYD      0.159000
     34 H7         -2.7890   -1.7700   10.2220 hc        1 VYD      0.106500
     35 H8         -3.9630   -1.4520    8.8840 hc        1 VYD      0.106500
     36 H9         -4.7710    2.8400    6.6780 hn        1 VYD      0.301000
     37 H10        -4.2840    2.5570    8.8390 ha        1 VYD      0.121000
     38 H11        -7.1280    3.2030    4.8670 h1        1 VYD      0.142000
     39 H12        -5.6310    2.1540    4.6200 h1        1 VYD      0.142000
     40 H13         1.0910   -2.0190    2.8880 ha        1 VYD      0.001500
     41 H14         0.7450   -1.7030    3.3790 ha        1 VYD      0.001500
     42 H15        -4.8510    0.1500   10.7450 ha        1 VYD      0.157000
     43 H16        -6.8880    1.6850    5.8720 h1        1 VYD      0.142000
     44 H17         0.9720   -1.6280    7.4680 hc        1 VYD      0.092000
     45 H18         1.3610   -1.2860    5.7260 hc        1 VYD      0.092000
     46 H19         0.8150    0.0610    6.8170 hc        1 VYD      0.092000
     47 H20        -1.8890   -3.1230    5.5590 hc        1 VYD      0.092000
     48 H21        -0.5240   -3.4430    6.7180 hc        1 VYD      0.092000
     49 H22        -0.1720   -3.0490    4.9790 hc        1 VYD      0.092000
     50 H23        -7.6160    2.4770   13.6590 ha        1 VYD      0.230000
     51 H24        -6.7850    0.4660   13.0680 ha        1 VYD      0.001500
     52 H25        -6.2290    0.2140   12.7720 ha        1 VYD      0.001500
     53 H26       -10.1000    5.1870   11.5720 hc        1 VYD      0.100333
     54 H27       -11.1480    4.6520   12.9600 hc        1 VYD      0.100333
     55 H28        -9.9170    5.9670   13.2050 hc        1 VYD      0.100333
     56 H29        -2.5400    0.9300    8.8010 hc        1 VYD      0.105500
     57 H30        -2.2510    0.4790   10.5250 hc        1 VYD      0.105500
     58 H31        -9.7170    5.0660    9.0820 hc        1 VYD      0.079333
     59 H32        -8.0510    5.6180    8.6300 hc        1 VYD      0.079333
     60 H33        -7.4670    2.1060   11.3640 ho        1 VYD      0.242000
     61 H34        -6.9480    4.9120    6.5870 h4        1 VYD      0.192500
     62 H35        -8.9030    4.3700    7.6220 hc        1 VYD      0.079333
     63 H36        -5.3660    4.9310    7.6470 h4        1 VYD      0.192500
     64 H39        -8.8950    2.7590    9.5170 h1        1 VYD      0.092000
     65 H282       -8.1870    4.0150   10.6200 h1        1 VYD      0.092000
     66 O29        -3.2920    1.8130    5.6340 o         1 VYD     -0.389000
     67 C8         -6.1920    2.3670    9.8970 c2        1 VYD      0.184000
     68 N28        -6.8610    3.2080    9.1610 n2        1 VYD     -0.363000
     69 O30        -6.6050    1.7660   11.0720 oh        1 VYD     -0.283000
@<TRIPOS>BOND
     1    1    2 1   
     2    1    3 1   
     3    2    4 1   
     4    2   29 1   
     5    3    5 1   
     6    3   28 1   
     7    3   30 1   
     8    5    6 1   
     9    5   25 1   
    10    6   27 1   
    11    6   31 1   
    12    7   25 1   
    13    7   33 1   
    14    7   66 1   
    15    8   14 1   
    16    8   26 1   
    17    8   32 1   
    18    9   13 1   
    19    9   20 1   
    20    9   42 1   
    21   10   24 1   
    22   10   61 1   
    23   10   63 1   
    24   11   24 1   
    25   11   38 1   
    26   11   39 1   
    27   11   43 1   
    28   12   15 1   
    29   12   25 1   
    30   13   37 1   
    31   13   67 1   
    32   14   20 1   
    33   14   34 1   
    34   14   35 1   
    35   15   16 1   
    36   15   17 1   
    37   15   26 1   
    38   16   44 1   
    39   16   45 1   
    40   16   46 1   
    41   17   47 1   
    42   17   48 1   
    43   17   49 1   
    44   18   23 1   
    45   18   50 1   
    46   19   23 1   
    47   19   53 1   
    48   19   54 1   
    49   19   55 1   
    50   20   56 1   
    51   20   57 1   
    52   21   22 1   
    53   21   58 1   
    54   21   59 1   
    55   21   62 1   
    56   22   64 1   
    57   22   65 1   
    58   22   68 1   
    59   24   36 1   
    60   40   41 1   
    61   51   52 1   
    62   60   69 1   
    63   67   68 1   
    64   67   69 1   
@<TRIPOS>SUBSTRUCTURE
     1 VYD         1 TEMP              0 ****  ****    0 ROOT
