@<TRIPOS>MOLECULE
VYD
   69    66     1     0     0
SMALL
bcc


@<TRIPOS>ATOM
      1 C1         -4.3210    0.8660    4.0110 cu        1 VYD     -0.023000
      2 C2         -4.4380   -0.0330    3.0120 c2        1 VYD     -0.201000
      3 C3         -4.2180    2.2350    4.4650 cx        1 VYD     -0.064000
      4 C4         -3.2230    0.0360    2.2040 c1        1 VYD      0.078000
      5 C5         -2.9090    1.4500    4.1780 cx        1 VYD     -0.208000
      6 C6         -2.3410    1.1420    2.7640 c3        1 VYD     -0.144000
      7 C7         -1.4730    2.4650    5.9000 c2        1 VYD      0.306000
      8 C9          0.5900    0.8970    8.5820 cv        1 VYD     -0.123000
      9 C10        -4.3390    2.3520    8.7740 c1        1 VYD     -0.071000
     10 C11        -5.5960   -1.4280    6.2170 c2        1 VYD     -0.103000
     11 C12        -4.6150   -1.0180    8.3280 c3        1 VYD     -0.175000
     12 C13        -1.6830    0.0240    5.6850 c2        1 VYD      0.167000
     13 C14        -5.4760    3.0730    9.2980 c3        1 VYD     -0.217000
     14 C15        -0.1010    0.9270    9.7530 cv        1 VYD     -0.176000
     15 C16        -0.6380   -0.3140    6.7600 c3        1 VYD      0.028000
     16 C17         0.6940   -0.4200    5.9820 c3        1 VYD     -0.237500
     17 C18        -0.9830   -1.7240    7.2670 c3        1 VYD     -0.237500
     18 C19        -7.7050    4.3200   10.2690 c2        1 VYD     -0.086000
     19 C20        -9.0080    4.0320   12.3510 c3        1 VYD     -0.192000
     20 C21        -1.4100    0.6330    9.0310 cy        1 VYD     -0.094000
     21 C22       -10.7210    2.8460    7.8580 c2        1 VYD     -0.223500
     22 C23       -11.0980    1.7650    8.5280 c2        1 VYD     -0.223500
     23 C24        -8.7700    3.8190   10.9120 c2        1 VYD     -0.149000
     24 N25        -4.5850   -1.0450    6.8970 n2        1 VYD     -0.244000
     25 N26        -2.0220    1.2280    5.2940 n         1 VYD     -0.103000
     26 N27        -0.6000    0.7410    7.7640 n3        1 VYD     -0.263000
     27 Cl         -0.6510    0.7480    2.7080 cl        1 VYD     -0.030000
     28 H1         -4.5520    3.0250    3.7560 hc        1 VYD      0.184500
     29 H2         -5.3210   -0.5990    2.6980 ha        1 VYD      0.206000
     30 H3         -4.4120    2.5320    5.5210 hc        1 VYD      0.184500
     31 H4         -2.4870    2.0380    2.0960 h1        1 VYD      0.187000
     32 H5          1.6100    1.0010    8.2260 h4        1 VYD      0.186000
     33 H6         -0.3900    2.5880    5.6780 h5        1 VYD      0.208000
     34 H7          0.1060    1.1440   10.7900 ha        1 VYD      0.184000
     35 H8         -4.2020    2.3040    7.6830 ha        1 VYD      0.058000
     36 H9         -6.0290    2.3730    9.9960 hc        1 VYD      0.172500
     37 H10        -2.1450   -0.8570    5.1730 h4        1 VYD      0.205000
     38 H11        -5.6290   -1.1850    8.7820 h1        1 VYD      0.094333
     39 H12        -3.9240   -1.8130    8.7190 h1        1 VYD      0.094333
     40 H13        -2.2650   -1.9950    2.4590 ha        1 VYD      0.012500
     41 H14        -2.2390   -1.7990    3.1120 ha        1 VYD      0.012500
     42 H15        -5.0660    3.9020    9.9520 hc        1 VYD      0.172500
     43 H16        -4.2290   -0.0150    8.6670 h1        1 VYD      0.094333
     44 H17         0.5700   -1.1050    5.1090 hc        1 VYD      0.108333
     45 H18         1.0360    0.5780    5.6190 hc        1 VYD      0.108333
     46 H19         1.4770   -0.8460    6.6570 hc        1 VYD      0.108333
     47 H20        -2.0370   -1.7800    7.6300 hc        1 VYD      0.108333
     48 H21        -0.2960   -1.9960    8.1060 hc        1 VYD      0.108333
     49 H22        -0.8480   -2.4680    6.4460 hc        1 VYD      0.108333
     50 H23        -2.5340    3.7190    8.9220 ha        1 VYD      0.012500
     51 H24        -6.9030    4.9220   10.7160 h4        1 VYD      0.139000
     52 H25        -2.9320    4.1710    8.6050 ha        1 VYD      0.012500
     53 H26        -9.9550    4.6130   12.4950 hc        1 VYD      0.093667
     54 H27        -9.1230    3.0470   12.8690 hc        1 VYD      0.093667
     55 H28        -8.1740    4.5950   12.8380 hc        1 VYD      0.093667
     56 H29        -1.8450   -0.3730    9.2370 h1        1 VYD      0.140500
     57 H30        -2.2070    1.4210    9.0920 h1        1 VYD      0.140500
     58 H31        -9.7860    3.3850    8.0750 ha        1 VYD      0.112250
     59 H32        -9.5380    3.2410   10.3670 ha        1 VYD      0.148000
     60 H33        -7.0870    4.1090    6.5500 hn        1 VYD      0.173000
     61 H34        -6.5720   -1.7670    6.6170 h4        1 VYD      0.120000
     62 H35       -11.3210    3.2790    7.0470 ha        1 VYD      0.112250
     63 H36        -5.5080   -1.4250    5.1140 h4        1 VYD      0.120000
     64 H39       -12.0340    1.2310    8.3160 ha        1 VYD      0.112250
     65 H282      -10.5030    1.3330    9.3430 ha        1 VYD      0.112250
     66 O29        -2.2040    3.2000    6.5370 o         1 VYD     -0.190000
     67 C8         -6.4750    3.6640    8.3380 c2        1 VYD      0.095000
     68 N28        -6.3400    3.6860    7.0600 n2        1 VYD     -0.315000
     69 O30        -7.6500    4.1970    8.8800 os        1 VYD     -0.225000
@<TRIPOS>BOND
     1    1    2 1   
     2    1    3 1   
     3    1    5 1   
     4    2    4 1   
     5    2   29 1   
     6    3    5 1   
     7    3   28 1   
     8    3   30 1   
     9    4    6 1   
    10    5    6 1   
    11    5   25 1   
    12    6   27 1   
    13    6   31 1   
    14    7   25 1   
    15    7   33 1   
    16    7   66 1   
    17    8   14 1   
    18    8   26 1   
    19    8   32 1   
    20    9   13 1   
    21    9   35 1   
    22   10   24 1   
    23   10   61 1   
    24   10   63 1   
    25   11   24 1   
    26   11   38 1   
    27   11   39 1   
    28   11   43 1   
    29   12   15 1   
    30   12   25 1   
    31   12   37 1   
    32   13   36 1   
    33   13   42 1   
    34   13   67 1   
    35   14   20 1   
    36   14   34 1   
    37   15   16 1   
    38   15   17 1   
    39   15   26 1   
    40   16   44 1   
    41   16   45 1   
    42   16   46 1   
    43   17   47 1   
    44   17   48 1   
    45   17   49 1   
    46   18   23 1   
    47   18   51 1   
    48   18   69 1   
    49   19   23 1   
    50   19   53 1   
    51   19   54 1   
    52   19   55 1   
    53   20   26 1   
    54   20   56 1   
    55   20   57 1   
    56   21   22 1   
    57   21   58 1   
    58   21   62 1   
    59   22   64 1   
    60   22   65 1   
    61   23   59 1   
    62   40   41 1   
    63   50   52 1   
    64   60   68 1   
    65   67   68 1   
    66   67   69 1   
@<TRIPOS>SUBSTRUCTURE
     1 VYD         1 TEMP              0 ****  ****    0 ROOT
