@<TRIPOS>MOLECULE
VYD
   69    62     1     0     0
SMALL
bcc


@<TRIPOS>ATOM
      1 C1          0.9010   -2.5020    3.2110 c1        1 VYD     -0.053000
      2 C2          0.8330   -3.5300    2.2480 c2        1 VYD     -0.543000
      3 C3         -0.2660   -1.6630    3.4690 c3        1 VYD     -0.158000
      4 C4          1.8880   -4.3100    2.0090 c1        1 VYD      0.427000
      5 C5          0.0390   -0.5980    4.4870 c2        1 VYD     -0.012000
      6 C6          1.2300   -0.5540    5.1180 c2        1 VYD     -0.121000
      7 C7         -0.7350    1.6910    4.4830 c2        1 VYD      0.247000
      8 C9         -3.7000    2.8390    6.0260 cv        1 VYD      0.214000
      9 C10        -8.5160    5.4950    7.9880 c2        1 VYD     -0.317000
     10 C11       -10.4100    4.0830    7.1950 c2        1 VYD     -0.256000
     11 C12        -6.0620    3.0990    5.7710 c1        1 VYD     -0.001000
     12 C13        -2.1430   -0.2380    5.2480 c1        1 VYD     -0.034000
     13 C14        -9.8770    5.2410    7.5950 c2        1 VYD     -0.098000
     14 C15        -3.6180    3.3630    7.4570 cy        1 VYD     -0.207000
     15 C16        -3.3970    0.3370    5.7210 c2        1 VYD     -0.086000
     16 C17        -0.2660    1.2730    9.7470 c3        1 VYD     -0.273000
     17 C18        -4.4840   -0.4660    5.5980 c2        1 VYD     -0.066000
     18 C19        -5.1690    0.3500    9.9630 c1        1 VYD     -0.111000
     19 C20        -7.0220   -1.1710   10.6860 c3        1 VYD     -0.202000
     20 C21        -3.3810    1.8700    7.8600 cy        1 VYD     -0.103000
     21 C22        -7.4340    1.1870   10.0750 c2        1 VYD     -0.042000
     22 C23        -6.9920    2.5670    9.7230 c3        1 VYD     -0.050000
     23 C24        -6.5520    0.1710   10.2430 c2        1 VYD     -0.193000
     24 N25        -7.1650    3.4830    5.8600 n2        1 VYD     -0.284000
     25 N26        -1.0390    0.3260    4.7870 n         1 VYD     -0.160000
     26 N27        -3.4840    1.5810    6.3990 n3        1 VYD     -0.118000
     27 CL          1.6450    0.5620    6.3140 cl        1 VYD     -0.015000
     28 H1         -0.6340   -1.1840    2.5160 hc        1 VYD      0.133000
     29 H2         -0.0940   -3.7230    1.6630 ha        1 VYD      0.174000
     30 H3         -1.1190   -2.2950    3.8660 hc        1 VYD      0.133000
     31 H4          2.0300   -1.2760    4.8660 h4        1 VYD      0.223000
     32 H5         -3.7740    3.2940    5.0320 h4        1 VYD      0.232000
     33 H6          0.2930    1.8530    4.0760 h5        1 VYD      0.178000
     34 H7         -2.7620    4.0480    7.6480 hc        1 VYD      0.160000
     35 H8         -8.1620    6.5250    7.8120 ha        1 VYD      0.145000
     36 H9         -8.0770    3.8100    5.9870 hn        1 VYD      0.314000
     37 H10        -9.8640    3.1380    7.0980 ha        1 VYD      0.116500
     38 H11        -5.0190   -1.5020    8.5030 ha        1 VYD      0.005375
     39 H12        -4.5640    3.8080    7.8480 hc        1 VYD      0.160000
     40 H13        -3.3060   -3.2410    4.0170 ha        1 VYD      0.005375
     41 H14        -3.0540   -3.3460    4.6370 ha        1 VYD      0.005375
     42 H15       -10.5170    6.1460    7.6200 ha        1 VYD      0.137000
     43 H16        -4.8770   -1.0020    8.0640 ha        1 VYD      0.005375
     44 H17         0.5810    1.1200   10.4520 hc        1 VYD      0.068750
     45 H18         0.0600    1.0070    8.7180 hc        1 VYD      0.068750
     46 H19        -0.5800    2.3400    9.7760 hc        1 VYD      0.068750
     47 H20        -5.4950   -0.1770    5.9150 ha        1 VYD      0.154500
     48 H21        -4.3760   -1.4680    5.1480 ha        1 VYD      0.154500
     49 H22        -1.1170    0.6240   10.0490 hc        1 VYD      0.068750
     50 H23        -4.4580   -0.2700   10.5280 ha        1 VYD      0.072000
     51 H24        -4.5540    1.8420   11.6580 ha        1 VYD      0.005375
     52 H25        -4.6390    2.2510   11.1200 ha        1 VYD      0.005375
     53 H26        -8.1370   -1.2250   10.7350 hc        1 VYD      0.093333
     54 H27        -6.6130   -1.4010   11.7020 hc        1 VYD      0.093333
     55 H28        -6.6650   -1.9600    9.9780 hc        1 VYD      0.093333
     56 H29        -2.3680    1.6380    8.2720 h1        1 VYD      0.177000
     57 H30        -4.1890    1.3790    8.4900 h1        1 VYD      0.177000
     58 H31        -4.6440    4.3340   10.3670 ha        1 VYD      0.005375
     59 H32        -8.5100    1.0330   10.2680 ha        1 VYD      0.140000
     60 H33        -6.3050    5.9550    8.8510 ho        1 VYD      0.243000
     61 H34        -5.9950    2.5270    9.1840 h1        1 VYD      0.115500
     62 H35        -4.2230    4.6590    9.9460 ha        1 VYD      0.005375
     63 H36       -11.4720    4.0160    6.9160 ha        1 VYD      0.116500
     64 H39        -6.8050    3.1290   10.6910 h1        1 VYD      0.115500
     65 H282       -8.8930    3.1140    9.0930 hn        1 VYD      0.213000
     66 O29        -1.5540    2.6020    4.6350 o         1 VYD     -0.339000
     67 C8         -7.6670    4.6200    8.6000 c2        1 VYD      0.142000
     68 N28        -7.9270    3.2690    8.8670 n3        1 VYD     -0.282000
     69 O30        -6.3680    4.9910    8.9330 oh        1 VYD     -0.290000
@<TRIPOS>BOND
     1    1    2 1   
     2    1    3 1   
     3    2    4 1   
     4    2   29 1   
     5    3    5 1   
     6    3   28 1   
     7    3   30 1   
     8    5    6 1   
     9    5   25 1   
    10    6   27 1   
    11    6   31 1   
    12    7   25 1   
    13    7   33 1   
    14    7   66 1   
    15    8   14 1   
    16    8   26 1   
    17    8   32 1   
    18    9   13 1   
    19    9   35 1   
    20    9   67 1   
    21   10   13 1   
    22   10   37 1   
    23   10   63 1   
    24   11   24 1   
    25   12   15 1   
    26   12   25 1   
    27   13   42 1   
    28   14   20 1   
    29   14   34 1   
    30   14   39 1   
    31   15   17 1   
    32   15   26 1   
    33   16   44 1   
    34   16   45 1   
    35   16   46 1   
    36   16   49 1   
    37   17   47 1   
    38   17   48 1   
    39   18   23 1   
    40   18   50 1   
    41   19   23 1   
    42   19   53 1   
    43   19   54 1   
    44   19   55 1   
    45   20   26 1   
    46   20   56 1   
    47   20   57 1   
    48   21   22 1   
    49   21   23 1   
    50   21   59 1   
    51   22   61 1   
    52   22   64 1   
    53   22   68 1   
    54   24   36 1   
    55   38   43 1   
    56   40   41 1   
    57   51   52 1   
    58   58   62 1   
    59   60   69 1   
    60   65   68 1   
    61   67   68 1   
    62   67   69 1   
@<TRIPOS>SUBSTRUCTURE
     1 VYD         1 TEMP              0 ****  ****    0 ROOT
