@<TRIPOS>MOLECULE
VYE
   66    68     1     0     0
SMALL
bcc


@<TRIPOS>ATOM
      1 C1         -0.2300    0.0320   -0.0600 c3        1 VYE     -0.131700
      2 C2          0.9700   -0.5600   -0.8290 c3        1 VYE      0.174800
      3 N3          1.9400   -1.1030    0.0930 n7        1 VYE     -0.824200
      4 C4          1.4060   -2.1090    0.9910 c3        1 VYE      0.149800
      5 C5          0.2020   -1.5630    1.8180 c3        1 VYE      0.208500
      6 C6         -0.8580   -1.0370    0.8260 c3        1 VYE     -0.117400
      7 N7         -0.2550   -2.5710    2.7580 n3        1 VYE     -0.743600
      8 C8         -1.1800   -3.5310    2.1940 c3        1 VYE      0.105800
      9 C9         -1.6030   -4.6690    3.1280 c         1 VYE      0.704500
     10 N10        -1.6190   -4.4130    4.4940 n         1 VYE     -0.379000
     11 C11        -0.7970   -3.3550    5.0360 c3        1 VYE      0.103000
     12 C12        -0.6330   -2.1080    4.1040 c3        1 VYE      0.196200
     13 O13        -2.0000   -5.7350    2.6280 o         1 VYE     -0.609500
     14 C14         0.4710   -1.2610    4.7630 c3        1 VYE     -0.110100
     15 C15        -1.9320   -1.2920    4.1510 c3        1 VYE     -0.110100
     16 C16        -2.0710   -5.4030    5.4120 ca        1 VYE      0.034600
     17 C17        -3.1240   -5.1260    6.3130 ca        1 VYE      0.019400
     18 C18        -3.5560   -6.0980    7.2200 ca        1 VYE     -0.119000
     19 C19        -2.9620   -7.3570    7.2310 ca        1 VYE     -0.113000
     20 C20        -1.9370   -7.6520    6.3320 ca        1 VYE     -0.118000
     21 C21        -1.4920   -6.6890    5.4320 ca        1 VYE     -0.109000
     22 Cl1        -3.9060   -3.6130    6.3210 cl        1 VYE     -0.095400
     23 C23        -1.2610    0.5540   -1.0270 c         1 VYE      0.549100
     24 O24        -2.4000    0.1680   -1.2220 o         1 VYE     -0.396100
     25 N25        -0.8330    1.7530   -1.8620 ny        1 VYE     -0.687800
     26 C26        -0.6650    1.3770   -3.3010 c3        1 VYE      0.103800
     27 C27        -0.2830    2.5640   -4.1740 c3        1 VYE     -0.108400
     28 C28        -0.1420    2.1250   -5.6280 c3        1 VYE     -0.060700
     29 C29        -0.1540    3.3490   -6.5240 c3        1 VYE     -0.100100
     30 C30         1.1270    1.3290   -5.8470 c3        1 VYE     -0.100100
     31 H1          0.1210    0.8870    0.5890 hc        1 VYE      0.109700
     32 H2          1.4840    0.2490   -1.4200 h1        1 VYE      0.033200
     33 H3          0.5700   -1.3260   -1.5590 h1        1 VYE      0.033200
     34 H4          2.7360   -1.4570   -0.4040 hn        1 VYE      0.397800
     35 H6          2.2340   -2.3910    1.7010 h1        1 VYE      0.063700
     36 H7          1.0840   -3.0390    0.4390 h1        1 VYE      0.063700
     37 H8          0.5790   -0.6730    2.4060 h1        1 VYE      0.076700
     38 H9         -1.7300   -0.6090    1.3840 hc        1 VYE      0.074200
     39 H10        -1.2390   -1.8730    0.1820 hc        1 VYE      0.074200
     40 H12        -0.6860   -4.0100    1.3000 h1        1 VYE      0.064200
     41 H13        -2.1490   -3.0560    1.8530 h1        1 VYE      0.064200
     42 H14        -1.2600   -3.0020    6.0010 h1        1 VYE      0.063200
     43 H15         0.2330   -3.7600    5.2640 h1        1 VYE      0.063200
     44 H16         1.4820   -1.6990    4.5820 hc        1 VYE      0.047700
     45 H17         0.4530   -0.2120    4.3810 hc        1 VYE      0.047700
     46 H18         0.2910   -1.2260    5.8650 hc        1 VYE      0.047700
     47 H19        -1.8350   -0.3620    3.5410 hc        1 VYE      0.047700
     48 H20        -2.1470   -0.9980    5.2070 hc        1 VYE      0.047700
     49 H21        -2.7960   -1.8880    3.7710 hc        1 VYE      0.047700
     50 H22        -4.3740   -5.8680    7.9210 ha        1 VYE      0.154000
     51 H23        -3.3090   -8.1200    7.9440 ha        1 VYE      0.147000
     52 H24        -1.4770   -8.6520    6.3300 ha        1 VYE      0.146000
     53 H25        -0.7000   -6.9420    4.7080 ha        1 VYE      0.151000
     54 H26         0.0490    2.1300   -1.5020 hn        1 VYE      0.456800
     55 H27        -1.6430    0.9330   -3.6510 hx        1 VYE      0.110700
     56 H28         0.1340    0.5810   -3.3510 hx        1 VYE      0.110700
     57 H29         0.6850    3.0140   -3.8290 hc        1 VYE      0.066700
     58 H30        -1.0750    3.3580   -4.1090 hc        1 VYE      0.066700
     59 H31        -1.0260    1.4800   -5.8980 hc        1 VYE      0.059700
     60 H32         0.6920    4.0320   -6.2700 hc        1 VYE      0.048867
     61 H33        -0.0480    3.0380   -7.5920 hc        1 VYE      0.048867
     62 H34        -1.1130    3.9090   -6.4140 hc        1 VYE      0.048867
     63 H35         1.2170    1.0490   -6.9260 hc        1 VYE      0.048867
     64 H36         2.0260    1.9300   -5.5670 hc        1 VYE      0.048867
     65 H37         1.1210    0.3900   -5.2440 hc        1 VYE      0.048867
     66 H252       -1.5510    2.4850   -1.7980 hn        1 VYE      0.456800
@<TRIPOS>BOND
     1    1    2 1   
     2    1    6 1   
     3    1   23 1   
     4    1   31 1   
     5    2    3 1   
     6    2   32 1   
     7    2   33 1   
     8    3    4 1   
     9    3   34 1   
    10    4    5 1   
    11    4   35 1   
    12    4   36 1   
    13    5    6 1   
    14    5    7 1   
    15    5   37 1   
    16    6   38 1   
    17    6   39 1   
    18    7    8 1   
    19    7   12 1   
    20    8    9 1   
    21    8   40 1   
    22    8   41 1   
    23    9   10 1   
    24    9   13 2   
    25   10   11 1   
    26   10   16 1   
    27   11   12 1   
    28   11   42 1   
    29   11   43 1   
    30   12   14 1   
    31   12   15 1   
    32   14   44 1   
    33   14   45 1   
    34   14   46 1   
    35   15   47 1   
    36   15   48 1   
    37   15   49 1   
    38   16   17 ar  
    39   16   21 ar  
    40   17   18 ar  
    41   17   22 1   
    42   18   19 ar  
    43   18   50 1   
    44   19   20 ar  
    45   19   51 1   
    46   20   21 ar  
    47   20   52 1   
    48   21   53 1   
    49   23   24 2   
    50   23   25 1   
    51   25   26 1   
    52   25   54 1   
    53   25   66 1   
    54   26   27 1   
    55   26   55 1   
    56   26   56 1   
    57   27   28 1   
    58   27   57 1   
    59   27   58 1   
    60   28   29 1   
    61   28   30 1   
    62   28   59 1   
    63   29   60 1   
    64   29   61 1   
    65   29   62 1   
    66   30   63 1   
    67   30   64 1   
    68   30   65 1   
@<TRIPOS>SUBSTRUCTURE
     1 VYE         1 TEMP              0 ****  ****    0 ROOT
