@<TRIPOS>MOLECULE
VYE
   65    67     1     0     0
SMALL
bcc


@<TRIPOS>ATOM
      1 C1         -2.8820    1.1880    0.1540 c3        1 VYE     -0.170700
      2 C2         -3.2820    1.8610   -1.1710 c3        1 VYE      0.155800
      3 N3         -2.3000    2.7850   -1.6970 n3        1 VYE     -0.795200
      4 C4         -0.9670    2.2260   -1.7630 c3        1 VYE      0.150800
      5 C5         -0.4760    1.6120   -0.4140 c3        1 VYE      0.158500
      6 C6         -1.5060    0.5550    0.0190 c3        1 VYE     -0.102400
      7 N7          0.9060    1.1610   -0.5360 n3        1 VYE     -0.736600
      8 C8          1.0330   -0.1630   -1.1110 c3        1 VYE      0.106800
      9 C9          2.4680   -0.6250   -1.3630 c         1 VYE      0.703500
     10 N10         3.4640   -0.1490   -0.5110 n         1 VYE     -0.382000
     11 C11         3.2580    1.0880    0.2090 c3        1 VYE      0.101000
     12 C12         1.7760    1.3640    0.6340 c3        1 VYE      0.197200
     13 O13         2.6940   -1.4680   -2.2490 o         1 VYE     -0.622500
     14 C14         1.7710    2.8250    1.1210 c3        1 VYE     -0.108600
     15 C15         1.4470    0.4770    1.8430 c3        1 VYE     -0.108600
     16 C16         4.8130   -0.5690   -0.6730 ca        1 VYE      0.049600
     17 C17         5.5390   -1.1160    0.4100 ca        1 VYE      0.016400
     18 C18         6.8690   -1.5140    0.2450 ca        1 VYE     -0.123000
     19 C19         7.4880   -1.3940   -0.9960 ca        1 VYE     -0.123000
     20 C20         6.7770   -0.8810   -2.0800 ca        1 VYE     -0.122000
     21 C21         5.4570   -0.4720   -1.9250 ca        1 VYE     -0.112000
     22 CL1         4.8260   -1.3250    1.9420 cl        1 VYE     -0.092400
     23 C23        -3.9080    0.1220    0.5250 c         1 VYE      0.657100
     24 O24        -3.6250   -1.0920    0.5150 o         1 VYE     -0.601100
     25 N25        -5.1530    0.5690    0.9290 n         1 VYE     -0.564900
     26 C26        -6.2470   -0.3270    1.1910 c3        1 VYE      0.081000
     27 C27        -7.3680   -0.2790    0.1500 c3        1 VYE     -0.102400
     28 C28        -8.5100   -1.2080    0.5350 c3        1 VYE     -0.063700
     29 C29        -9.7670   -0.8250   -0.2200 c3        1 VYE     -0.092100
     30 C30        -8.1600   -2.6560    0.2620 c3        1 VYE     -0.092100
     31 H1         -2.8510    1.9600    0.9730 hc        1 VYE      0.063700
     32 H2         -3.4420    1.0580   -1.9450 h1        1 VYE      0.059200
     33 H3         -4.2510    2.4170   -1.0360 h1        1 VYE      0.059200
     34 H4         -2.2920    3.6260   -1.1460 hn        1 VYE      0.351800
     35 H6         -0.9700    1.4250   -2.5550 h1        1 VYE      0.065200
     36 H7         -0.2590    3.0380   -2.0860 h1        1 VYE      0.065200
     37 H8         -0.5020    2.4390    0.3560 h1        1 VYE      0.052700
     38 H9         -1.2100    0.0900    0.9950 hc        1 VYE      0.067200
     39 H10        -1.5620   -0.2710   -0.7390 hc        1 VYE      0.067200
     40 H12         0.5650   -0.9700   -0.4700 h1        1 VYE      0.074200
     41 H13         0.5070   -0.1590   -2.1090 h1        1 VYE      0.074200
     42 H14         3.8840    1.0650    1.1460 h1        1 VYE      0.053200
     43 H15         3.6070    1.9530   -0.4280 h1        1 VYE      0.053200
     44 H16         1.8040    3.5380    0.2640 hc        1 VYE      0.045367
     45 H17         0.8650    3.0360    1.7370 hc        1 VYE      0.045367
     46 H18         2.6690    2.9960    1.7640 hc        1 VYE      0.045367
     47 H19         2.1740    0.6850    2.6650 hc        1 VYE      0.045367
     48 H20         0.4190    0.6950    2.2190 hc        1 VYE      0.045367
     49 H21         1.5140   -0.6050    1.5790 hc        1 VYE      0.045367
     50 H22         7.4240   -1.9320    1.0990 ha        1 VYE      0.148000
     51 H23         8.5330   -1.7120   -1.1200 ha        1 VYE      0.139000
     52 H24         7.2580   -0.8010   -3.0660 ha        1 VYE      0.139000
     53 H25         4.8940   -0.0950   -2.7950 ha        1 VYE      0.154000
     54 H26        -5.3820    1.5220    0.7800 hn        1 VYE      0.301500
     55 H27        -5.8450   -1.3790    1.2570 h1        1 VYE      0.064200
     56 H28        -6.6780   -0.0530    2.1980 h1        1 VYE      0.064200
     57 H29        -7.7590    0.7690    0.0650 hc        1 VYE      0.044700
     58 H30        -6.9710   -0.5720   -0.8560 hc        1 VYE      0.044700
     59 H31        -8.7110   -1.0920    1.6390 hc        1 VYE      0.045700
     60 H32        -9.5950   -0.8860   -1.3210 hc        1 VYE      0.036033
     61 H33       -10.6030   -1.5140    0.0480 hc        1 VYE      0.036033
     62 H34       -10.0730    0.2190    0.0340 hc        1 VYE      0.036033
     63 H35        -7.2530   -2.9590    0.8380 hc        1 VYE      0.036033
     64 H36        -9.0070   -3.3200    0.5610 hc        1 VYE      0.036033
     65 H37        -7.9560   -2.8120   -0.8250 hc        1 VYE      0.036033
@<TRIPOS>BOND
     1    1    2 1   
     2    1    6 1   
     3    1   23 1   
     4    1   31 1   
     5    2    3 1   
     6    2   32 1   
     7    2   33 1   
     8    3    4 1   
     9    3   34 1   
    10    4    5 1   
    11    4   35 1   
    12    4   36 1   
    13    5    6 1   
    14    5    7 1   
    15    5   37 1   
    16    6   38 1   
    17    6   39 1   
    18    7    8 1   
    19    7   12 1   
    20    8    9 1   
    21    8   40 1   
    22    8   41 1   
    23    9   10 1   
    24    9   13 2   
    25   10   11 1   
    26   10   16 1   
    27   11   12 1   
    28   11   42 1   
    29   11   43 1   
    30   12   14 1   
    31   12   15 1   
    32   14   44 1   
    33   14   45 1   
    34   14   46 1   
    35   15   47 1   
    36   15   48 1   
    37   15   49 1   
    38   16   17 ar  
    39   16   21 ar  
    40   17   18 ar  
    41   17   22 1   
    42   18   19 ar  
    43   18   50 1   
    44   19   20 ar  
    45   19   51 1   
    46   20   21 ar  
    47   20   52 1   
    48   21   53 1   
    49   23   24 2   
    50   23   25 1   
    51   25   26 1   
    52   25   54 1   
    53   26   27 1   
    54   26   55 1   
    55   26   56 1   
    56   27   28 1   
    57   27   57 1   
    58   27   58 1   
    59   28   29 1   
    60   28   30 1   
    61   28   59 1   
    62   29   60 1   
    63   29   61 1   
    64   29   62 1   
    65   30   63 1   
    66   30   64 1   
    67   30   65 1   
@<TRIPOS>SUBSTRUCTURE
     1 VYE         1 TEMP              0 ****  ****    0 ROOT
