@<TRIPOS>MOLECULE
VYE
   66    68     1     0     0
SMALL
bcc


@<TRIPOS>ATOM
      1 C1         -0.2320    0.0340   -0.0630 c3        1 VYE     -0.131700
      2 C2          0.9620   -0.5620   -0.8390 c3        1 VYE      0.174800
      3 N3          1.9350   -1.1090    0.0770 n3        1 VYE     -0.824200
      4 C4          1.4020   -2.1150    0.9760 c3        1 VYE      0.149800
      5 C5          0.2040   -1.5660    1.8100 c3        1 VYE      0.208500
      6 C6         -0.8590   -1.0340    0.8240 c3        1 VYE     -0.117400
      7 N7         -0.2520   -2.5750    2.7500 n3        1 VYE     -0.743600
      8 C8         -1.1830   -3.5300    2.1890 c3        1 VYE      0.105800
      9 C9         -1.6060   -4.6680    3.1230 c         1 VYE      0.704500
     10 N10        -1.6150   -4.4140    4.4890 n         1 VYE     -0.379000
     11 C11        -0.7860   -3.3610    5.0300 c3        1 VYE      0.103000
     12 C12        -0.6220   -2.1120    4.0990 c3        1 VYE      0.196200
     13 O13        -2.0090   -5.7310    2.6230 o         1 VYE     -0.609500
     14 C14         0.4880   -1.2710    4.7540 c3        1 VYE     -0.110100
     15 C15        -1.9180   -1.2920    4.1540 c3        1 VYE     -0.110100
     16 C16        -2.0650   -5.4050    5.4080 ca        1 VYE      0.034600
     17 C17        -3.1130   -5.1250    6.3150 ca        1 VYE      0.019400
     18 C18        -3.5440   -6.0980    7.2220 ca        1 VYE     -0.119000
     19 C19        -2.9550   -7.3590    7.2270 ca        1 VYE     -0.113000
     20 C20        -1.9360   -7.6560    6.3230 ca        1 VYE     -0.118000
     21 C21        -1.4920   -6.6930    5.4220 ca        1 VYE     -0.109000
     22 CL1        -3.8890   -3.6090    6.3300 cl        1 VYE     -0.095400
     23 C23        -1.2660    0.5610   -1.0240 c         1 VYE      0.549100
     24 O24        -2.4080    0.1800   -1.2140 o         1 VYE     -0.396100
     25 N25        -0.8370    1.7600   -1.8600 n4        1 VYE     -0.687800
     26 C26        -0.6780    1.3850   -3.3000 c3        1 VYE      0.103800
     27 C27        -0.2960    2.5720   -4.1730 c3        1 VYE     -0.108400
     28 C28        -0.1650    2.1340   -5.6290 c3        1 VYE     -0.060700
     29 C29        -0.1750    3.3590   -6.5230 c3        1 VYE     -0.100100
     30 C30         1.0990    1.3320   -5.8560 c3        1 VYE     -0.100100
     31 H1          0.1260    0.8860    0.5860 hc        1 VYE      0.109700
     32 H2          1.4760    0.2470   -1.4310 h1        1 VYE      0.033200
     33 H3          0.5560   -1.3240   -1.5680 h1        1 VYE      0.033200
     34 H4          2.7270   -1.4660   -0.4240 hn        1 VYE      0.397800
     35 H6          1.0730   -3.0430    0.4240 h1        1 VYE      0.063700
     36 H7          2.2320   -2.4020    1.6820 h1        1 VYE      0.063700
     37 H8          0.5870   -0.6790    2.3980 h1        1 VYE      0.076700
     38 H9         -1.7270   -0.6040    1.3880 hc        1 VYE      0.074200
     39 H10        -1.2460   -1.8670    0.1810 hc        1 VYE      0.074200
     40 H12        -2.1520   -3.0500    1.8540 h1        1 VYE      0.064200
     41 H13        -0.6960   -4.0090    1.2920 h1        1 VYE      0.064200
     42 H14         0.2430   -3.7700    5.2520 h1        1 VYE      0.063200
     43 H15        -1.2430   -3.0080    5.9970 h1        1 VYE      0.063200
     44 H16         1.4960   -1.7120    4.5680 hc        1 VYE      0.047700
     45 H17         0.4720   -0.2210    4.3750 hc        1 VYE      0.047700
     46 H18         0.3140   -1.2370    5.8570 hc        1 VYE      0.047700
     47 H19        -2.1270   -0.9990    5.2120 hc        1 VYE      0.047700
     48 H20        -1.8200   -0.3610    3.5450 hc        1 VYE      0.047700
     49 H21        -2.7860   -1.8840    3.7770 hc        1 VYE      0.047700
     50 H22        -4.3580   -5.8660    7.9270 ha        1 VYE      0.154000
     51 H23        -3.3010   -8.1220    7.9410 ha        1 VYE      0.147000
     52 H24        -1.4790   -8.6570    6.3170 ha        1 VYE      0.146000
     53 H25        -0.7040   -6.9470    4.6940 ha        1 VYE      0.151000
     54 H26         0.0490    2.1320   -1.5040 hn        1 VYE      0.456800
     55 H27         0.1170    0.5860   -3.3560 hx        1 VYE      0.110700
     56 H28        -1.6590    0.9460   -3.6450 hx        1 VYE      0.110700
     57 H29         0.6760    3.0160   -3.8330 hc        1 VYE      0.066700
     58 H30        -1.0840    3.3690   -4.1020 hc        1 VYE      0.066700
     59 H31        -1.0540    1.4940   -5.8950 hc        1 VYE      0.059700
     60 H32        -0.0770    3.0490   -7.5920 hc        1 VYE      0.048867
     61 H33         0.6760    4.0370   -6.2730 hc        1 VYE      0.048867
     62 H34        -1.1310    3.9250   -6.4060 hc        1 VYE      0.048867
     63 H35         1.1820    1.0540   -6.9350 hc        1 VYE      0.048867
     64 H36         1.0910    0.3910   -5.2550 hc        1 VYE      0.048867
     65 H37         2.0020    1.9270   -5.5790 hc        1 VYE      0.048867
     66 H252       -1.5510    2.4950   -1.7900 hn        1 VYE      0.456800
@<TRIPOS>BOND
     1    1    2 1   
     2    1    6 1   
     3    1   23 1   
     4    1   31 1   
     5    2    3 1   
     6    2   32 1   
     7    2   33 1   
     8    3    4 1   
     9    3   34 1   
    10    4    5 1   
    11    4   35 1   
    12    4   36 1   
    13    5    6 1   
    14    5    7 1   
    15    5   37 1   
    16    6   38 1   
    17    6   39 1   
    18    7    8 1   
    19    7   12 1   
    20    8    9 1   
    21    8   40 1   
    22    8   41 1   
    23    9   10 1   
    24    9   13 2   
    25   10   11 1   
    26   10   16 1   
    27   11   12 1   
    28   11   42 1   
    29   11   43 1   
    30   12   14 1   
    31   12   15 1   
    32   14   44 1   
    33   14   45 1   
    34   14   46 1   
    35   15   47 1   
    36   15   48 1   
    37   15   49 1   
    38   16   17 ar  
    39   16   21 ar  
    40   17   18 ar  
    41   17   22 1   
    42   18   19 ar  
    43   18   50 1   
    44   19   20 ar  
    45   19   51 1   
    46   20   21 ar  
    47   20   52 1   
    48   21   53 1   
    49   23   24 2   
    50   23   25 1   
    51   25   26 1   
    52   25   54 1   
    53   25   66 1   
    54   26   27 1   
    55   26   55 1   
    56   26   56 1   
    57   27   28 1   
    58   27   57 1   
    59   27   58 1   
    60   28   29 1   
    61   28   30 1   
    62   28   59 1   
    63   29   60 1   
    64   29   61 1   
    65   29   62 1   
    66   30   63 1   
    67   30   64 1   
    68   30   65 1   
@<TRIPOS>SUBSTRUCTURE
     1 VYE         1 TEMP              0 ****  ****    0 ROOT
