@<TRIPOS>MOLECULE
VYE
   66    68     1     0     0
SMALL
bcc


@<TRIPOS>ATOM
      1 C1         -0.2520    0.1660    0.0140 c3        1 VYE     -0.175700
      2 C2          0.9600   -0.3960   -0.7700 c3        1 VYE      0.169800
      3 N3          1.9330   -1.0710    0.0430 n3        1 VYE     -0.788200
      4 C4          1.3690   -2.0690    0.9260 c3        1 VYE      0.143800
      5 C5          0.2120   -1.5220    1.8220 c3        1 VYE      0.177500
      6 C6         -0.8610   -0.9300    0.8820 c3        1 VYE     -0.119400
      7 N7         -0.2420   -2.5470    2.7440 n3        1 VYE     -0.737600
      8 C8         -1.1810   -3.4850    2.1630 c3        1 VYE      0.103800
      9 C9         -1.6170   -4.6370    3.0740 c         1 VYE      0.704500
     10 N10        -1.6170   -4.4140    4.4460 n         1 VYE     -0.379000
     11 C11        -0.7730   -3.3830    5.0050 c3        1 VYE      0.104000
     12 C12        -0.6070   -2.1130    4.1040 c3        1 VYE      0.194200
     13 O13        -2.0380   -5.6830    2.5520 o         1 VYE     -0.608500
     14 C14         0.5100   -1.2930    4.7750 c3        1 VYE     -0.110100
     15 C15        -1.8980   -1.2880    4.1840 c3        1 VYE     -0.110100
     16 C16        -2.0750   -5.4200    5.3430 ca        1 VYE      0.034600
     17 C17        -3.1140   -5.1470    6.2640 ca        1 VYE      0.019400
     18 C18        -3.5520   -6.1350    7.1500 ca        1 VYE     -0.119000
     19 C19        -2.9810   -7.4040    7.1220 ca        1 VYE     -0.113000
     20 C20        -1.9710   -7.6930    6.2050 ca        1 VYE     -0.117000
     21 C21        -1.5200   -6.7150    5.3240 ca        1 VYE     -0.109000
     22 CL1        -3.8690   -3.6220    6.3200 cl        1 VYE     -0.096400
     23 C23        -1.3060    0.6840   -0.9280 c         1 VYE      0.552100
     24 O24        -2.4610    0.3190   -1.0660 o         1 VYE     -0.397100
     25 N25        -0.8860    1.8360   -1.8310 n4        1 VYE     -0.686800
     26 C26        -0.7140    1.3760   -3.2450 c3        1 VYE      0.102800
     27 C27        -0.3430    2.5130   -4.1870 c3        1 VYE     -0.107400
     28 C28        -0.1930    1.9880   -5.6120 c3        1 VYE     -0.060700
     29 C29        -0.2190    3.1550   -6.5800 c3        1 VYE     -0.100600
     30 C30         1.0870    1.1970   -5.7800 c3        1 VYE     -0.100600
     31 H1          0.0840    1.0180    0.6720 hc        1 VYE      0.095700
     32 H2          0.5720   -1.1390   -1.5250 h1        1 VYE      0.057700
     33 H3          1.4740    0.4410   -1.3190 h1        1 VYE      0.057700
     34 H4          2.4970   -0.4160    0.5530 hn        1 VYE      0.373800
     35 H6          2.1950   -2.4640    1.5820 h1        1 VYE      0.085700
     36 H7          0.9880   -2.9180    0.2940 h1        1 VYE      0.085700
     37 H8          0.6310   -0.6660    2.4290 h1        1 VYE      0.060700
     38 H9         -1.7120   -0.5130    1.4810 hc        1 VYE      0.076200
     39 H10        -1.2730   -1.7360    0.2170 hc        1 VYE      0.076200
     40 H12        -2.1450   -2.9910    1.8340 h1        1 VYE      0.065200
     41 H13        -0.6950   -3.9510    1.2580 h1        1 VYE      0.065200
     42 H14         0.2540   -3.8060    5.2070 h1        1 VYE      0.063200
     43 H15        -1.2180   -3.0500    5.9850 h1        1 VYE      0.063200
     44 H16         0.3320   -1.2760    5.8780 hc        1 VYE      0.047200
     45 H17         0.5050   -0.2380    4.4130 hc        1 VYE      0.047200
     46 H18         1.5140   -1.7420    4.5850 hc        1 VYE      0.047200
     47 H19        -1.7900   -0.3320    3.6170 hc        1 VYE      0.047200
     48 H20        -2.7670   -1.8570    3.7750 hc        1 VYE      0.047200
     49 H21        -2.1140   -1.0400    5.2510 hc        1 VYE      0.047200
     50 H22        -4.3580   -5.9090    7.8660 ha        1 VYE      0.154000
     51 H23        -3.3330   -8.1790    7.8200 ha        1 VYE      0.147000
     52 H24        -1.5280   -8.7000    6.1710 ha        1 VYE      0.146000
     53 H25        -0.7400   -6.9630    4.5850 ha        1 VYE      0.152000
     54 H26        -1.6110    2.5640   -1.8110 hn        1 VYE      0.454800
     55 H27         0.0920    0.5850   -3.2490 hx        1 VYE      0.112200
     56 H28        -1.6880    0.9050   -3.5670 hx        1 VYE      0.112200
     57 H29         0.6200    2.9930   -3.8680 hc        1 VYE      0.065700
     58 H30        -1.1430    3.3010   -4.1710 hc        1 VYE      0.065700
     59 H31        -1.0680    1.3170   -5.8430 hc        1 VYE      0.059700
     60 H32        -0.1070    2.7810   -7.6270 hc        1 VYE      0.049367
     61 H33         0.6180    3.8630   -6.3670 hc        1 VYE      0.049367
     62 H34        -1.1850    3.7090   -6.5050 hc        1 VYE      0.049367
     63 H35         1.0920    0.2960   -5.1210 hc        1 VYE      0.049367
     64 H36         1.9780    1.8250   -5.5370 hc        1 VYE      0.049367
     65 H37         1.1820    0.8530   -6.8400 hc        1 VYE      0.049367
     66 H252       -0.0080    2.2410   -1.4940 hn        1 VYE      0.454800
@<TRIPOS>BOND
     1    1    2 1   
     2    1    6 1   
     3    1   23 1   
     4    1   31 1   
     5    2    3 1   
     6    2   32 1   
     7    2   33 1   
     8    3    4 1   
     9    3   34 1   
    10    4    5 1   
    11    4   35 1   
    12    4   36 1   
    13    5    6 1   
    14    5    7 1   
    15    5   37 1   
    16    6   38 1   
    17    6   39 1   
    18    7    8 1   
    19    7   12 1   
    20    8    9 1   
    21    8   40 1   
    22    8   41 1   
    23    9   10 1   
    24    9   13 2   
    25   10   11 1   
    26   10   16 1   
    27   11   12 1   
    28   11   42 1   
    29   11   43 1   
    30   12   14 1   
    31   12   15 1   
    32   14   44 1   
    33   14   45 1   
    34   14   46 1   
    35   15   47 1   
    36   15   48 1   
    37   15   49 1   
    38   16   17 ar  
    39   16   21 ar  
    40   17   18 ar  
    41   17   22 1   
    42   18   19 ar  
    43   18   50 1   
    44   19   20 ar  
    45   19   51 1   
    46   20   21 ar  
    47   20   52 1   
    48   21   53 1   
    49   23   24 2   
    50   23   25 1   
    51   25   26 1   
    52   25   54 1   
    53   25   66 1   
    54   26   27 1   
    55   26   55 1   
    56   26   56 1   
    57   27   28 1   
    58   27   57 1   
    59   27   58 1   
    60   28   29 1   
    61   28   30 1   
    62   28   59 1   
    63   29   60 1   
    64   29   61 1   
    65   29   62 1   
    66   30   63 1   
    67   30   64 1   
    68   30   65 1   
@<TRIPOS>SUBSTRUCTURE
     1 VYE         1 TEMP              0 ****  ****    0 ROOT
