@<TRIPOS>MOLECULE
VYF
   78    80     1     0     0
SMALL
bcc


@<TRIPOS>ATOM
      1 C1          0.4260   -0.2340   -0.0640 c3        1 VYF     -0.136700
      2 C2          1.6380   -0.9570   -0.6880 c3        1 VYF      0.171800
      3 N3          2.4760   -1.5180    0.3460 n3        1 VYF     -0.825200
      4 C4          1.7840   -2.4360    1.2300 c3        1 VYF      0.149800
      5 C5          0.5530   -1.7620    1.9120 c3        1 VYF      0.208500
      6 C6         -0.3640   -1.2070    0.8020 c3        1 VYF     -0.116400
      7 N7         -0.0670   -2.6880    2.8440 n3        1 VYF     -0.743600
      8 C8         -1.0130   -3.5980    2.2330 c3        1 VYF      0.105800
      9 C9         -1.6120   -4.6540    3.1670 c         1 VYF      0.704500
     10 N10        -1.7330   -4.3330    4.5140 n         1 VYF     -0.379000
     11 C11        -0.8790   -3.3190    5.0890 c3        1 VYF      0.103000
     12 C12        -0.5280   -2.1330    4.1280 c3        1 VYF      0.196200
     13 O13        -2.0480   -5.7080    2.6740 o         1 VYF     -0.610500
     14 C14        -1.7550   -1.2180    4.0190 c3        1 VYF     -0.110100
     15 C15         0.5770   -1.3450    4.8550 c3        1 VYF     -0.110100
     16 C16        -2.3440   -5.2420    5.4230 ca        1 VYF      0.035600
     17 C17        -3.4480   -4.8420    6.2110 ca        1 VYF      0.019400
     18 C18        -4.0370   -5.7350    7.1110 ca        1 VYF     -0.119000
     19 C19        -3.5520   -7.0350    7.2250 ca        1 VYF     -0.113000
     20 C20        -2.4780   -7.4500    6.4380 ca        1 VYF     -0.118000
     21 C21        -1.8770   -6.5670    5.5460 ca        1 VYF     -0.110000
     22 CL1        -4.1010   -3.2740    6.0880 cl        1 VYF     -0.096400
     23 C23        -0.4640    0.3100   -1.1590 c         1 VYF      0.546100
     24 O24        -1.5470   -0.1180   -1.5170 o         1 VYF     -0.398100
     25 N25         0.0510    1.5770   -1.8160 n4        1 VYF     -0.682800
     26 C26        -0.1190    1.7580   -3.3080 c3        1 VYF      0.141500
     27 C27        -1.5730    1.7020   -3.7660 c3        1 VYF     -0.105900
     28 C28         0.7980    0.8540   -4.1350 c3        1 VYF     -0.105900
     29 C29         0.3960   -0.6090   -4.2650 c3        1 VYF     -0.073700
     30 C30        -0.4060   -0.8560   -5.5290 c3        1 VYF     -0.100100
     31 C31         1.6340   -1.4880   -4.2810 c3        1 VYF     -0.100100
     32 C32        -2.5030    2.6700   -3.0490 c3        1 VYF     -0.073700
     33 C33        -1.9950    4.0960   -3.0790 c3        1 VYF     -0.100100
     34 C34        -3.8770    2.5940   -3.6890 c3        1 VYF     -0.100100
     35 H1          0.7870    0.6180    0.5820 hc        1 VYF      0.100700
     36 H2          1.2410   -1.7320   -1.4120 h1        1 VYF      0.038200
     37 H3          2.2610   -0.2230   -1.2730 h1        1 VYF      0.038200
     38 H4          3.2830   -1.9570   -0.0580 hn        1 VYF      0.395800
     39 H6          1.4430   -3.3670    0.6920 h1        1 VYF      0.062200
     40 H7          2.5170   -2.7420    2.0300 h1        1 VYF      0.062200
     41 H8          0.9420   -0.8760    2.4970 h1        1 VYF      0.075700
     42 H9         -1.2480   -0.6870    1.2550 hc        1 VYF      0.072700
     43 H10        -0.7500   -2.0420    0.1590 hc        1 VYF      0.072700
     44 H12        -1.9040   -3.0660    1.7820 h1        1 VYF      0.063700
     45 H13        -0.4800   -4.1550    1.4100 h1        1 VYF      0.063700
     46 H14        -1.3980   -2.8860    5.9910 h1        1 VYF      0.062700
     47 H15         0.0890   -3.7920    5.4300 h1        1 VYF      0.062700
     48 H16        -1.5260   -0.3290    3.3840 hc        1 VYF      0.047200
     49 H17        -2.0400   -0.8580    5.0380 hc        1 VYF      0.047200
     50 H18        -2.6270   -1.7620    3.5840 hc        1 VYF      0.047200
     51 H19         0.3000   -1.2450    5.9330 hc        1 VYF      0.047200
     52 H20         1.5600   -1.8690    4.7880 hc        1 VYF      0.047200
     53 H21         0.6790   -0.3180    4.4330 hc        1 VYF      0.047200
     54 H22        -4.8930   -5.4100    7.7230 ha        1 VYF      0.154000
     55 H23        -4.0230   -7.7350    7.9320 ha        1 VYF      0.147000
     56 H24        -2.1030   -8.4820    6.5170 ha        1 VYF      0.146000
     57 H25        -1.0470   -6.9140    4.9100 ha        1 VYF      0.151000
     58 H26         1.0520    1.6550   -1.6060 hn        1 VYF      0.455800
     59 H27         0.2480    2.8240   -3.4820 hx        1 VYF      0.092700
     60 H28        -1.9760    0.6580   -3.6570 hc        1 VYF      0.084450
     61 H29        -1.5650    1.9470   -4.8650 hc        1 VYF      0.084450
     62 H30         0.8330    1.3130   -5.1630 hc        1 VYF      0.084450
     63 H31         1.8430    0.9210   -3.7220 hc        1 VYF      0.084450
     64 H32        -0.2360   -0.9020   -3.3800 hc        1 VYF      0.035200
     65 H33        -1.3190   -0.2150   -5.5580 hc        1 VYF      0.048450
     66 H34        -0.7250   -1.9260   -5.5720 hc        1 VYF      0.048450
     67 H35         0.2110   -0.6380   -6.4340 hc        1 VYF      0.048450
     68 H36         2.2800   -1.2370   -5.1570 hc        1 VYF      0.048450
     69 H37         2.2330   -1.3510   -3.3490 hc        1 VYF      0.048450
     70 H38         1.3370   -2.5620   -4.3590 hc        1 VYF      0.048450
     71 H39        -2.6110    2.3410   -1.9750 hc        1 VYF      0.035200
     72 H40        -1.0920    4.2220   -2.4350 hc        1 VYF      0.048450
     73 H41        -1.7350    4.4010   -4.1220 hc        1 VYF      0.048450
     74 H42        -2.7850    4.7910   -2.7010 hc        1 VYF      0.048450
     75 H43        -4.2560    1.5440   -3.6790 hc        1 VYF      0.048450
     76 H44        -4.5970    3.2370   -3.1260 hc        1 VYF      0.048450
     77 H45        -3.8380    2.9500   -4.7470 hc        1 VYF      0.048450
     78 H252       -0.4450    2.3610   -1.3690 hn        1 VYF      0.455800
@<TRIPOS>BOND
     1    1    2 1   
     2    1    6 1   
     3    1   23 1   
     4    1   35 1   
     5    2    3 1   
     6    2   36 1   
     7    2   37 1   
     8    3    4 1   
     9    3   38 1   
    10    4    5 1   
    11    4   39 1   
    12    4   40 1   
    13    5    6 1   
    14    5    7 1   
    15    5   41 1   
    16    6   42 1   
    17    6   43 1   
    18    7    8 1   
    19    7   12 1   
    20    8    9 1   
    21    8   44 1   
    22    8   45 1   
    23    9   10 1   
    24    9   13 2   
    25   10   11 1   
    26   10   16 1   
    27   11   12 1   
    28   11   46 1   
    29   11   47 1   
    30   12   14 1   
    31   12   15 1   
    32   14   48 1   
    33   14   49 1   
    34   14   50 1   
    35   15   51 1   
    36   15   52 1   
    37   15   53 1   
    38   16   17 ar  
    39   16   21 ar  
    40   17   18 ar  
    41   17   22 1   
    42   18   19 ar  
    43   18   54 1   
    44   19   20 ar  
    45   19   55 1   
    46   20   21 ar  
    47   20   56 1   
    48   21   57 1   
    49   23   24 2   
    50   23   25 1   
    51   25   26 1   
    52   25   58 1   
    53   25   78 1   
    54   26   27 1   
    55   26   28 1   
    56   26   59 1   
    57   27   32 1   
    58   27   60 1   
    59   27   61 1   
    60   28   29 1   
    61   28   62 1   
    62   28   63 1   
    63   29   30 1   
    64   29   31 1   
    65   29   64 1   
    66   30   65 1   
    67   30   66 1   
    68   30   67 1   
    69   31   68 1   
    70   31   69 1   
    71   31   70 1   
    72   32   33 1   
    73   32   34 1   
    74   32   71 1   
    75   33   72 1   
    76   33   73 1   
    77   33   74 1   
    78   34   75 1   
    79   34   76 1   
    80   34   77 1   
@<TRIPOS>SUBSTRUCTURE
     1 VYF         1 TEMP              0 ****  ****    0 ROOT
