@<TRIPOS>MOLECULE
VYF
   78    80     1     0     0
SMALL
bcc


@<TRIPOS>ATOM
      1 C1          0.3170   -0.5370   -0.2000 c3        1 VYF     -0.135700
      2 C2          1.5730   -1.2590   -0.7340 c3        1 VYF      0.173800
      3 N3          2.4060   -1.6940    0.3630 n7        1 VYF     -0.825200
      4 C4          1.7290   -2.5600    1.3090 c3        1 VYF      0.149800
      5 C5          0.4590   -1.8800    1.9050 c3        1 VYF      0.208500
      6 C6         -0.4540   -1.4610    0.7330 c3        1 VYF     -0.117400
      7 N7         -0.1470   -2.7440    2.9040 n3        1 VYF     -0.744600
      8 C8         -1.0420   -3.7430    2.3580 c3        1 VYF      0.105800
      9 C9         -1.6210   -4.7350    3.3700 c         1 VYF      0.703500
     10 N10        -1.7860   -4.3010    4.6800 n         1 VYF     -0.379000
     11 C11        -0.9850   -3.2080    5.1800 c3        1 VYF      0.103000
     12 C12        -0.6580   -2.0980    4.1250 c3        1 VYF      0.196200
     13 O13        -2.0060   -5.8450    2.9650 o         1 VYF     -0.610500
     14 C14        -1.9170   -1.2460    3.9110 c3        1 VYF     -0.110100
     15 C15         0.3980   -1.2040    4.8000 c3        1 VYF     -0.110100
     16 C16        -2.3830   -5.1510    5.6550 ca        1 VYF      0.035600
     17 C17        -3.5190   -4.7270    6.3830 ca        1 VYF      0.019400
     18 C18        -4.0940   -5.5600    7.3460 ca        1 VYF     -0.119000
     19 C19        -3.5630   -6.8250    7.5850 ca        1 VYF     -0.113000
     20 C20        -2.4570   -7.2640    6.8590 ca        1 VYF     -0.118000
     21 C21        -1.8690   -6.4400    5.9040 ca        1 VYF     -0.110000
     22 Cl1        -4.2280   -3.2030    6.1090 cl        1 VYF     -0.096400
     23 C23        -0.5620   -0.1410   -1.3630 c         1 VYF      0.545100
     24 O24        -1.5820   -0.6810   -1.7550 o         1 VYF     -0.400100
     25 N25        -0.1110    1.1100   -2.0960 ny        1 VYF     -0.681800
     26 C26        -0.6110    1.2460   -3.5150 c3        1 VYF      0.120500
     27 C27        -1.0380    2.6850   -3.8220 c3        1 VYF     -0.111900
     28 C28         0.4500    0.8050   -4.5280 c3        1 VYF     -0.111900
     29 C29         0.8010   -0.6740   -4.4680 c3        1 VYF     -0.071700
     30 C30        -0.3690   -1.5470   -4.8730 c3        1 VYF     -0.102600
     31 C31         1.9900   -0.9420   -5.3710 c3        1 VYF     -0.102600
     32 C32        -2.1550    3.2300   -2.9440 c3        1 VYF     -0.071700
     33 C33        -2.5720    4.5920   -3.4700 c3        1 VYF     -0.102600
     34 C34        -3.3500    2.3020   -2.8930 c3        1 VYF     -0.102600
     35 H1          0.6270    0.3850    0.3710 hc        1 VYF      0.100700
     36 H2          1.2290   -2.1090   -1.3960 h1        1 VYF      0.038200
     37 H3          2.1830   -0.5500   -1.3620 h1        1 VYF      0.038200
     38 H4          3.2410   -2.1310    0.0170 hn        1 VYF      0.396800
     39 H6          2.4540   -2.7690    2.1460 h1        1 VYF      0.062200
     40 H7          1.4350   -3.5460    0.8450 h1        1 VYF      0.062200
     41 H8          0.8000   -0.9310    2.4170 h1        1 VYF      0.075700
     42 H9         -0.7930   -2.3640    0.1590 hc        1 VYF      0.072700
     43 H10        -1.3670   -0.9400    1.1220 hc        1 VYF      0.072700
     44 H12        -1.9420   -3.2890    1.8430 h1        1 VYF      0.064200
     45 H13        -0.4680   -4.3490    1.5990 h1        1 VYF      0.064200
     46 H14        -1.5400   -2.7180    6.0300 h1        1 VYF      0.062700
     47 H15        -0.0080   -3.6090    5.5790 h1        1 VYF      0.062700
     48 H16        -1.7080   -0.4070    3.2040 hc        1 VYF      0.047200
     49 H17        -2.7560   -1.8610    3.5070 hc        1 VYF      0.047200
     50 H18        -2.2400   -0.8100    4.8870 hc        1 VYF      0.047200
     51 H19         1.4020   -1.6910    4.7980 hc        1 VYF      0.047200
     52 H20         0.4700   -0.2150    4.2900 hc        1 VYF      0.047200
     53 H21         0.0930   -1.0210    5.8590 hc        1 VYF      0.047200
     54 H22        -4.9750   -5.2170    7.9110 ha        1 VYF      0.154000
     55 H23        -4.0230   -7.4780    8.3420 ha        1 VYF      0.147000
     56 H24        -2.0450   -8.2700    7.0360 ha        1 VYF      0.146000
     57 H25        -1.0130   -6.8080    5.3170 ha        1 VYF      0.151000
     58 H26         0.9150    1.1280   -2.0990 hn        1 VYF      0.457300
     59 H27        -1.5190    0.5710   -3.6140 hx        1 VYF      0.133700
     60 H28        -1.3920    2.6880   -4.8910 hc        1 VYF      0.081450
     61 H29        -0.1500    3.3690   -3.7670 hc        1 VYF      0.081450
     62 H30         1.3800    1.4220   -4.4040 hc        1 VYF      0.081450
     63 H31         0.0400    1.0340   -5.5510 hc        1 VYF      0.081450
     64 H32         1.0970   -0.9420   -3.4130 hc        1 VYF      0.019700
     65 H33        -1.2000   -1.4720   -4.1300 hc        1 VYF      0.051367
     66 H34        -0.0470   -2.6160   -4.9280 hc        1 VYF      0.051367
     67 H35        -0.7560   -1.2480   -5.8770 hc        1 VYF      0.051367
     68 H36         1.7400   -0.6950   -6.4310 hc        1 VYF      0.051367
     69 H37         2.8690   -0.3280   -5.0600 hc        1 VYF      0.051367
     70 H38         2.2750   -2.0210   -5.3190 hc        1 VYF      0.051367
     71 H39        -1.7720    3.3810   -1.8940 hc        1 VYF      0.019700
     72 H40        -3.0160    4.4990   -4.4910 hc        1 VYF      0.051367
     73 H41        -3.3350    5.0450   -2.7930 hc        1 VYF      0.051367
     74 H42        -1.6920    5.2780   -3.5250 hc        1 VYF      0.051367
     75 H43        -3.6950    2.0460   -3.9240 hc        1 VYF      0.051367
     76 H44        -3.1020    1.3550   -2.3540 hc        1 VYF      0.051367
     77 H45        -4.1950    2.7980   -2.3550 hc        1 VYF      0.051367
     78 H252       -0.4460    1.9170   -1.5530 hn        1 VYF      0.457300
@<TRIPOS>BOND
     1    1    2 1   
     2    1    6 1   
     3    1   23 1   
     4    1   35 1   
     5    2    3 1   
     6    2   36 1   
     7    2   37 1   
     8    3    4 1   
     9    3   38 1   
    10    4    5 1   
    11    4   39 1   
    12    4   40 1   
    13    5    6 1   
    14    5    7 1   
    15    5   41 1   
    16    6   42 1   
    17    6   43 1   
    18    7    8 1   
    19    7   12 1   
    20    8    9 1   
    21    8   44 1   
    22    8   45 1   
    23    9   10 1   
    24    9   13 2   
    25   10   11 1   
    26   10   16 1   
    27   11   12 1   
    28   11   46 1   
    29   11   47 1   
    30   12   14 1   
    31   12   15 1   
    32   14   48 1   
    33   14   49 1   
    34   14   50 1   
    35   15   51 1   
    36   15   52 1   
    37   15   53 1   
    38   16   17 ar  
    39   16   21 ar  
    40   17   18 ar  
    41   17   22 1   
    42   18   19 ar  
    43   18   54 1   
    44   19   20 ar  
    45   19   55 1   
    46   20   21 ar  
    47   20   56 1   
    48   21   57 1   
    49   23   24 2   
    50   23   25 1   
    51   25   26 1   
    52   25   58 1   
    53   25   78 1   
    54   26   27 1   
    55   26   28 1   
    56   26   59 1   
    57   27   32 1   
    58   27   60 1   
    59   27   61 1   
    60   28   29 1   
    61   28   62 1   
    62   28   63 1   
    63   29   30 1   
    64   29   31 1   
    65   29   64 1   
    66   30   65 1   
    67   30   66 1   
    68   30   67 1   
    69   31   68 1   
    70   31   69 1   
    71   31   70 1   
    72   32   33 1   
    73   32   34 1   
    74   32   71 1   
    75   33   72 1   
    76   33   73 1   
    77   33   74 1   
    78   34   75 1   
    79   34   76 1   
    80   34   77 1   
@<TRIPOS>SUBSTRUCTURE
     1 VYF         1 TEMP              0 ****  ****    0 ROOT
