@<TRIPOS>MOLECULE
VYF
   77    79     1     0     0
SMALL
bcc


@<TRIPOS>ATOM
      1 C1         -2.2740    0.3840   -1.1270 c3        1 VYF     -0.169700
      2 C2         -2.4710   -0.2230   -2.5290 c3        1 VYF      0.155800
      3 N3         -1.4540    0.1410   -3.4910 n3        1 VYF     -0.795200
      4 C4         -0.1070   -0.0660   -3.0030 c3        1 VYF      0.151800
      5 C5          0.1730    0.6130   -1.6240 c3        1 VYF      0.158500
      6 C6         -0.8700    0.0850   -0.6250 c3        1 VYF     -0.102400
      7 N7          1.5740    0.4440   -1.2530 n3        1 VYF     -0.736600
      8 C8          1.8510   -0.8260   -0.6120 c3        1 VYF      0.106800
      9 C9          3.3260   -1.0910   -0.3090 c         1 VYF      0.703500
     10 N10         4.1420    0.0070   -0.0380 n         1 VYF     -0.382000
     11 C11         3.7660    1.3160   -0.5260 c3        1 VYF      0.101000
     12 C12         2.2230    1.5800   -0.5790 c3        1 VYF      0.197200
     13 O13         3.7350   -2.2620   -0.2260 o         1 VYF     -0.622500
     14 C14         1.7310    1.8500    0.8500 c3        1 VYF     -0.108600
     15 C15         2.0750    2.8930   -1.3710 c3        1 VYF     -0.108600
     16 C16         5.5150   -0.1770    0.2830 ca        1 VYF      0.049600
     17 C17         6.0690    0.3850    1.4570 ca        1 VYF      0.016400
     18 C18         7.4230    0.2110    1.7580 ca        1 VYF     -0.123000
     19 C19         8.2380   -0.5370    0.9130 ca        1 VYF     -0.123000
     20 C20         7.7010   -1.1190   -0.2340 ca        1 VYF     -0.122000
     21 C21         6.3580   -0.9430   -0.5500 ca        1 VYF     -0.112000
     22 CL1         5.1150    1.2770    2.5500 cl        1 VYF     -0.092400
     23 C23        -3.3040   -0.2020   -0.1650 c         1 VYF      0.664100
     24 O24        -2.9750   -0.9750    0.7570 o         1 VYF     -0.612100
     25 N25        -4.6150    0.1790   -0.3520 n         1 VYF     -0.563900
     26 C26        -5.7080   -0.3600    0.4250 c3        1 VYF      0.094700
     27 C27        -6.5040    0.7280    1.1670 c3        1 VYF     -0.089400
     28 C28        -6.7060   -1.1680   -0.4240 c3        1 VYF     -0.089400
     29 C29        -6.0890   -2.3510   -1.1520 c3        1 VYF     -0.064200
     30 C30        -5.4520   -3.3350   -0.1930 c3        1 VYF     -0.095850
     31 C31        -7.1520   -3.0420   -1.9840 c3        1 VYF     -0.095850
     32 C32        -5.6750    1.5550    2.1370 c3        1 VYF     -0.064200
     33 C33        -6.5600    2.5930    2.8000 c3        1 VYF     -0.095850
     34 C34        -5.0030    0.6930    3.1840 c3        1 VYF     -0.095850
     35 H1         -2.4160    1.4990   -1.1770 hc        1 VYF      0.061700
     36 H2         -2.4660   -1.3460   -2.4340 h1        1 VYF      0.060700
     37 H3         -3.4720    0.0880   -2.9380 h1        1 VYF      0.060700
     38 H4         -1.5730    1.0990   -3.7700 hn        1 VYF      0.350800
     39 H6          0.0580   -1.1750   -2.9090 h1        1 VYF      0.064700
     40 H7          0.6120    0.3340   -3.7700 h1        1 VYF      0.064700
     41 H8         -0.0180    1.7200   -1.7540 h1        1 VYF      0.052700
     42 H9         -0.7250    0.5530    0.3830 hc        1 VYF      0.066700
     43 H10        -0.7620   -1.0250   -0.4950 hc        1 VYF      0.066700
     44 H12         1.3150   -0.9490    0.3780 h1        1 VYF      0.074200
     45 H13         1.5030   -1.6470   -1.3030 h1        1 VYF      0.074200
     46 H14         4.2240    2.0940    0.1470 h1        1 VYF      0.053700
     47 H15         4.1810    1.4600   -1.5670 h1        1 VYF      0.053700
     48 H16         2.2980    2.7080    1.2830 hc        1 VYF      0.045367
     49 H17         0.6460    2.1110    0.8470 hc        1 VYF      0.045367
     50 H18         1.8870    0.9590    1.5040 hc        1 VYF      0.045367
     51 H19         2.2240    2.7250   -2.4640 hc        1 VYF      0.045367
     52 H20         1.0690    3.3460   -1.2040 hc        1 VYF      0.045367
     53 H21         2.8430    3.6210   -1.0130 hc        1 VYF      0.045367
     54 H22         7.8420    0.6590    2.6720 ha        1 VYF      0.148000
     55 H23         9.3020   -0.6740    1.1580 ha        1 VYF      0.139000
     56 H24         8.3390   -1.7250   -0.8950 ha        1 VYF      0.139000
     57 H25         5.9370   -1.4320   -1.4440 ha        1 VYF      0.154000
     58 H26        -4.8500    0.7580   -1.1210 hn        1 VYF      0.304500
     59 H27        -5.2630   -1.0580    1.2010 h1        1 VYF      0.095700
     60 H28        -6.9870    1.4140    0.4230 hc        1 VYF      0.043700
     61 H29        -7.3240    0.2150    1.7350 hc        1 VYF      0.043700
     62 H30        -7.5080   -1.5420    0.2660 hc        1 VYF      0.043700
     63 H31        -7.1950   -0.4910   -1.1730 hc        1 VYF      0.043700
     64 H32        -5.2910   -1.9730   -1.8520 hc        1 VYF      0.044200
     65 H33        -6.1790   -3.6400    0.5980 hc        1 VYF      0.037117
     66 H34        -5.1230   -4.2500   -0.7420 hc        1 VYF      0.037117
     67 H35        -4.5570   -2.8790    0.2990 hc        1 VYF      0.037117
     68 H36        -7.6140   -2.3250   -2.7050 hc        1 VYF      0.037117
     69 H37        -6.7030   -3.8850   -2.5620 hc        1 VYF      0.037117
     70 H38        -7.9570   -3.4530   -1.3290 hc        1 VYF      0.037117
     71 H39        -4.8740    2.0980    1.5590 hc        1 VYF      0.044200
     72 H40        -7.3570    2.0990    3.4060 hc        1 VYF      0.037117
     73 H41        -5.9540    3.2420    3.4760 hc        1 VYF      0.037117
     74 H42        -7.0490    3.2400    2.0310 hc        1 VYF      0.037117
     75 H43        -5.7490    0.0360    3.6920 hc        1 VYF      0.037117
     76 H44        -4.2180    0.0480    2.7160 hc        1 VYF      0.037117
     77 H45        -4.5150    1.3350    3.9570 hc        1 VYF      0.037117
@<TRIPOS>BOND
     1    1    2 1   
     2    1    6 1   
     3    1   23 1   
     4    1   35 1   
     5    2    3 1   
     6    2   36 1   
     7    2   37 1   
     8    3    4 1   
     9    3   38 1   
    10    4    5 1   
    11    4   39 1   
    12    4   40 1   
    13    5    6 1   
    14    5    7 1   
    15    5   41 1   
    16    6   42 1   
    17    6   43 1   
    18    7    8 1   
    19    7   12 1   
    20    8    9 1   
    21    8   44 1   
    22    8   45 1   
    23    9   10 1   
    24    9   13 2   
    25   10   11 1   
    26   10   16 1   
    27   11   12 1   
    28   11   46 1   
    29   11   47 1   
    30   12   14 1   
    31   12   15 1   
    32   14   48 1   
    33   14   49 1   
    34   14   50 1   
    35   15   51 1   
    36   15   52 1   
    37   15   53 1   
    38   16   17 ar  
    39   16   21 ar  
    40   17   18 ar  
    41   17   22 1   
    42   18   19 ar  
    43   18   54 1   
    44   19   20 ar  
    45   19   55 1   
    46   20   21 ar  
    47   20   56 1   
    48   21   57 1   
    49   23   24 2   
    50   23   25 1   
    51   25   26 1   
    52   25   58 1   
    53   26   27 1   
    54   26   28 1   
    55   26   59 1   
    56   27   32 1   
    57   27   60 1   
    58   27   61 1   
    59   28   29 1   
    60   28   62 1   
    61   28   63 1   
    62   29   30 1   
    63   29   31 1   
    64   29   64 1   
    65   30   65 1   
    66   30   66 1   
    67   30   67 1   
    68   31   68 1   
    69   31   69 1   
    70   31   70 1   
    71   32   33 1   
    72   32   34 1   
    73   32   71 1   
    74   33   72 1   
    75   33   73 1   
    76   33   74 1   
    77   34   75 1   
    78   34   76 1   
    79   34   77 1   
@<TRIPOS>SUBSTRUCTURE
     1 VYF         1 TEMP              0 ****  ****    0 ROOT
