@<TRIPOS>MOLECULE
VYI
   47    50     1     0     0
SMALL
bcc


@<TRIPOS>ATOM
      1 C1          0.1610   -0.3070    0.0520 ca        1 VYI     -0.105000
      2 C2          1.5500   -0.3720    0.1590 ca        1 VYI     -0.143000
      3 C3         -4.2520    1.3500    2.9260 ca        1 VYI     -0.087000
      4 C4         -0.6330   -0.1550    1.1830 ca        1 VYI     -0.156000
      5 C5         -2.8720    1.1930    2.8510 ca        1 VYI     -0.168000
      6 C6         -5.0000    0.5840    3.8080 ca        1 VYI     -0.162000
      7 C7          2.1520   -0.2970    1.4090 ca        1 VYI     -0.130000
      8 C8         -0.8560   -6.7070    7.0370 ca        1 VYI     -0.194500
      9 C9          0.7600   -5.5520    5.6140 ca        1 VYI     -0.194500
     10 C10        -1.8810   -6.0180    6.4030 ca        1 VYI      0.006000
     11 C11        -0.2880   -4.8790    5.0000 ca        1 VYI      0.006000
     12 C12        -2.9770   -0.6310    4.4840 ca        1 VYI     -0.194300
     13 C13        -2.2150    0.2200    3.6330 ca        1 VYI      0.170600
     14 C14        -0.0580   -0.0500    2.4660 ca        1 VYI      0.128600
     15 C15        -4.3540   -0.3880    4.5930 ca        1 VYI      0.147100
     16 C16         0.4770   -6.4710    6.6430 ca        1 VYI      0.189900
     17 C17         1.3670   -0.1430    2.5620 ca        1 VYI      0.058900
     18 C18        -1.6180   -5.0930    5.3860 ca        1 VYI     -0.393500
     19 C19        -2.2740   -1.7400    5.2230 c3        1 VYI      0.287100
     20 C20        -3.9850   -2.8430    6.5750 c3        1 VYI      0.186800
     21 C21        -4.6990   -1.4920    6.6780 c3        1 VYI      0.120400
     22 N22        -3.0410   -2.9240    5.4950 n3        1 VYI     -0.803500
     23 N23        -0.8050    0.1840    3.6300 nh        1 VYI     -0.629000
     24 O24        -2.4460   -3.9680    3.3000 o         1 VYI     -0.644300
     25 O25        -4.0450   -5.0770    4.7220 o         1 VYI     -0.644300
     26 O26        -5.2250   -1.0850    5.4180 os        1 VYI     -0.322900
     27 F28         1.9770   -0.0960    3.7750 f         1 VYI     -0.149900
     28 S29        -2.8830   -4.2870    4.6000 sy        1 VYI      1.511200
     29 H1         -0.3180   -0.3840   -0.9360 ha        1 VYI      0.139000
     30 H2          2.1700   -0.4890   -0.7410 ha        1 VYI      0.139000
     31 H4         -1.7300   -0.1320    1.0710 ha        1 VYI      0.153000
     32 H7          3.2450   -0.3580    1.5140 ha        1 VYI      0.147000
     33 H3         -4.7500    2.1040    2.2970 ha        1 VYI      0.140000
     34 H5         -2.2880    1.8470    2.1840 ha        1 VYI      0.149000
     35 H6         -6.0880    0.7150    3.9040 ha        1 VYI      0.153000
     36 H8         -1.0690   -7.4350    7.8320 ha        1 VYI      0.158500
     37 H10        -2.9290   -6.2160    6.6930 ha        1 VYI      0.158000
     38 H9          1.8010   -5.3810    5.3040 ha        1 VYI      0.158500
     39 H11        -0.0730   -4.1750    4.1750 ha        1 VYI      0.158000
     40 H191       -1.3840   -2.0850    4.6130 h1        1 VYI      0.053200
     41 H192       -1.8830   -1.3190    6.1980 h1        1 VYI      0.053200
     42 H23        -0.3890   -0.1800    4.4620 hn        1 VYI      0.423800
     43 H201       -4.7630   -3.6510    6.4350 h1        1 VYI      0.062200
     44 H202       -3.4580   -3.0230    7.5580 h1        1 VYI      0.062200
     45 H211       -5.6130   -1.6000    7.3230 h1        1 VYI      0.064200
     46 H212       -4.0210   -0.7070    7.0990 h1        1 VYI      0.064200
     47 F27         1.4860   -7.1300    7.2530 f         1 VYI     -0.128900
@<TRIPOS>BOND
     1    1    2 ar  
     2    1    4 ar  
     3    1   29 1   
     4    2    7 ar  
     5    2   30 1   
     6    3    5 ar  
     7    3    6 ar  
     8    3   33 1   
     9    4   14 ar  
    10    4   31 1   
    11    5   13 ar  
    12    5   34 1   
    13    6   15 ar  
    14    6   35 1   
    15    7   17 ar  
    16    7   32 1   
    17    8   10 ar  
    18    8   16 ar  
    19    8   36 1   
    20    9   11 ar  
    21    9   16 ar  
    22    9   38 1   
    23   10   18 ar  
    24   10   37 1   
    25   11   18 ar  
    26   11   39 1   
    27   12   13 ar  
    28   12   15 ar  
    29   12   19 1   
    30   13   23 1   
    31   14   17 ar  
    32   14   23 1   
    33   15   26 1   
    34   16   47 1   
    35   17   27 1   
    36   18   28 1   
    37   19   22 1   
    38   19   40 1   
    39   19   41 1   
    40   20   21 1   
    41   20   22 1   
    42   20   43 1   
    43   20   44 1   
    44   21   26 1   
    45   21   45 1   
    46   21   46 1   
    47   22   28 1   
    48   23   42 1   
    49   24   28 2   
    50   25   28 2   
@<TRIPOS>SUBSTRUCTURE
     1 VYI         1 TEMP              0 ****  ****    0 ROOT
