@<TRIPOS>MOLECULE
VYI
   47    61     1     0     0
SMALL
bcc


@<TRIPOS>ATOM
      1 C1          0.0000    0.0000    0.0000 c3        1 VYI      0.542000
      2 C2          1.3820    0.0000    0.0000 c3        1 VYI     -0.125000
      3 C3         -4.0850    1.1560    2.7880 c3        1 VYI      0.175000
      4 C4         -0.6930   -0.0000    1.1950 c3        1 VYI     -0.211000
      5 C5         -2.7090    1.0440    2.7820 c2        1 VYI     -0.124000
      6 C6         -4.8420    0.3460    3.6070 c2        1 VYI     -0.118000
      7 C7          2.0770    0.0000    1.1960 c2        1 VYI     -0.174000
      8 C8         -1.0190   -6.9090    7.0770 c3        1 VYI     -0.206000
      9 C9          0.6580   -5.8800    5.7070 c3        1 VYI     -0.127000
     10 C10        -1.9840   -6.1100    6.4940 c2        1 VYI      0.200000
     11 C11        -0.3090   -5.0820    5.1260 c3        1 VYI     -0.159000
     12 C12        -2.8550   -0.6930    4.4500 c2        1 VYI     -0.261000
     13 C13        -2.0910    0.1200    3.6130 c2        1 VYI     -0.024000
     14 C14        -0.0010    0.0010    2.3980 c2        1 VYI     -0.087000
     15 C15        -4.2290   -0.5970    4.4370 c2        1 VYI      0.087000
     16 C16         0.3030   -6.7960    6.6840 c3        1 VYI      0.115000
     17 C17         1.3900   -0.0000    2.3960 c3        1 VYI      0.055000
     18 C18        -1.6290   -5.1960    5.5200 c2        1 VYI     -0.773000
     19 C19        -2.1360   -1.6330    5.3800 c3        1 VYI      0.012000
     20 C20        -3.8950   -2.7110    6.8160 DU        1 VYI     -0.379000
     21 C21        -4.8420   -1.5230    6.5720 c3        1 VYI     -0.380000
     22 N22        -2.9660   -2.7970    5.6860 nx        1 VYI     -0.639000
     23 N23        -0.6990    0.0020    3.6100 n7        1 VYI      0.132000
     24 O24        -2.3480   -3.7860    3.5110 o         1 VYI     -0.786000
     25 O25        -4.0970   -4.8590    4.9390 o         1 VYI     -0.786000
     26 O26        -5.0490   -1.4010    5.1640 os        1 VYI     -0.102000
     27 F28         2.0690   -0.0010    3.5640 f         1 VYI     -0.073000
     28 S29        -2.8610   -4.1770    4.7780 s6        1 VYI      2.423000
     29 H1          0.0310   -0.8690    0.6460 DU        1 VYI      0.137000
     30 H2          0.4090   -0.0000   -0.4760 DU        1 VYI      0.162000
     31 H4          0.1460   -0.0000    0.5100 hc        1 VYI     -0.548000
     32 H7          0.9940    0.0000    1.1950 DU        1 VYI      0.206000
     33 H3         -3.0390    0.9900    2.5580 hc        1 VYI     -0.068000
     34 H5         -3.6510    1.4660    2.4570 DU        1 VYI      0.081000
     35 H6         -3.9660    0.7750    3.1350 ha        1 VYI      0.052000
     36 H8         -1.5790   -6.0710    6.6810 hc        1 VYI     -0.031000
     37 H10        -1.6380   -6.8770    7.1760 DU        1 VYI      0.116000
     38 H9         -0.3760   -5.9700    6.0150 DU        1 VYI      0.328000
     39 H11         0.7050   -5.4390    5.2630 DU        1 VYI      0.201000
     40 H191       -1.5020   -2.4560    5.0720 hx        1 VYI      0.100500
     41 H192       -1.9020   -1.1120    6.3000 hx        1 VYI      0.100500
     42 H23        -0.9140   -0.8150    4.1480 hn        1 VYI      0.090000
     43 H201       -3.1140   -2.1470    6.3220 DU        1 VYI      0.440000
     44 H202       -4.4700   -3.6270    6.8840 hx        1 VYI      0.197000
     45 H211       -4.0880   -2.0390    7.1550 DU        1 VYI      0.237000
     46 H212       -4.4240   -0.6010    6.9560 h1        1 VYI      0.050000
     47 F27         1.2470   -7.5760    7.2530 f         1 VYI     -0.055000
@<TRIPOS>BOND
     1    1    2 1   
     2    1    4 1   
     3    1   29 1   
     4    1   30 1   
     5    2    7 1   
     6    2   30 1   
     7    2   32 1   
     8    3    5 1   
     9    3    6 1   
    10    3   33 1   
    11    3   34 1   
    12    4   14 1   
    13    4   29 1   
    14    4   31 1   
    15    5   13 1   
    16    5   34 1   
    17    6   15 1   
    18    6   35 1   
    19    7   17 1   
    20    7   32 1   
    21    8   10 1   
    22    8   16 1   
    23    8   36 1   
    24    8   37 1   
    25    9   11 1   
    26    9   16 1   
    27    9   38 1   
    28    9   39 1   
    29   10   18 1   
    30   10   37 1   
    31   11   18 1   
    32   11   38 1   
    33   11   39 1   
    34   12   13 1   
    35   12   15 1   
    36   12   19 1   
    37   13   23 1   
    38   14   17 1   
    39   14   23 1   
    40   15   26 1   
    41   16   38 1   
    42   16   47 1   
    43   17   27 1   
    44   17   32 1   
    45   18   28 1   
    46   19   22 1   
    47   19   40 1   
    48   19   41 1   
    49   20   21 1   
    50   20   22 1   
    51   20   43 1   
    52   20   44 1   
    53   20   45 1   
    54   21   26 1   
    55   21   45 1   
    56   21   46 1   
    57   22   28 1   
    58   22   43 1   
    59   23   42 1   
    60   24   28 1   
    61   25   28 1   
@<TRIPOS>SUBSTRUCTURE
     1 VYI         1 TEMP              0 ****  ****    0 ROOT
