@<TRIPOS>MOLECULE
VYR
   75    79     1     0     0
SMALL
bcc


@<TRIPOS>ATOM
      1 C34        -6.1730    0.3150   -0.9290 cc        1 VYR     -0.108000
      2 C35        -6.9330   -0.6450   -1.6490 cc        1 VYR     -0.156000
      3 C36        -6.2130   -1.8160   -1.8430 cd        1 VYR     -0.041700
      4 CL         -6.7840   -3.1660   -2.6460 cl        1 VYR     -0.024400
      5 S37        -4.6810   -1.7270   -1.1750 ss        1 VYR      0.138200
      6 C33        -4.9080   -0.1660   -0.6040 cd        1 VYR     -0.198600
      7 C31        -3.9150    0.5520    0.1150 cd        1 VYR      0.360200
      8 C32        -2.6860    0.2400    0.6710 cc        1 VYR     -0.358600
      9 O30        -4.1620    1.9310    0.3740 os        1 VYR     -0.109100
     10 N29        -3.1570    2.4480    1.0410 nd        1 VYR     -0.363300
     11 C28        -2.2240    1.4940    1.2610 cc        1 VYR      0.303600
     12 C27        -0.9580    1.6880    2.0040 c3        1 VYR     -0.127700
     13 C17         0.2600    1.7000    1.0520 c3        1 VYR      0.185500
     14 C18         1.3560    2.5710    1.7250 c         1 VYR      0.639100
     15 O43         2.2780    2.0240    2.3650 o         1 VYR     -0.610100
     16 N19         1.2590    3.9550    1.6830 n         1 VYR     -0.449800
     17 C20         2.4120    4.7560    2.0560 c3        1 VYR      0.079500
     18 C21         3.1020    5.4270    0.8680 c3        1 VYR     -0.119900
     19 C22         2.0980    6.1970    0.0150 c3        1 VYR      0.141100
     20 O25         2.8190    6.6190   -1.1450 os        1 VYR     -0.418600
     21 C26         2.1760    7.6540   -1.8680 c3        1 VYR      0.115700
     22 C23         0.9140    5.3160   -0.3740 c3        1 VYR     -0.119900
     23 C24         0.3020    4.6710    0.8690 c3        1 VYR      0.079500
     24 N16         0.7620    0.3880    0.7510 n3        1 VYR     -0.911100
     25 S15         0.6520   -0.3450   -0.6940 sy        1 VYR      1.520200
     26 O40        -0.2920   -1.3870   -0.6330 o         1 VYR     -0.660300
     27 O41         0.4110    0.6200   -1.6980 o         1 VYR     -0.660300
     28 C9          2.2170   -0.9710   -0.8790 ca        1 VYR     -0.375500
     29 C8          2.7200   -2.1140   -0.2330 ca        1 VYR      0.071700
     30 C13         1.8600   -2.9160    0.6890 c3        1 VYR     -0.053100
     31 C14         1.2430   -4.0980   -0.0250 c3        1 VYR     -0.096100
     32 C10         3.0420   -0.2700   -1.7740 ca        1 VYR     -0.025000
     33 C11         4.3410   -0.6790   -2.0340 ca        1 VYR     -0.152000
     34 C12         4.8540   -1.8000   -1.3870 ca        1 VYR     -0.056000
     35 C7          4.0580   -2.5210   -0.4770 ca        1 VYR      0.012600
     36 N3          4.6130   -3.6500    0.1960 n         1 VYR     -0.397000
     37 C2          5.3820   -3.3590    1.3880 c3        1 VYR      0.065000
     38 C1          5.7820   -4.6170    2.1670 c3        1 VYR      0.111400
     39 O6          6.3540   -5.5870    1.2980 os        1 VYR     -0.400600
     40 C5          5.4500   -6.0100    0.2910 c3        1 VYR      0.058400
     41 C4          4.7510   -4.8770   -0.4510 c         1 VYR      0.671500
     42 O39         4.2560   -5.0850   -1.5730 o         1 VYR     -0.613500
     43 H34        -6.5390    1.3110   -0.6640 ha        1 VYR      0.171000
     44 H35        -7.9520   -0.4700   -1.9990 ha        1 VYR      0.168000
     45 H32        -2.1510   -0.7090    0.6640 ha        1 VYR      0.201000
     46 H271       -0.9870    2.6590    2.5700 hc        1 VYR      0.080700
     47 H272       -0.8540    0.8660    2.7620 hc        1 VYR      0.080700
     48 H17        -0.0390    2.1760    0.0660 h1        1 VYR      0.100700
     49 H16         1.2770   -0.0040    1.5080 hn        1 VYR      0.459800
     50 H201        2.0480    5.5520    2.7670 h1        1 VYR      0.065200
     51 H202        3.1590    4.1120    2.6000 h1        1 VYR      0.065200
     52 H241       -0.5530    4.0060    0.5680 h1        1 VYR      0.065200
     53 H242       -0.1290    5.4890    1.5200 h1        1 VYR      0.065200
     54 H211        3.8830    6.1310    1.2530 hc        1 VYR      0.064450
     55 H212        3.6180    4.6640    0.2300 hc        1 VYR      0.064450
     56 H22         1.7260    7.0980    0.5800 h1        1 VYR      0.037700
     57 H231        0.1270    5.9310   -0.8810 hc        1 VYR      0.064450
     58 H232        1.2550    4.5340   -1.1010 hc        1 VYR      0.064450
     59 H261        2.8860    7.8910   -2.7000 h1        1 VYR      0.034367
     60 H262        1.1980    7.3020   -2.2790 h1        1 VYR      0.034367
     61 H263        2.0170    8.5520   -1.2210 h1        1 VYR      0.034367
     62 H10         2.6400    0.6210   -2.2950 ha        1 VYR      0.167000
     63 H131        2.4660   -3.2730    1.5650 hc        1 VYR      0.049200
     64 H132        1.0340   -2.2870    1.1170 hc        1 VYR      0.049200
     65 H141        2.0210   -4.6860   -0.5730 hc        1 VYR      0.052700
     66 H142        0.7420   -4.7650    0.7170 hc        1 VYR      0.052700
     67 H143        0.4760   -3.7440   -0.7590 hc        1 VYR      0.052700
     68 H11         4.9650   -0.1240   -2.7500 ha        1 VYR      0.148000
     69 H12         5.8870   -2.1240   -1.5970 ha        1 VYR      0.146000
     70 H21C        6.3170   -2.7940    1.1020 h1        1 VYR      0.055200
     71 H22C        4.7660   -2.6960    2.0590 h1        1 VYR      0.055200
     72 H11C        6.5990   -4.3750    2.8960 h1        1 VYR      0.064700
     73 H12C        4.9000   -5.0560    2.7040 h1        1 VYR      0.064700
     74 H51C        6.0820   -6.5920   -0.4330 h1        1 VYR      0.085700
     75 H52C        4.6580   -6.6700    0.7380 h1        1 VYR      0.085700
@<TRIPOS>BOND
     1    1    2 1   
     2    1    6 2   
     3    1   43 1   
     4    2    3 2   
     5    2   44 1   
     6    3    4 1   
     7    3    5 1   
     8    5    6 1   
     9    6    7 1   
    10    7    8 2   
    11    7    9 1   
    12    8   11 1   
    13    8   45 1   
    14    9   10 1   
    15   10   11 2   
    16   11   12 1   
    17   12   13 1   
    18   12   46 1   
    19   12   47 1   
    20   13   14 1   
    21   13   24 1   
    22   13   48 1   
    23   14   15 2   
    24   14   16 1   
    25   16   17 1   
    26   16   23 1   
    27   17   18 1   
    28   17   50 1   
    29   17   51 1   
    30   18   19 1   
    31   18   54 1   
    32   18   55 1   
    33   19   20 1   
    34   19   22 1   
    35   19   56 1   
    36   20   21 1   
    37   21   59 1   
    38   21   60 1   
    39   21   61 1   
    40   22   23 1   
    41   22   57 1   
    42   22   58 1   
    43   23   52 1   
    44   23   53 1   
    45   24   25 1   
    46   24   49 1   
    47   25   26 2   
    48   25   27 2   
    49   25   28 1   
    50   28   29 ar  
    51   28   32 ar  
    52   29   30 1   
    53   29   35 ar  
    54   30   31 1   
    55   30   63 1   
    56   30   64 1   
    57   31   65 1   
    58   31   66 1   
    59   31   67 1   
    60   32   33 ar  
    61   32   62 1   
    62   33   34 ar  
    63   33   68 1   
    64   34   35 ar  
    65   34   69 1   
    66   35   36 1   
    67   36   37 1   
    68   36   41 1   
    69   37   38 1   
    70   37   70 1   
    71   37   71 1   
    72   38   39 1   
    73   38   72 1   
    74   38   73 1   
    75   39   40 1   
    76   40   41 1   
    77   40   74 1   
    78   40   75 1   
    79   41   42 2   
@<TRIPOS>SUBSTRUCTURE
     1 VYR         1 TEMP              0 ****  ****    0 ROOT
