@<TRIPOS>MOLECULE
VYR
   76    80     1     0     0
SMALL
bcc


@<TRIPOS>ATOM
      1 C34        -0.1330    1.2100    0.4130 cc        1 VYR     -0.075000
      2 C35         1.1400    0.7930   -0.0500 cc        1 VYR     -0.157000
      3 C36         1.4420   -0.4930    0.3810 cd        1 VYR     -0.009700
      4 Cl          2.8510   -1.3130    0.0310 cl        1 VYR      0.008600
      5 S37         0.2100   -1.1450    1.3090 ss        1 VYR      0.117200
      6 C33        -0.7540    0.2250    1.1800 cd        1 VYR     -0.241600
      7 C31        -2.0320    0.3420    1.7820 cd        1 VYR      0.413200
      8 C32        -2.8340   -0.4790    2.5670 cc        1 VYR     -0.374600
      9 O30        -2.7360    1.5630    1.5860 os        1 VYR     -0.077100
     10 N29        -3.8930    1.5130    2.2000 nd        1 VYR     -0.437300
     11 C28        -4.0270    0.3150    2.8150 cc        1 VYR      0.298600
     12 C27        -5.1920   -0.1300    3.6090 c3        1 VYR     -0.125700
     13 C17        -6.4160    0.7810    3.4350 c3        1 VYR      0.063500
     14 C18        -7.6150    0.1490    4.1960 c         1 VYR      0.636100
     15 O43        -7.9730    0.6880    5.2680 o         1 VYR     -0.617100
     16 N19        -8.1860   -1.0100    3.7320 n         1 VYR     -0.421800
     17 C20        -9.3650   -1.5390    4.4110 c3        1 VYR      0.073500
     18 C21       -10.6560   -1.3640    3.6170 c3        1 VYR     -0.119900
     19 C22       -10.5070   -1.9090    2.1990 c3        1 VYR      0.140100
     20 O25       -11.6810   -1.4980    1.4980 os        1 VYR     -0.416600
     21 C26       -12.0120   -2.3370    0.4020 c3        1 VYR      0.111700
     22 C23        -9.2710   -1.3340    1.5110 c3        1 VYR     -0.119900
     23 C24        -8.0270   -1.5110    2.3790 c3        1 VYR      0.073500
     24 N16        -6.1690    2.1730    3.9090 ny        1 VYR     -0.688900
     25 S15        -6.2250    3.5640    2.5680 sy        1 VYR      1.485200
     26 O40        -5.0300    4.2060    2.7960 o         1 VYR     -0.562300
     27 O41        -6.4780    2.8700    1.4000 o         1 VYR     -0.562300
     28 C9         -7.5490    4.3040    3.1500 ca        1 VYR     -0.515500
     29 C8         -7.5820    5.2100    4.2370 ca        1 VYR      0.105700
     30 C13        -6.3490    5.4930    5.0320 c3        1 VYR     -0.064100
     31 C14        -5.6180    6.7170    4.5240 c3        1 VYR     -0.101100
     32 C10        -8.7500    4.0600    2.4380 ca        1 VYR     -0.018000
     33 C11        -9.9330    4.6880    2.7710 ca        1 VYR     -0.140000
     34 C12        -9.9630    5.5910    3.8340 ca        1 VYR     -0.013000
     35 C7         -8.7970    5.8590    4.5780 ca        1 VYR      0.023600
     36 N3         -8.8510    6.7850    5.6600 n         1 VYR     -0.407000
     37 C2         -9.4930    6.3060    6.8700 c3        1 VYR      0.057000
     38 C1         -9.4530    7.3280    8.0130 c3        1 VYR      0.112400
     39 O6         -9.8830    8.6040    7.5580 os        1 VYR     -0.387600
     40 C5         -9.0390    9.1280    6.5480 c3        1 VYR      0.062400
     41 C4         -8.7850    8.1630    5.3970 c         1 VYR      0.669500
     42 O39        -8.4500    8.5800    4.2760 o         1 VYR     -0.601500
     43 H34        -0.5720    2.1880    0.1930 ha        1 VYR      0.176000
     44 H35         1.7940    1.4150   -0.6680 ha        1 VYR      0.182000
     45 H32        -2.6390   -1.4840    2.9270 ha        1 VYR      0.188000
     46 H271       -4.9020   -0.1920    4.6950 hc        1 VYR      0.100700
     47 H272       -5.4720   -1.1690    3.2800 hc        1 VYR      0.100700
     48 H17        -6.6710    0.8580    2.3320 hx        1 VYR      0.136700
     49 H16        -5.2520    2.2100    4.3560 hn        1 VYR      0.457300
     50 H201       -9.1720   -2.6380    4.5770 h1        1 VYR      0.072450
     51 H202       -9.4760   -1.0420    5.4170 h1        1 VYR      0.072450
     52 H241       -7.8000   -2.6140    2.4710 h1        1 VYR      0.072450
     53 H242       -7.1510   -1.0280    1.8670 h1        1 VYR      0.072450
     54 H211      -11.4780   -1.9130    4.1440 hc        1 VYR      0.070700
     55 H212      -10.9500   -0.2830    3.5700 hc        1 VYR      0.070700
     56 H22       -10.4380   -3.0320    2.2250 h1        1 VYR      0.050700
     57 H231       -9.4460   -0.2510    1.2850 hc        1 VYR      0.070700
     58 H232       -9.1000   -1.8590    0.5360 hc        1 VYR      0.070700
     59 H261      -11.1940   -2.3330   -0.3590 h1        1 VYR      0.041700
     60 H262      -12.2100   -3.3810    0.7490 h1        1 VYR      0.041700
     61 H263      -12.9440   -1.8800   -0.0190 h1        1 VYR      0.041700
     62 H10        -8.7370    3.3610    1.5780 ha        1 VYR      0.170000
     63 H131       -5.6490    4.6140    5.0080 hc        1 VYR      0.053200
     64 H132       -6.6190    5.6430    6.1140 hc        1 VYR      0.053200
     65 H141       -5.1420    6.5090    3.5340 hc        1 VYR      0.063700
     66 H142       -6.3180    7.5820    4.4110 hc        1 VYR      0.063700
     67 H143       -4.8140    6.9960    5.2470 hc        1 VYR      0.063700
     68 H11       -10.8520    4.4890    2.1930 ha        1 VYR      0.172000
     69 H12       -10.9110    6.1020    4.0840 ha        1 VYR      0.170000
     70 H21C       -8.9670    5.3670    7.2030 h1        1 VYR      0.053700
     71 H22C      -10.5690    6.0460    6.6510 h1        1 VYR      0.053700
     72 H11C       -8.4240    7.4000    8.4530 h1        1 VYR      0.073700
     73 H12C      -10.1960    7.0460    8.8060 h1        1 VYR      0.073700
     74 H51C       -8.0450    9.4230    6.9800 h1        1 VYR      0.097700
     75 H52C       -9.5830   10.0330    6.1600 h1        1 VYR      0.097700
     76 H162       -6.8560    2.3860    4.6440 hn        1 VYR      0.457300
@<TRIPOS>BOND
     1    1    2 1   
     2    1    6 2   
     3    1   43 1   
     4    2    3 2   
     5    2   44 1   
     6    3    4 1   
     7    3    5 1   
     8    5    6 1   
     9    6    7 1   
    10    7    8 2   
    11    7    9 1   
    12    8   11 1   
    13    8   45 1   
    14    9   10 1   
    15   10   11 2   
    16   11   12 1   
    17   12   13 1   
    18   12   46 1   
    19   12   47 1   
    20   13   14 1   
    21   13   24 1   
    22   13   48 1   
    23   14   15 2   
    24   14   16 1   
    25   16   17 1   
    26   16   23 1   
    27   17   18 1   
    28   17   50 1   
    29   17   51 1   
    30   18   19 1   
    31   18   54 1   
    32   18   55 1   
    33   19   20 1   
    34   19   22 1   
    35   19   56 1   
    36   20   21 1   
    37   21   59 1   
    38   21   60 1   
    39   21   61 1   
    40   22   23 1   
    41   22   57 1   
    42   22   58 1   
    43   23   52 1   
    44   23   53 1   
    45   24   25 1   
    46   24   49 1   
    47   24   76 1   
    48   25   26 2   
    49   25   27 2   
    50   25   28 1   
    51   28   29 ar  
    52   28   32 ar  
    53   29   30 1   
    54   29   35 ar  
    55   30   31 1   
    56   30   63 1   
    57   30   64 1   
    58   31   65 1   
    59   31   66 1   
    60   31   67 1   
    61   32   33 ar  
    62   32   62 1   
    63   33   34 ar  
    64   33   68 1   
    65   34   35 ar  
    66   34   69 1   
    67   35   36 1   
    68   36   37 1   
    69   36   41 1   
    70   37   38 1   
    71   37   70 1   
    72   37   71 1   
    73   38   39 1   
    74   38   72 1   
    75   38   73 1   
    76   39   40 1   
    77   40   41 1   
    78   40   74 1   
    79   40   75 1   
    80   41   42 2   
@<TRIPOS>SUBSTRUCTURE
     1 VYR         1 TEMP              0 ****  ****    0 ROOT
