@<TRIPOS>MOLECULE
VYR
   75    70     1     0     0
SMALL
bcc


@<TRIPOS>ATOM
      1 C34        -0.9410   -4.6590   -7.1040 c1        1 VYR     -0.125500
      2 C35        -0.4630   -5.6480   -8.2600 c1        1 VYR     -0.125500
      3 C36         0.8160   -6.2250   -7.8680 c1        1 VYR     -0.363000
      4 CL          1.7480   -7.4270   -8.7890 cl        1 VYR      0.058000
      5 S37         1.2000   -5.6400   -6.4740 ss        1 VYR      0.623000
      6 C33         0.0680   -4.6690   -6.0450 c1        1 VYR     -0.363000
      7 C31        -0.0320   -3.9130   -4.6590 c1        1 VYR      0.056000
      8 C32         1.0250   -3.3310   -3.9670 c1        1 VYR     -0.235000
      9 O30        -1.1690   -3.6480   -3.9800 os        1 VYR     -0.039000
     10 N29        -0.8350   -2.8920   -2.8480 n2        1 VYR     -0.012000
     11 C28         0.5060   -2.7040   -2.8480 c1        1 VYR     -0.110000
     12 C27         1.3330   -2.0830   -1.6940 c2        1 VYR     -0.110000
     13 C17         0.4310   -1.3480   -0.7810 c3        1 VYR      0.045000
     14 C18         0.8430   -1.6170    0.6610 c2        1 VYR      0.277000
     15 O43         1.8800   -1.1390    1.0990 o         1 VYR     -0.378000
     16 N19        -0.0600   -2.3420    1.5590 n         1 VYR     -0.314000
     17 C20         0.2210   -2.5290    3.0000 c3        1 VYR     -0.032500
     18 C21         0.1190   -3.9900    3.4250 c3        1 VYR     -0.196000
     19 C22        -1.1630   -4.6140    2.9960 c3        1 VYR      0.029000
     20 O25        -1.1100   -6.0290    3.2740 os        1 VYR     -0.275000
     21 C26        -2.0980   -6.4690    4.1790 c3        1 VYR     -0.074000
     22 C23        -1.4260   -4.4160    1.5370 c3        1 VYR     -0.196000
     23 C24        -1.3050   -2.9360    1.1200 c3        1 VYR     -0.032500
     24 N16         0.5200    0.0770   -1.0580 n3        1 VYR     -0.868000
     25 S15        -0.1430    1.1740    0.0010 s4        1 VYR      2.072800
     26 O40        -1.4990    1.5480   -0.3990 o         1 VYR     -0.532400
     27 O41        -0.3880    0.5680    1.3010 o         1 VYR     -0.532400
     28 C9          0.9220    2.6250    0.1470 c1        1 VYR     -0.799000
     29 C8          0.3950    3.8380    0.6550 c2        1 VYR      0.071000
     30 C13        -1.0110    3.8510    1.3320 c3        1 VYR     -0.151000
     31 C14        -0.8810    3.3820    2.7810 c3        1 VYR     -0.218000
     32 C10         2.2410    2.5800   -0.3470 c1        1 VYR     -0.033000
     33 C11         3.0240    3.7230   -0.3360 c1        1 VYR     -0.111000
     34 C12         2.5020    4.9260    0.1670 c1        1 VYR     -0.111000
     35 C7          1.1670    4.9690    0.6670 c1        1 VYR      0.022000
     36 N3          0.5800    6.2580    1.1080 n         1 VYR     -0.299000
     37 C2          0.3590    7.3090    0.1610 c3        1 VYR     -0.050000
     38 C1         -0.6470    8.2860    0.5840 c3        1 VYR     -0.039000
     39 O6         -0.4000    8.8090    1.9150 os        1 VYR     -0.259000
     40 C5         -0.2620    7.8130    2.8830 c3        1 VYR     -0.042000
     41 C4          0.8190    6.7290    2.3990 c2        1 VYR      0.281000
     42 O39         1.3610    5.9910    3.2330 o         1 VYR     -0.344000
     43 H34        -1.8130   -4.1040   -7.1020 DU        1 VYR      0.175000
     44 H35        -0.9750   -5.8460   -9.1390 DU        1 VYR      0.175000
     45 H32         1.9550   -3.3600   -4.2210 DU        1 VYR      0.175000
     46 H271        2.0000   -1.4640   -2.0650 ha        1 VYR      0.115000
     47 H272        1.7830   -2.7840   -1.2060 ha        1 VYR      0.115000
     48 H17        -0.5060   -1.6540   -0.9210 h1        1 VYR      0.147000
     49 H16         0.9590    0.3830   -1.8490 hn        1 VYR      0.253000
     50 H201       -0.4380   -1.9880    3.5330 h1        1 VYR      0.103500
     51 H202        1.1380   -2.1990    3.1950 h1        1 VYR      0.103500
     52 H241       -1.3560   -2.8770    0.1650 h1        1 VYR      0.103500
     53 H242       -2.0420   -2.4400    1.5060 h1        1 VYR      0.103500
     54 H211        0.1880   -4.0430    4.3890 hc        1 VYR      0.101250
     55 H212        0.8750   -4.4950    3.0180 hc        1 VYR      0.101250
     56 H22        -1.9280   -4.2000    3.5280 h1        1 VYR      0.081000
     57 H231       -0.7800   -4.9480    1.0180 hc        1 VYR      0.101250
     58 H232       -2.3140   -4.7250    1.3390 hc        1 VYR      0.101250
     59 H261       -3.0000   -6.2390    3.8230 h1        1 VYR      0.073333
     60 H262       -2.0280   -7.4410    4.2910 h1        1 VYR      0.073333
     61 H263       -1.9610   -6.0100    5.0830 h1        1 VYR      0.073333
     62 H10         2.6140    1.7180   -0.7060 ha        1 VYR      0.159000
     63 H131       -1.5960    3.2650    0.8600 hc        1 VYR      0.099000
     64 H132       -1.3860    4.7870    1.3140 hc        1 VYR      0.099000
     65 H141       -1.5510    2.7060    2.9620 hc        1 VYR      0.090333
     66 H142       -0.0330    3.0220    2.9140 hc        1 VYR      0.090333
     67 H143       -1.0130    4.1470    3.3890 hc        1 VYR      0.090333
     68 H11         3.9470    3.6900   -0.6820 ha        1 VYR      0.142500
     69 H12         3.0470    5.7240    0.1750 ha        1 VYR      0.142500
     70 H21C        0.0580    6.8960   -0.7200 h1        1 VYR      0.094500
     71 H22C        1.1990    7.7760    0.0140 h1        1 VYR      0.094500
     72 H11C       -0.6530    9.0220   -0.0450 h1        1 VYR      0.103500
     73 H12C       -1.5160    7.8610    0.5750 h1        1 VYR      0.103500
     74 H51C       -0.0430    8.2610    3.7310 h1        1 VYR      0.123500
     75 H52C       -1.0810    7.3740    3.1080 h1        1 VYR      0.123500
@<TRIPOS>BOND
     1    1    2 1   
     2    1    6 1   
     3    2    3 1   
     4    3    5 1   
     5    5    6 1   
     6    7    8 1   
     7    7    9 1   
     8    8   11 1   
     9    9   10 1   
    10   10   11 1   
    11   12   13 1   
    12   12   46 1   
    13   12   47 1   
    14   13   14 1   
    15   13   24 1   
    16   13   48 1   
    17   14   15 1   
    18   14   16 1   
    19   16   17 1   
    20   16   23 1   
    21   17   18 1   
    22   17   50 1   
    23   17   51 1   
    24   18   19 1   
    25   18   54 1   
    26   18   55 1   
    27   19   20 1   
    28   19   22 1   
    29   19   56 1   
    30   20   21 1   
    31   21   59 1   
    32   21   60 1   
    33   21   61 1   
    34   22   23 1   
    35   22   57 1   
    36   22   58 1   
    37   23   52 1   
    38   23   53 1   
    39   24   25 1   
    40   24   49 1   
    41   25   26 1   
    42   25   27 1   
    43   28   29 1   
    44   28   32 1   
    45   29   30 1   
    46   29   35 1   
    47   30   31 1   
    48   30   63 1   
    49   30   64 1   
    50   31   65 1   
    51   31   66 1   
    52   31   67 1   
    53   32   62 1   
    54   33   34 1   
    55   33   68 1   
    56   34   69 1   
    57   35   36 1   
    58   36   37 1   
    59   36   41 1   
    60   37   38 1   
    61   37   70 1   
    62   37   71 1   
    63   38   39 1   
    64   38   72 1   
    65   38   73 1   
    66   39   40 1   
    67   40   41 1   
    68   40   74 1   
    69   40   75 1   
    70   41   42 1   
@<TRIPOS>SUBSTRUCTURE
     1 VYR         1 TEMP              0 ****  ****    0 ROOT
