@<TRIPOS>MOLECULE
VYR
   76    80     1     0     0
SMALL
bcc


@<TRIPOS>ATOM
      1 C34        -0.1150    1.1850    0.4680 cc        1 VYR     -0.075000
      2 C35         1.1600    0.7620    0.0140 cc        1 VYR     -0.157000
      3 C36         1.4500   -0.5290    0.4400 cd        1 VYR     -0.009700
      4 CL          2.8570   -1.3550    0.0990 cl        1 VYR      0.008600
      5 S37         0.2060   -1.1770    1.3540 ss        1 VYR      0.117200
      6 C33        -0.7490    0.1990    1.2240 cd        1 VYR     -0.241600
      7 C31        -2.0300    0.3210    1.8160 cd        1 VYR      0.413200
      8 C32        -2.8450   -0.4980    2.5890 cc        1 VYR     -0.374600
      9 O30        -2.7260    1.5480    1.6200 os        1 VYR     -0.077100
     10 N29        -3.8880    1.5020    2.2240 nd        1 VYR     -0.437300
     11 C28        -4.0350    0.3010    2.8310 cc        1 VYR      0.298600
     12 C27        -5.2100   -0.1400    3.6120 c3        1 VYR     -0.125700
     13 C17        -6.4260    0.7800    3.4330 c3        1 VYR      0.063500
     14 C18        -7.6360    0.1510    4.1790 c         1 VYR      0.636100
     15 O43        -8.0010    0.6860    5.2510 o         1 VYR     -0.617100
     16 N19        -8.2100   -1.0020    3.7030 n         1 VYR     -0.421800
     17 C20        -9.3980   -1.5280    4.3690 c3        1 VYR      0.073500
     18 C21       -10.6810   -1.3410    3.5650 c3        1 VYR     -0.119900
     19 C22       -10.5220   -1.8800    2.1450 c3        1 VYR      0.140100
     20 O25       -11.6870   -1.4600    1.4360 os        1 VYR     -0.416600
     21 C26       -12.0140   -2.2910    0.3330 c3        1 VYR      0.111700
     22 C23        -9.2770   -1.3090    1.4710 c3        1 VYR     -0.119900
     23 C24        -8.0410   -1.4970    2.3500 c3        1 VYR      0.073500
     24 N16        -6.1750    2.1670    3.9160 n4        1 VYR     -0.688900
     25 S15        -6.2100    3.5660    2.5820 sy        1 VYR      1.485200
     26 O40        -5.0130    4.1990    2.8250 o         1 VYR     -0.562300
     27 O41        -6.4570    2.8800    1.4080 o         1 VYR     -0.562300
     28 C9         -7.5350    4.3110    3.1570 ca        1 VYR     -0.515500
     29 C8         -7.5720    5.2110    4.2490 ca        1 VYR      0.105700
     30 C13        -6.3430    5.4820    5.0560 c3        1 VYR     -0.064100
     31 C14        -5.6000    6.7040    4.5620 c3        1 VYR     -0.101100
     32 C10        -8.7300    4.0790    2.4330 ca        1 VYR     -0.018000
     33 C11        -9.9120    4.7130    2.7580 ca        1 VYR     -0.140000
     34 C12        -9.9460    5.6100    3.8270 ca        1 VYR     -0.013000
     35 C7         -8.7850    5.8660    4.5820 ca        1 VYR      0.023600
     36 N3         -8.8430    6.7860    5.6690 n         1 VYR     -0.407000
     37 C2         -9.4980    6.3050    6.8710 c3        1 VYR      0.057000
     38 C1         -9.4620    7.3200    8.0200 c3        1 VYR      0.112400
     39 O6         -9.8790    8.6010    7.5690 os        1 VYR     -0.387600
     40 C5         -9.0240    9.1250    6.5690 c3        1 VYR      0.062400
     41 C4         -8.7650    8.1660    5.4150 c         1 VYR      0.669500
     42 O39        -8.4180    8.5870    4.3000 o         1 VYR     -0.601500
     43 H34        -0.5450    2.1670    0.2500 ha        1 VYR      0.176000
     44 H35         1.8230    1.3830   -0.5950 ha        1 VYR      0.182000
     45 H32        -2.6590   -1.5060    2.9450 ha        1 VYR      0.188000
     46 H271       -4.9300   -0.2100    4.7000 hc        1 VYR      0.100700
     47 H272       -5.4940   -1.1760    3.2750 hc        1 VYR      0.100700
     48 H17        -6.6710    0.8640    2.3270 hx        1 VYR      0.136700
     49 H16        -5.2620    2.1960    4.3710 hn        1 VYR      0.457300
     50 H201       -9.5150   -1.0350    5.3770 h1        1 VYR      0.072450
     51 H202       -9.2130   -2.6290    4.5320 h1        1 VYR      0.072450
     52 H241       -7.1590   -1.0160    1.8470 h1        1 VYR      0.072450
     53 H242       -7.8210   -2.6020    2.4380 h1        1 VYR      0.072450
     54 H211      -11.5110   -1.8890    4.0810 hc        1 VYR      0.070700
     55 H212      -10.9680   -0.2590    3.5200 hc        1 VYR      0.070700
     56 H22       -10.4600   -3.0040    2.1670 h1        1 VYR      0.050700
     57 H231       -9.4440   -0.2240    1.2490 hc        1 VYR      0.070700
     58 H232       -9.1000   -1.8300    0.4950 hc        1 VYR      0.070700
     59 H261      -12.2200   -3.3350    0.6720 h1        1 VYR      0.041700
     60 H262      -11.1890   -2.2880   -0.4210 h1        1 VYR      0.041700
     61 H263      -12.9380   -1.8270   -0.0940 h1        1 VYR      0.041700
     62 H10        -8.7140    3.3850    1.5690 ha        1 VYR      0.170000
     63 H131       -5.6490    4.5980    5.0340 hc        1 VYR      0.053200
     64 H132       -6.6230    5.6270    6.1360 hc        1 VYR      0.053200
     65 H141       -4.8010    6.9730    5.2940 hc        1 VYR      0.063700
     66 H142       -5.1160    6.4980    3.5750 hc        1 VYR      0.063700
     67 H143       -6.2930    7.5740    4.4480 hc        1 VYR      0.063700
     68 H11       -10.8270    4.5230    2.1710 ha        1 VYR      0.172000
     69 H12       -10.8930    6.1260    4.0710 ha        1 VYR      0.170000
     70 H21C       -8.9810    5.3610    7.2030 h1        1 VYR      0.053700
     71 H22C      -10.5740    6.0530    6.6410 h1        1 VYR      0.053700
     72 H11C      -10.2140    7.0380    8.8050 h1        1 VYR      0.073700
     73 H12C       -8.4370    7.3820    8.4700 h1        1 VYR      0.073700
     74 H51C       -8.0310    9.4110    7.0120 h1        1 VYR      0.097700
     75 H52C       -9.5580   10.0360    6.1820 h1        1 VYR      0.097700
     76 H162       -6.8670    2.3810    4.6460 hn        1 VYR      0.457300
@<TRIPOS>BOND
     1    1    2 1   
     2    1    6 2   
     3    1   43 1   
     4    2    3 2   
     5    2   44 1   
     6    3    4 1   
     7    3    5 1   
     8    5    6 1   
     9    6    7 1   
    10    7    8 2   
    11    7    9 1   
    12    8   11 1   
    13    8   45 1   
    14    9   10 1   
    15   10   11 2   
    16   11   12 1   
    17   12   13 1   
    18   12   46 1   
    19   12   47 1   
    20   13   14 1   
    21   13   24 1   
    22   13   48 1   
    23   14   15 2   
    24   14   16 1   
    25   16   17 1   
    26   16   23 1   
    27   17   18 1   
    28   17   50 1   
    29   17   51 1   
    30   18   19 1   
    31   18   54 1   
    32   18   55 1   
    33   19   20 1   
    34   19   22 1   
    35   19   56 1   
    36   20   21 1   
    37   21   59 1   
    38   21   60 1   
    39   21   61 1   
    40   22   23 1   
    41   22   57 1   
    42   22   58 1   
    43   23   52 1   
    44   23   53 1   
    45   24   25 1   
    46   24   49 1   
    47   24   76 1   
    48   25   26 2   
    49   25   27 2   
    50   25   28 1   
    51   28   29 ar  
    52   28   32 ar  
    53   29   30 1   
    54   29   35 ar  
    55   30   31 1   
    56   30   63 1   
    57   30   64 1   
    58   31   65 1   
    59   31   66 1   
    60   31   67 1   
    61   32   33 ar  
    62   32   62 1   
    63   33   34 ar  
    64   33   68 1   
    65   34   35 ar  
    66   34   69 1   
    67   35   36 1   
    68   36   37 1   
    69   36   41 1   
    70   37   38 1   
    71   37   70 1   
    72   37   71 1   
    73   38   39 1   
    74   38   72 1   
    75   38   73 1   
    76   39   40 1   
    77   40   41 1   
    78   40   74 1   
    79   40   75 1   
    80   41   42 2   
@<TRIPOS>SUBSTRUCTURE
     1 VYR         1 TEMP              0 ****  ****    0 ROOT
