@<TRIPOS>MOLECULE
VZ4
   53    56     1     0     0
SMALL
bcc


@<TRIPOS>ATOM
      1 CAA         3.2860   -3.0360   -0.8750 c3        1 VZ4     -0.099100
      2 CAB        -4.3490   -0.6130    1.6880 c3        1 VZ4     -0.084100
      3 NAC         4.8090    2.0100   -0.5570 n3        1 VZ4     -1.040700
      4 OAE         5.2440   -0.3670   -0.9940 o         1 VZ4     -0.640300
      5 OAF         6.2830    0.6940    0.9150 o         1 VZ4     -0.640300
      6 CAG         1.8620    1.1790    0.5790 ca        1 VZ4     -0.174000
      7 CAH         0.7510   -1.3090    0.0360 ca        1 VZ4     -0.114000
      8 CAI         2.9110   -2.4880    0.4810 c3        1 VZ4     -0.037100
      9 CAJ        -6.0990    1.1380   -0.2900 c3        1 VZ4     -0.188400
     10 CAK        -0.2820    2.3500    0.2340 c3        1 VZ4     -0.034100
     11 CAL        -4.7520    1.8460   -0.1150 c3        1 VZ4     -0.072400
     12 CAM        -1.6630    2.2040   -0.3680 c3        1 VZ4     -0.073400
     13 CAN        -2.1210   -1.6220   -0.1270 c3        1 VZ4     -0.073400
     14 CAO        -3.6090   -1.7100   -0.4310 c3        1 VZ4     -0.056400
     15 CAQ        -5.8150   -0.3510   -0.2380 c         1 VZ4      0.577100
     16 CAR         2.1050   -1.2410    0.3780 ca        1 VZ4     -0.075300
     17 CAS         0.5080    1.0870    0.2410 ca        1 VZ4     -0.060300
     18 CAT         2.6590    0.0270    0.6350 ca        1 VZ4      0.142100
     19 CAU        -0.0570   -0.1710   -0.0420 ca        1 VZ4     -0.072300
     20 CAV        -1.4880   -0.2770   -0.4720 c3        1 VZ4     -0.012400
     21 CAW        -2.2990    0.9050    0.0900 c3        1 VZ4     -0.046700
     22 CAX        -3.7210    0.7590   -0.4000 c3        1 VZ4     -0.063700
     23 CAY        -4.3560   -0.5330    0.1670 c3        1 VZ4     -0.152000
     24 SAZ         5.2390    0.5930    0.0080 s6        1 VZ4      1.709400
     25 HAA         3.8260   -4.0070   -0.7560 hc        1 VZ4      0.043033
     26 HAAA        2.3750   -3.2100   -1.4970 hc        1 VZ4      0.043033
     27 HAAB        3.9570   -2.3220   -1.4150 hc        1 VZ4      0.043033
     28 HAB        -4.9610   -1.4880    2.0160 hc        1 VZ4      0.045033
     29 HABA       -3.3130   -0.7430    2.0810 hc        1 VZ4      0.045033
     30 HABB       -4.7820    0.3160    2.1310 hc        1 VZ4      0.045033
     31 HAH         0.3270   -2.3040   -0.1740 ha        1 VZ4      0.140000
     32 HAN        -1.9420   -1.8460    0.9570 hc        1 VZ4      0.046700
     33 HANA       -1.6110   -2.4260   -0.7230 hc        1 VZ4      0.046700
     34 HAO        -3.7700   -1.7270   -1.5400 hc        1 VZ4      0.052700
     35 HAOA       -4.0170   -2.6690   -0.0170 hc        1 VZ4      0.052700
     36 HAV        -1.4940   -0.1830   -1.6000 hc        1 VZ4      0.057700
     37 HNAC        5.0010    2.8670   -0.0990 hn        1 VZ4      0.457800
     38 HNAA        4.3030    2.1410   -1.3990 hn        1 VZ4      0.457800
     39 HAG         2.3000    2.1580    0.8210 ha        1 VZ4      0.134000
     40 HAI         2.3190   -3.2560    1.0480 hc        1 VZ4      0.054700
     41 HAIA        3.8440   -2.2840    1.0720 hc        1 VZ4      0.054700
     42 HAJ        -6.8170    1.4140    0.5210 hc        1 VZ4      0.075200
     43 HAJA       -6.5690    1.3970   -1.2720 hc        1 VZ4      0.075200
     44 HAK         0.2830    3.1430   -0.3260 hc        1 VZ4      0.050200
     45 HAKA       -0.3790    2.7040    1.2980 hc        1 VZ4      0.050200
     46 HAL        -4.6470    2.7010   -0.8250 hc        1 VZ4      0.049700
     47 HALA       -4.6410    2.2440    0.9230 hc        1 VZ4      0.049700
     48 HAM        -2.3040    3.0700   -0.0550 hc        1 VZ4      0.045200
     49 HAMA       -1.5990    2.2210   -1.4870 hc        1 VZ4      0.045200
     50 HAW        -2.2760    0.8720    1.2140 hc        1 VZ4      0.063700
     51 HAX        -3.6750    0.6480   -1.5240 hc        1 VZ4      0.051700
     52 OAD        -6.6280   -1.2410   -0.4700 o         1 VZ4     -0.518100
     53 OAP         3.9610    0.1410    1.0390 os        1 VZ4     -0.476800
@<TRIPOS>BOND
     1    1    8 1   
     2    1   25 1   
     3    1   26 1   
     4    1   27 1   
     5    2   23 1   
     6    2   28 1   
     7    2   29 1   
     8    2   30 1   
     9    3   24 1   
    10    3   37 1   
    11    3   38 1   
    12    4   24 2   
    13    5   24 2   
    14    6   17 ar  
    15    6   18 ar  
    16    6   39 1   
    17    7   16 ar  
    18    7   19 ar  
    19    7   31 1   
    20    8   16 1   
    21    8   40 1   
    22    8   41 1   
    23    9   11 1   
    24    9   15 1   
    25    9   42 1   
    26    9   43 1   
    27   10   12 1   
    28   10   17 1   
    29   10   44 1   
    30   10   45 1   
    31   11   22 1   
    32   11   46 1   
    33   11   47 1   
    34   12   21 1   
    35   12   48 1   
    36   12   49 1   
    37   13   14 1   
    38   13   20 1   
    39   13   32 1   
    40   13   33 1   
    41   14   23 1   
    42   14   34 1   
    43   14   35 1   
    44   15   23 1   
    45   15   52 2   
    46   16   18 ar  
    47   17   19 ar  
    48   18   53 1   
    49   19   20 1   
    50   20   21 1   
    51   20   36 1   
    52   21   22 1   
    53   21   50 1   
    54   22   23 1   
    55   22   51 1   
    56   24   53 1   
@<TRIPOS>SUBSTRUCTURE
     1 VZ4         1 TEMP              0 ****  ****    0 ROOT
