@<TRIPOS>MOLECULE
VZ4
   54    52     1     0     0
SMALL
bcc


@<TRIPOS>ATOM
      1 CAA        -1.9500    2.0970    0.8380 c3        1 VZ4     -0.306000
      2 CAB         6.2830   -6.8660    2.4670 c3        1 VZ4     -0.204500
      3 NAC         0.2760   -0.9200    4.6980 n3        1 VZ4     -0.495000
      4 OAE        -1.0940   -0.3950    2.4420 o         1 VZ4     -0.868500
      5 OAF        -0.8550    1.4170    4.1380 o         1 VZ4     -0.868500
      6 CAG         3.1640   -0.1720    3.3010 ca        1 VZ4     -0.129000
      7 CAH         2.8620   -2.0680    1.2420 ca        1 VZ4     -0.094000
      8 CAI        -0.8280    2.0870    1.7020 c2        1 VZ4     -0.216000
      9 CAJ         1.1610   -3.4350    5.7130 c1        1 VZ4      0.041000
     10 CAK         5.4130   -1.1400    3.8760 c3        1 VZ4     -0.127000
     11 CAL         1.5680   -4.5320    6.2620 c2        1 VZ4     -0.494000
     12 CAM         5.9030   -2.5380    4.2180 c3        1 VZ4     -0.124000
     13 CAN         5.5730   -3.4800    0.7790 c2        1 VZ4     -0.167000
     14 CAO         4.0220   -5.9710    1.9150 c3        1 VZ4     -0.204500
     15 CAQ         4.4040   -7.0490    4.0660 c2        1 VZ4      0.202000
     16 CAR         1.8670   -1.1120    1.4390 ca        1 VZ4     -0.148000
     17 CAS         4.1550   -1.1280    3.0830 ca        1 VZ4     -0.032000
     18 CAT         2.0300   -0.1830    2.4740 ca        1 VZ4      0.038000
     19 CAU         3.9930   -2.0900    2.0630 ca        1 VZ4     -0.007000
     20 CAV         5.0340   -3.1160    1.9490 c2        1 VZ4     -0.057000
     21 CAW         5.4760   -3.6090    3.2570 c2        1 VZ4     -0.076000
     22 CAX         5.4880   -4.8820    3.6810 c2        1 VZ4     -0.133000
     23 CAY         5.0550   -6.1470    3.0190 c3        1 VZ4     -0.084000
     24 SAZ        -0.4570    0.6060    3.1140 s6        1 VZ4      2.773000
     25 HAA        -2.4070    1.0790    0.6880 hc        1 VZ4      0.188667
     26 HAAA       -1.7710    2.5980   -0.1540 hc        1 VZ4      0.188667
     27 HAAB       -2.7420    2.7400    1.3580 hc        1 VZ4      0.188667
     28 HAB         6.7850   -6.2280    1.7010 hc        1 VZ4      0.087000
     29 HABA        7.0110   -7.0810    3.2850 hc        1 VZ4      0.087000
     30 HABB        5.9820   -7.8290    1.9870 hc        1 VZ4      0.087000
     31 HAH         2.7530   -2.8160    0.4400 ha        1 VZ4      0.158000
     32 HAN         6.3850   -4.2170    0.7150 ha        1 VZ4      0.129000
     33 HANA        5.2410   -3.0530   -0.1770 ha        1 VZ4      0.129000
     34 HAO         3.5010   -6.9400    1.7160 hc        1 VZ4      0.087000
     35 HAOA        3.2650   -5.2060    2.2080 hc        1 VZ4      0.087000
     36 HAV         4.5160   -5.6450    0.9680 hc        1 VZ4      0.087000
     37 HNAC        1.2760   -1.0260    4.7450 hn        1 VZ4      0.201667
     38 HNAA       -0.1120   -1.8340    4.5150 hn        1 VZ4      0.201667
     39 HAG         3.2750    0.5950    4.0820 ha        1 VZ4      0.159000
     40 HAI        -0.0880    2.9020    1.6710 h4        1 VZ4      0.171000
     41 HAIA        0.9680   -1.1020    0.8060 ha        1 VZ4      0.153000
     42 HAJ         2.4950   -5.0680    5.9570 ha        1 VZ4      0.228000
     43 HAJA        4.4440   -8.1350    3.8290 h4        1 VZ4      0.108000
     44 HAK         5.2830   -0.5550    4.8250 hc        1 VZ4      0.105500
     45 HAKA        6.1990   -0.6090    3.2680 hc        1 VZ4      0.105500
     46 HAL         4.6600   -5.2760    6.9430 ha        1 VZ4      0.002000
     47 HALA        1.0540   -5.0640    7.0830 ha        1 VZ4      0.228000
     48 HAM         7.0260   -2.5220    4.2620 hc        1 VZ4      0.101500
     49 HAMA        4.7060   -4.6800    6.6220 ha        1 VZ4      0.002000
     50 HAW         5.5380   -2.8080    5.2470 hc        1 VZ4      0.101500
     51 HAX         5.8580   -5.0690    4.7120 ha        1 VZ4      0.135000
     52 OAP         1.1090    0.8340    2.6500 os        1 VZ4     -0.619000
     53 HAC3       -0.0490   -0.6130    5.5980 hn        1 VZ4      0.201667
     54 OAD         3.8580   -6.6230    5.0830 o         1 VZ4     -0.309000
@<TRIPOS>BOND
     1    1    8 1   
     2    1   25 1   
     3    1   26 1   
     4    1   27 1   
     5    2   23 1   
     6    2   28 1   
     7    2   29 1   
     8    2   30 1   
     9    3   37 1   
    10    3   38 1   
    11    3   53 1   
    12    4   24 1   
    13    5   24 1   
    14    6   17 1   
    15    6   18 1   
    16    6   39 1   
    17    7   16 1   
    18    7   19 1   
    19    7   31 1   
    20    8   24 1   
    21    8   40 1   
    22    9   11 1   
    23   10   12 1   
    24   10   17 1   
    25   10   44 1   
    26   10   45 1   
    27   11   42 1   
    28   11   47 1   
    29   12   21 1   
    30   12   48 1   
    31   12   50 1   
    32   13   20 1   
    33   13   32 1   
    34   13   33 1   
    35   14   23 1   
    36   14   34 1   
    37   14   35 1   
    38   14   36 1   
    39   15   23 1   
    40   15   43 1   
    41   15   54 1   
    42   16   18 1   
    43   16   41 1   
    44   17   19 1   
    45   18   52 1   
    46   19   20 1   
    47   20   21 1   
    48   21   22 1   
    49   22   23 1   
    50   22   51 1   
    51   24   52 1   
    52   46   49 1   
@<TRIPOS>SUBSTRUCTURE
     1 VZ4         1 TEMP              0 ****  ****    0 ROOT
