@<TRIPOS>MOLECULE
VZ4
   54    55     1     0     0
SMALL
bcc


@<TRIPOS>ATOM
      1 CAA        -0.8200   -0.1160    2.8480 c3        1 VZ4     -0.196000
      2 CAB         6.5740   -5.6440    3.1190 c3        1 VZ4     -0.210000
      3 NAC         1.9100    4.4050    2.5850 n9        1 VZ4     -0.472000
      4 OAE        -0.1230    2.7170    3.3440 o         1 VZ4     -0.873000
      5 OAF         0.3140    2.9030    0.9280 o         1 VZ4     -0.873000
      6 CAG         1.8880   -0.4890    3.4980 c2        1 VZ4      0.043000
      7 CAH         2.8770   -1.5760    1.1040 c2        1 VZ4     -0.240000
      8 CAI         0.1660    0.5450    1.9410 cy        1 VZ4     -0.763000
      9 CAJ         3.9250   -6.0600    7.1110 c1        1 VZ4      0.112000
     10 CAK         2.5450   -2.4540    4.8280 c3        1 VZ4     -0.132000
     11 CAL         4.0810   -6.8480    8.1310 c2        1 VZ4     -0.519000
     12 CAM         2.7280   -3.9460    4.6790 c3        1 VZ4     -0.182000
     13 CAN         4.5710   -3.9880    1.3160 c3        1 VZ4     -0.144000
     14 CAO         4.9020   -5.4650    1.2560 c3        1 VZ4     -0.153000
     15 CAQ         5.2070   -7.6000    2.4570 c2        1 VZ4      0.188000
     16 CAR         2.3540   -0.3220    1.0590 c2        1 VZ4      0.052000
     17 CAS         2.4280   -1.7460    3.5170 c2        1 VZ4     -0.157000
     18 CAT         1.6780    0.2820    2.2420 cy        1 VZ4      0.078000
     19 CAU         2.9170   -2.3400    2.3090 c2        1 VZ4      0.268000
     20 CAV         3.4230   -3.7320    2.2870 c3        1 VZ4     -0.137000
     21 CAW         3.8260   -4.2400    3.6750 c3        1 VZ4     -0.089000
     22 CAX         4.1130   -5.7300    3.6250 c3        1 VZ4     -0.154000
     23 CAY         5.2090   -6.0830    2.6200 c3        1 VZ4     -0.119000
     24 SAZ         0.4350    2.3290    2.1610 s6        1 VZ4      2.811000
     25 HAA        -0.7300    0.2720    3.8940 hc        1 VZ4      0.102667
     26 HAAA       -0.6790   -1.2240    2.8620 hc        1 VZ4      0.102667
     27 HAAB       -1.8600    0.0900    2.4890 hc        1 VZ4      0.102667
     28 HAB         6.6230   -4.5320    3.2070 hc        1 VZ4      0.085333
     29 HABA        7.3720   -5.9750    2.4090 hc        1 VZ4      0.085333
     30 HABB        6.7830   -6.0880    4.1220 hc        1 VZ4      0.085333
     31 HAH         3.3050   -2.0130    0.1830 ha        1 VZ4      0.188000
     32 HAN         5.4710   -3.4030    1.6410 hc        1 VZ4      0.095000
     33 HANA        4.3000   -3.6580    0.2790 hc        1 VZ4      0.095000
     34 HAO         5.7870   -5.6060    0.5810 hc        1 VZ4      0.107500
     35 HAOA        4.0350   -6.0200    0.8020 hc        1 VZ4      0.107500
     36 HAV         2.5290   -4.3490    1.9380 hc        1 VZ4      0.167000
     37 HNAC        2.8680    4.1680    2.7410 hn        1 VZ4      0.172667
     38 HNAA        1.5470    4.8790    3.3870 hn        1 VZ4      0.172667
     39 HAG         1.5650    0.0090    4.4330 ha        1 VZ4      0.188000
     40 HAI        -0.0800    0.2840    0.8820 h1        1 VZ4      0.169000
     41 HAIA        2.3810    0.2920    0.1400 ha        1 VZ4      0.189000
     42 HAJ         6.1450   -8.1140    2.7630 h4        1 VZ4      0.111000
     43 HAJA        4.4160   -6.0680    4.6550 hc        1 VZ4      0.114500
     44 HAK         3.4240   -2.0210    5.3830 hc        1 VZ4      0.116000
     45 HAKA        1.6290   -2.2520    5.4480 hc        1 VZ4      0.116000
     46 HAL         4.8010   -6.6660    8.9470 ha        1 VZ4      0.206500
     47 HALA        3.5070   -7.7790    8.2830 ha        1 VZ4      0.206500
     48 HAM         3.0070   -4.3960    5.6750 hc        1 VZ4      0.124000
     49 HAMA        4.7640   -3.7010    3.9930 hc        1 VZ4      0.108000
     50 HAW         1.7700   -4.4270    4.3530 hc        1 VZ4      0.124000
     51 HAX         3.1760   -6.2830    3.3470 hc        1 VZ4      0.114500
     52 OAP         2.0330    1.6500    2.4070 os        1 VZ4     -0.598000
     53 HAC3        1.8390    4.9980    1.7820 hn        1 VZ4      0.172667
     54 OAD         4.2350   -8.2130    2.0220 o         1 VZ4     -0.272000
@<TRIPOS>BOND
     1    1    8 1   
     2    1   25 1   
     3    1   26 1   
     4    1   27 1   
     5    2   23 1   
     6    2   28 1   
     7    2   29 1   
     8    2   30 1   
     9    3   37 1   
    10    3   38 1   
    11    3   53 1   
    12    4   24 1   
    13    5   24 1   
    14    6   17 1   
    15    6   18 1   
    16    6   39 1   
    17    7   16 1   
    18    7   19 1   
    19    7   31 1   
    20    8   18 1   
    21    8   24 1   
    22    8   40 1   
    23    9   11 1   
    24   10   12 1   
    25   10   17 1   
    26   10   44 1   
    27   10   45 1   
    28   11   46 1   
    29   11   47 1   
    30   12   21 1   
    31   12   48 1   
    32   12   50 1   
    33   13   14 1   
    34   13   20 1   
    35   13   32 1   
    36   13   33 1   
    37   14   23 1   
    38   14   34 1   
    39   14   35 1   
    40   15   23 1   
    41   15   42 1   
    42   15   54 1   
    43   16   18 1   
    44   16   41 1   
    45   17   19 1   
    46   18   52 1   
    47   19   20 1   
    48   20   21 1   
    49   20   36 1   
    50   21   22 1   
    51   21   49 1   
    52   22   23 1   
    53   22   43 1   
    54   22   51 1   
    55   24   52 1   
@<TRIPOS>SUBSTRUCTURE
     1 VZ4         1 TEMP              0 ****  ****    0 ROOT
