@<TRIPOS>MOLECULE
VZ4
   53    54     1     0     0
SMALL
bcc


@<TRIPOS>ATOM
      1 CAA        -0.7320    3.2800   -3.8690 c3        1 VZ4     -0.206000
      2 CAB         2.2820   -3.5820   -0.3880 c3        1 VZ4     -0.201000
      3 NAC        -1.8540    7.1110   -0.3150 n3        1 VZ4     -0.946000
      4 OAD         0.5610   -6.0800   -0.0340 o         1 VZ4     -0.281000
      5 OAE        -1.0460    5.5360    1.5800 o         1 VZ4     -0.933500
      6 OAF        -3.0310    4.9730    0.4880 o         1 VZ4     -0.933500
      7 CAG        -0.2500    2.8910    0.6530 c1        1 VZ4     -0.154000
      8 CAH        -1.0590    0.9780   -1.3760 c1        1 VZ4     -0.117000
      9 CAI        -1.8410    2.8710   -2.9160 c3        1 VZ4     -0.122000
     10 CAJ         1.6960   -5.0080    2.0500 c3        1 VZ4     -0.217000
     11 CAK         0.4940    0.9000    2.3830 c3        1 VZ4     -0.121000
     12 CAL         1.6770   -3.3030    2.2540 c3        1 VZ4     -0.151000
     13 CAM         0.5270   -0.6100    2.4900 c3        1 VZ4     -0.152000
     14 CAN        -0.2040   -1.8710   -1.2050 c3        1 VZ4     -0.151000
     15 CAO        -0.1320   -3.5040   -0.8900 c3        1 VZ4     -0.135000
     16 OAP        -0.9020    4.7480   -0.8300 os        1 VZ4     -0.661000
     17 CAQ         0.7780   -5.0790    0.6340 c2        1 VZ4      0.238000
     18 CAR        -1.2270    2.3740   -1.6000 c2        1 VZ4     -0.073000
     19 CAS        -0.0870    1.5500    0.8730 c1        1 VZ4     -0.052000
     20 CAT        -0.8140    3.3460   -0.5660 c2        1 VZ4      0.098000
     21 CAU        -0.5200    0.5350   -0.2110 c1        1 VZ4     -0.065000
     22 CAV        -0.4030   -0.9880    0.1550 c3        1 VZ4     -0.059000
     23 CAW         0.6320   -1.3360    1.2270 c3        1 VZ4     -0.087000
     24 CAX         0.6720   -2.9330    1.5220 c3        1 VZ4     -0.102000
     25 CAY         0.8710   -3.8230    0.1680 c3        1 VZ4     -0.102000
     26 SAZ        -1.6990    5.5870    0.2030 s6        1 VZ4      2.817000
     27 HAA         0.1250    3.3040   -3.3840 hc        1 VZ4      0.075333
     28 HAAA       -0.6750    2.6360   -4.5950 hc        1 VZ4      0.075333
     29 HAAB       -0.9280    4.1740   -4.2360 hc        1 VZ4      0.075333
     30 HAB         2.2670   -3.6660   -1.3620 hc        1 VZ4      0.084000
     31 HABA        2.5760   -2.6910   -0.1450 hc        1 VZ4      0.084000
     32 HABB        2.9160   -4.2600   -0.0020 hc        1 VZ4      0.084000
     33 HAH        -1.3110    0.3250   -2.0880 ha        1 VZ4      0.136000
     34 HAN        -0.9720   -1.6950   -1.8200 hc        1 VZ4      0.085000
     35 HANA        0.6070   -1.6020   -1.6340 hc        1 VZ4      0.085000
     36 HAO         0.1200   -3.9930   -1.7400 hc        1 VZ4      0.091500
     37 HAOA       -1.0130   -3.8110   -0.5980 hc        1 VZ4      0.091500
     38 HAV        -1.2820   -1.2480    0.5290 hc        1 VZ4      0.098000
     39 HNAC       -1.5500    7.8000    0.1980 hn        1 VZ4      0.255000
     40 HNAA       -2.2160    7.2760   -1.1170 hn        1 VZ4      0.255000
     41 HAG        -0.0230    3.5290    1.3510 ha        1 VZ4      0.154000
     42 HAI        -2.4170    3.6380   -2.7370 hc        1 VZ4      0.093500
     43 HAIA       -2.3860    2.1310   -3.3330 hc        1 VZ4      0.093500
     44 HAJ         1.4710   -5.5550    2.8290 hc        1 VZ4      0.114000
     45 HAJA        2.6180   -5.3040    1.8190 hc        1 VZ4      0.114000
     46 HAK         1.4080    1.2380    2.5300 hc        1 VZ4      0.093000
     47 HAKA       -0.0970    1.2530    3.1250 hc        1 VZ4      0.093000
     48 HAL         2.5030   -2.9100    1.9280 hc        1 VZ4      0.089000
     49 HALA        1.5250   -3.0670    3.1990 hc        1 VZ4      0.089000
     50 HAM        -0.2950   -0.9040    2.9460 hc        1 VZ4      0.084500
     51 HAMA        1.2910   -0.8590    3.0480 hc        1 VZ4      0.084500
     52 HAW         1.5180   -1.0990    0.8430 hc        1 VZ4      0.102000
     53 HAX        -0.1690   -3.2010    1.9640 hc        1 VZ4      0.092000
@<TRIPOS>BOND
     1    1    9 1   
     2    1   27 1   
     3    1   28 1   
     4    1   29 1   
     5    2   25 1   
     6    2   30 1   
     7    2   31 1   
     8    2   32 1   
     9    3   26 1   
    10    3   39 1   
    11    3   40 1   
    12    4   17 1   
    13    5   26 1   
    14    6   26 1   
    15    7   20 1   
    16    7   41 1   
    17    8   18 1   
    18    8   33 1   
    19    9   18 1   
    20    9   42 1   
    21    9   43 1   
    22   10   12 1   
    23   10   17 1   
    24   10   44 1   
    25   10   45 1   
    26   11   13 1   
    27   11   19 1   
    28   11   46 1   
    29   11   47 1   
    30   12   24 1   
    31   12   48 1   
    32   12   49 1   
    33   13   23 1   
    34   13   50 1   
    35   13   51 1   
    36   14   15 1   
    37   14   22 1   
    38   14   34 1   
    39   14   35 1   
    40   15   25 1   
    41   15   36 1   
    42   15   37 1   
    43   16   20 1   
    44   16   26 1   
    45   17   25 1   
    46   18   20 1   
    47   19   21 1   
    48   21   22 1   
    49   22   23 1   
    50   22   38 1   
    51   23   24 1   
    52   23   52 1   
    53   24   25 1   
    54   24   53 1   
@<TRIPOS>SUBSTRUCTURE
     1 VZ4         1 TEMP              0 ****  ****    0 ROOT
