@<TRIPOS>MOLECULE
VZ5
   55    58     1     0     0
SMALL
bcc


@<TRIPOS>ATOM
      1 C1          1.8920   -1.1610   -0.5770 ca        1 VZ5     -0.174000
      2 N1          4.8320   -2.0110    0.5390 n3        1 VZ5     -1.040700
      3 O1          5.2890    0.3570    1.0010 o         1 VZ5     -0.640800
      4 S1          5.2700   -0.5910   -0.0120 s6        1 VZ5      1.709400
      5 C2          2.6900   -0.0090   -0.6190 ca        1 VZ5      0.140100
      6 O2          6.3090   -0.6910   -0.9240 o         1 VZ5     -0.640800
      7 C3          2.1390    1.2540   -0.3390 ca        1 VZ5     -0.075300
      8 O3          3.9900   -0.1180   -1.0320 os        1 VZ5     -0.475800
      9 C4          0.7870    1.3190    0.0120 ca        1 VZ5     -0.115000
     10 C5         -0.0210    0.1800    0.0770 ca        1 VZ5     -0.069300
     11 C6          0.5410   -1.0730   -0.2290 ca        1 VZ5     -0.060300
     12 C7         -0.2520   -2.3350   -0.2380 c3        1 VZ5     -0.034100
     13 C8         -1.6240   -2.1980    0.3830 c3        1 VZ5     -0.073400
     14 C9         -2.2670   -0.8930   -0.0490 c3        1 VZ5     -0.047700
     15 C10        -1.4490    0.2810    0.5190 c3        1 VZ5     -0.012400
     16 C11        -2.0880    1.6270    0.1920 c3        1 VZ5     -0.072400
     17 C12        -3.5680    1.7080    0.5320 c3        1 VZ5     -0.063400
     18 C13        -4.3330    0.5430   -0.0690 c3        1 VZ5     -0.044000
     19 C14        -3.6850   -0.7590    0.4580 c3        1 VZ5     -0.066700
     20 C15        -4.7080   -1.8430    0.1450 c3        1 VZ5     -0.068400
     21 C16        -6.0640   -1.1510    0.3040 c3        1 VZ5     -0.117400
     22 C17        -5.7850    0.3620    0.4400 c3        1 VZ5      0.141100
     23 O17        -6.6710    1.1470   -0.3370 oh        1 VZ5     -0.591800
     24 C18        -4.3550    0.6490   -1.5850 c3        1 VZ5     -0.078100
     25 C19         2.9450    2.5020   -0.4280 c3        1 VZ5     -0.036100
     26 C20         3.3300    3.0300    0.9340 c3        1 VZ5     -0.099100
     27 H10        -1.4460    0.1760    1.6460 hc        1 VZ5      0.055700
     28 H20         2.4240    3.1940    1.5640 hc        1 VZ5      0.042700
     29 H20A        4.0050    2.3060    1.4570 hc        1 VZ5      0.042700
     30 H20B        3.8690    4.0020    0.8260 hc        1 VZ5      0.042700
     31 H1          2.3280   -2.1360   -0.8380 ha        1 VZ5      0.133000
     32 H11        -1.5650    2.4310    0.7760 hc        1 VZ5      0.045200
     33 H11A       -1.9380    1.8520   -0.8960 hc        1 VZ5      0.045200
     34 H12        -3.6980    1.7070    1.6460 hc        1 VZ5      0.045700
     35 H12A       -3.9840    2.6750    0.1430 hc        1 VZ5      0.045700
     36 H4          0.3660    2.3110    0.2390 ha        1 VZ5      0.140000
     37 H14        -3.6300   -0.6790    1.5840 hc        1 VZ5      0.045700
     38 H15        -4.5770   -2.2280   -0.8960 hc        1 VZ5      0.044700
     39 H15A       -4.6080   -2.7080    0.8450 hc        1 VZ5      0.044700
     40 H16        -6.7100   -1.3400   -0.5890 hc        1 VZ5      0.048200
     41 H16A       -6.6000   -1.5270    1.2080 hc        1 VZ5      0.048200
     42 H7         -0.3610   -2.6680   -1.3070 hc        1 VZ5      0.049200
     43 H17        -5.8580    0.6800    1.5170 h1        1 VZ5      0.034700
     44 H7A         0.3200   -3.1390    0.3000 hc        1 VZ5      0.049200
     45 H8         -2.2690   -3.0590    0.0660 hc        1 VZ5      0.044700
     46 H18        -3.3250    0.7250   -2.0060 hc        1 VZ5      0.041700
     47 H8A        -1.5470   -2.2310    1.5020 hc        1 VZ5      0.044700
     48 H18A       -4.8600   -0.2440   -2.0250 hc        1 VZ5      0.041700
     49 H18B       -4.9300    1.5600   -1.8840 hc        1 VZ5      0.041700
     50 H9         -2.2560   -0.8450   -1.1720 hc        1 VZ5      0.065700
     51 H19         3.8740    2.3070   -1.0290 hc        1 VZ5      0.054700
     52 H19A        2.3500    3.2800   -0.9790 hc        1 VZ5      0.054700
     53 HN1         5.0160   -2.8650    0.0710 hn        1 VZ5      0.457800
     54 HN1A        4.3260   -2.1480    1.3800 hn        1 VZ5      0.457800
     55 HO17       -7.5610    0.9340   -0.0300 ho        1 VZ5      0.399000
@<TRIPOS>BOND
     1    1    5 ar  
     2    1   11 ar  
     3    1   31 1   
     4    2    4 1   
     5    2   53 1   
     6    2   54 1   
     7    3    4 2   
     8    4    6 2   
     9    4    8 1   
    10    5    7 ar  
    11    5    8 1   
    12    7    9 ar  
    13    7   25 1   
    14    9   10 ar  
    15    9   36 1   
    16   10   11 ar  
    17   10   15 1   
    18   11   12 1   
    19   12   13 1   
    20   12   42 1   
    21   12   44 1   
    22   13   14 1   
    23   13   45 1   
    24   13   47 1   
    25   14   15 1   
    26   14   19 1   
    27   14   50 1   
    28   15   16 1   
    29   15   27 1   
    30   16   17 1   
    31   16   32 1   
    32   16   33 1   
    33   17   18 1   
    34   17   34 1   
    35   17   35 1   
    36   18   19 1   
    37   18   22 1   
    38   18   24 1   
    39   19   20 1   
    40   19   37 1   
    41   20   21 1   
    42   20   38 1   
    43   20   39 1   
    44   21   22 1   
    45   21   40 1   
    46   21   41 1   
    47   22   23 1   
    48   22   43 1   
    49   23   55 1   
    50   24   46 1   
    51   24   48 1   
    52   24   49 1   
    53   25   26 1   
    54   25   51 1   
    55   25   52 1   
    56   26   28 1   
    57   26   29 1   
    58   26   30 1   
@<TRIPOS>SUBSTRUCTURE
     1 VZ5         1 TEMP              0 ****  ****    0 ROOT
