@<TRIPOS>MOLECULE
VZ5
   56    59     1     0     0
SMALL
bcc


@<TRIPOS>ATOM
      1 C1         -0.4950   -0.4990    0.0490 ca        1 VZ5     -0.123000
      2 N1          2.3440   -1.1380   -3.6870 nz        1 VZ5     -0.790500
      3 O1          0.5230   -2.4670   -2.4970 o         1 VZ5     -0.556800
      4 S1          1.6890   -1.8800   -2.0950 s6        1 VZ5      1.529400
      5 C2          0.8980   -0.3940   -0.1030 ca        1 VZ5      0.015100
      6 O2          2.7850   -2.5190   -1.5890 o         1 VZ5     -0.556800
      7 C3          1.7500   -0.1550    0.9900 ca        1 VZ5     -0.030300
      8 O3          1.4130   -0.4060   -1.3860 os        1 VZ5     -0.411800
      9 C4          1.1520   -0.0330    2.2490 ca        1 VZ5     -0.130000
     10 C5         -0.2310   -0.1400    2.4360 ca        1 VZ5      0.007700
     11 C6         -1.0630   -0.3700    1.3150 ca        1 VZ5     -0.053300
     12 C7         -2.5480   -0.4510    1.4150 c3        1 VZ5     -0.044100
     13 C8         -3.0590   -0.5450    2.8350 c3        1 VZ5     -0.080400
     14 C9         -2.2870    0.3980    3.7380 c3        1 VZ5     -0.046700
     15 C10        -0.8210   -0.0660    3.8110 c3        1 VZ5     -0.032400
     16 C11         0.0040    0.7810    4.7760 c3        1 VZ5     -0.071400
     17 C12        -0.6400    0.9560    6.1440 c3        1 VZ5     -0.065400
     18 C13        -2.0710    1.4430    6.0160 c3        1 VZ5     -0.046000
     19 C14        -2.8360    0.4170    5.1470 c3        1 VZ5     -0.068700
     20 C15        -4.3050    0.7420    5.3810 c3        1 VZ5     -0.067400
     21 C16        -4.3670    1.2090    6.8380 c3        1 VZ5     -0.118400
     22 C17        -2.9110    1.3930    7.3180 c3        1 VZ5      0.145100
     23 O17        -2.7280    2.5910    8.0490 oh        1 VZ5     -0.590800
     24 C18        -2.1050    2.8590    5.4670 c3        1 VZ5     -0.079100
     25 C19         3.2220   -0.0050    0.8460 c3        1 VZ5     -0.048100
     26 C20         3.9700   -1.2330    1.3100 c3        1 VZ5     -0.102100
     27 H10        -0.8210   -1.1270    4.2100 hc        1 VZ5      0.074700
     28 H20         3.6890   -1.4920    2.3600 hc        1 VZ5      0.051033
     29 H20A        3.7450   -2.1100    0.6540 hc        1 VZ5      0.051033
     30 H20B        5.0700   -1.0410    1.2760 hc        1 VZ5      0.051033
     31 H1         -1.1350   -0.6750   -0.8300 ha        1 VZ5      0.157000
     32 H11         1.0010    0.2900    4.9360 hc        1 VZ5      0.044700
     33 H11A        0.1910    1.7870    4.3170 hc        1 VZ5      0.044700
     34 H12        -0.6210   -0.0200    6.6950 hc        1 VZ5      0.054200
     35 H12A       -0.0410    1.6940    6.7390 hc        1 VZ5      0.054200
     36 H4          1.8140    0.1560    3.1120 ha        1 VZ5      0.165000
     37 H14        -2.6550   -0.6080    5.5900 hc        1 VZ5      0.048700
     38 H15        -4.6510    1.5490    4.6890 hc        1 VZ5      0.047700
     39 H15A       -4.9510   -0.1540    5.2120 hc        1 VZ5      0.047700
     40 H16        -4.9200    2.1780    6.9170 hc        1 VZ5      0.055700
     41 H16A       -4.8910    0.4570    7.4750 hc        1 VZ5      0.055700
     42 H7         -2.9760    0.4690    0.9270 hc        1 VZ5      0.064200
     43 H17        -2.5910    0.5190    7.9490 h1        1 VZ5      0.037700
     44 H7A        -2.9140   -1.3360    0.8280 hc        1 VZ5      0.064200
     45 H8         -2.9660   -1.5970    3.2120 hc        1 VZ5      0.058200
     46 H18        -1.6260    3.5520    6.2030 hc        1 VZ5      0.043033
     47 H8A        -4.1490   -0.2780    2.8580 hc        1 VZ5      0.058200
     48 H18A       -3.1610    3.1870    5.3140 hc        1 VZ5      0.043033
     49 H18B       -1.5590    2.9400    4.4980 hc        1 VZ5      0.043033
     50 H9         -2.3300    1.4330    3.3000 hc        1 VZ5      0.067700
     51 H19         3.5550    0.8840    1.4500 hc        1 VZ5      0.057200
     52 H19A        3.4810    0.2120   -0.2250 hc        1 VZ5      0.057200
     53 HN1         2.3420   -0.1170   -3.6430 hn        1 VZ5      0.470467
     54 HN1A        3.3030   -1.4350   -3.8690 hn        1 VZ5      0.470467
     55 HO17       -3.3220    2.5410    8.8080 ho        1 VZ5      0.407000
     56 H13         1.7720   -1.4110   -4.4870 hn        1 VZ5      0.470467
@<TRIPOS>BOND
     1    1    5 ar  
     2    1   11 ar  
     3    1   31 1   
     4    2    4 1   
     5    2   53 1   
     6    2   54 1   
     7    2   56 1   
     8    3    4 2   
     9    4    6 2   
    10    4    8 1   
    11    5    7 ar  
    12    5    8 1   
    13    7    9 ar  
    14    7   25 1   
    15    9   10 ar  
    16    9   36 1   
    17   10   11 ar  
    18   10   15 1   
    19   11   12 1   
    20   12   13 1   
    21   12   42 1   
    22   12   44 1   
    23   13   14 1   
    24   13   45 1   
    25   13   47 1   
    26   14   15 1   
    27   14   19 1   
    28   14   50 1   
    29   15   16 1   
    30   15   27 1   
    31   16   17 1   
    32   16   32 1   
    33   16   33 1   
    34   17   18 1   
    35   17   34 1   
    36   17   35 1   
    37   18   19 1   
    38   18   22 1   
    39   18   24 1   
    40   19   20 1   
    41   19   37 1   
    42   20   21 1   
    43   20   38 1   
    44   20   39 1   
    45   21   22 1   
    46   21   40 1   
    47   21   41 1   
    48   22   23 1   
    49   22   43 1   
    50   23   55 1   
    51   24   46 1   
    52   24   48 1   
    53   24   49 1   
    54   25   26 1   
    55   25   51 1   
    56   25   52 1   
    57   26   28 1   
    58   26   29 1   
    59   26   30 1   
@<TRIPOS>SUBSTRUCTURE
     1 VZ5         1 TEMP              0 ****  ****    0 ROOT
