@<TRIPOS>MOLECULE
VZ5
   56    59     1     0     0
SMALL
bcc


@<TRIPOS>ATOM
      1 C1         -0.5010   -0.4830    0.0450 ca        1 VZ5     -0.123000
      2 N1          2.3270   -1.1150   -3.7000 n4        1 VZ5     -0.790500
      3 O1          0.5000   -2.4410   -2.5140 o         1 VZ5     -0.556800
      4 S1          1.6710   -1.8630   -2.1100 s6        1 VZ5      1.529400
      5 C2          0.8920   -0.3850   -0.1090 ca        1 VZ5      0.015100
      6 O2          2.7640   -2.5120   -1.6110 o         1 VZ5     -0.556800
      7 C3          1.7460   -0.1580    0.9850 ca        1 VZ5     -0.030300
      8 O3          1.4050   -0.3920   -1.3930 os        1 VZ5     -0.411800
      9 C4          1.1510   -0.0400    2.2460 ca        1 VZ5     -0.130000
     10 C5         -0.2320   -0.1400    2.4330 ca        1 VZ5      0.007700
     11 C6         -1.0670   -0.3580    1.3130 ca        1 VZ5     -0.053300
     12 C7         -2.5520   -0.4300    1.4140 c3        1 VZ5     -0.044100
     13 C8         -3.0630   -0.5300    2.8340 c3        1 VZ5     -0.080400
     14 C9         -2.2830    0.4030    3.7420 c3        1 VZ5     -0.046700
     15 C10        -0.8200   -0.0710    3.8100 c3        1 VZ5     -0.032400
     16 C11         0.0110    0.7660    4.7790 c3        1 VZ5     -0.071400
     17 C12        -0.6290    0.9370    6.1480 c3        1 VZ5     -0.065400
     18 C13        -2.0580    1.4320    6.0260 c3        1 VZ5     -0.046000
     19 C14        -2.8300    0.4160    5.1520 c3        1 VZ5     -0.068700
     20 C15        -4.2970    0.7490    5.3890 c3        1 VZ5     -0.067400
     21 C16        -4.3550    1.2070    6.8490 c3        1 VZ5     -0.118400
     22 C17        -2.8970    1.3800    7.3290 c3        1 VZ5      0.145100
     23 O17        -2.7060    2.5720    8.0660 oh        1 VZ5     -0.590800
     24 C18        -2.0840    2.8520    5.4850 c3        1 VZ5     -0.079100
     25 C19         3.2200   -0.0160    0.8400 c3        1 VZ5     -0.048100
     26 C20         3.9610   -1.2510    1.2950 c3        1 VZ5     -0.102100
     27 H10        -0.8260   -1.1330    4.2030 hc        1 VZ5      0.074700
     28 H20         3.7290   -2.1230    0.6350 hc        1 VZ5      0.051033
     29 H20A        5.0620   -1.0660    1.2610 hc        1 VZ5      0.051033
     30 H20B        3.6800   -1.5150    2.3440 hc        1 VZ5      0.051033
     31 H1         -1.1430   -0.6490   -0.8350 ha        1 VZ5      0.157000
     32 H11         0.2030    1.7740    4.3260 hc        1 VZ5      0.044700
     33 H11A        1.0060    0.2680    4.9340 hc        1 VZ5      0.044700
     34 H12        -0.0250    1.6670    6.7470 hc        1 VZ5      0.054200
     35 H12A       -0.6160   -0.0430    6.6940 hc        1 VZ5      0.054200
     36 H4          1.8150    0.1400    3.1080 ha        1 VZ5      0.165000
     37 H14        -2.6550   -0.6120    5.5880 hc        1 VZ5      0.048700
     38 H15        -4.6400    1.5620    4.7030 hc        1 VZ5      0.047700
     39 H15A       -4.9480   -0.1420    5.2160 hc        1 VZ5      0.047700
     40 H16        -4.8820    0.4540    7.4820 hc        1 VZ5      0.055700
     41 H16A       -4.9010    2.1790    6.9350 hc        1 VZ5      0.055700
     42 H7         -2.9250   -1.3100    0.8220 hc        1 VZ5      0.064200
     43 H17        -2.5810    0.5000    7.9540 h1        1 VZ5      0.037700
     44 H7A        -2.9760    0.4950    0.9320 hc        1 VZ5      0.064200
     45 H8         -2.9740   -1.5850    3.2040 hc        1 VZ5      0.058200
     46 H18        -1.6010    3.5380    6.2240 hc        1 VZ5      0.043033
     47 H8A        -4.1510   -0.2570    2.8600 hc        1 VZ5      0.058200
     48 H18A       -1.5400    2.9360    4.5160 hc        1 VZ5      0.043033
     49 H18B       -3.1390    3.1870    5.3360 hc        1 VZ5      0.043033
     50 H9         -2.3210    1.4400    3.3100 hc        1 VZ5      0.067700
     51 H19         3.4780    0.2060   -0.2300 hc        1 VZ5      0.057200
     52 H19A        3.5580    0.8680    1.4480 hc        1 VZ5      0.057200
     53 HN1         1.7520   -1.3810   -4.5000 hn        1 VZ5      0.470467
     54 HN1A        3.2840   -1.4170   -3.8860 hn        1 VZ5      0.470467
     55 HO17       -3.2990    2.5210    8.8260 ho        1 VZ5      0.407000
     56 H13         2.3300   -0.0950   -3.6500 hn        1 VZ5      0.470467
@<TRIPOS>BOND
     1    1    5 ar  
     2    1   11 ar  
     3    1   31 1   
     4    2    4 1   
     5    2   53 1   
     6    2   54 1   
     7    2   56 1   
     8    3    4 2   
     9    4    6 2   
    10    4    8 1   
    11    5    7 ar  
    12    5    8 1   
    13    7    9 ar  
    14    7   25 1   
    15    9   10 ar  
    16    9   36 1   
    17   10   11 ar  
    18   10   15 1   
    19   11   12 1   
    20   12   13 1   
    21   12   42 1   
    22   12   44 1   
    23   13   14 1   
    24   13   45 1   
    25   13   47 1   
    26   14   15 1   
    27   14   19 1   
    28   14   50 1   
    29   15   16 1   
    30   15   27 1   
    31   16   17 1   
    32   16   32 1   
    33   16   33 1   
    34   17   18 1   
    35   17   34 1   
    36   17   35 1   
    37   18   19 1   
    38   18   22 1   
    39   18   24 1   
    40   19   20 1   
    41   19   37 1   
    42   20   21 1   
    43   20   38 1   
    44   20   39 1   
    45   21   22 1   
    46   21   40 1   
    47   21   41 1   
    48   22   23 1   
    49   22   43 1   
    50   23   55 1   
    51   24   46 1   
    52   24   48 1   
    53   24   49 1   
    54   25   26 1   
    55   25   51 1   
    56   25   52 1   
    57   26   28 1   
    58   26   29 1   
    59   26   30 1   
@<TRIPOS>SUBSTRUCTURE
     1 VZ5         1 TEMP              0 ****  ****    0 ROOT
