@<TRIPOS>MOLECULE
VZ5
   56    59     1     0     0
SMALL
bcc


@<TRIPOS>ATOM
      1 C1         -0.4850   -0.4750    0.0440 ca        1 VZ5     -0.123000
      2 N1          2.3700   -1.1240   -3.6780 n4        1 VZ5     -0.790500
      3 O1          0.5190   -2.4350   -2.5140 o         1 VZ5     -0.556800
      4 S1          1.6920   -1.8700   -2.0980 s6        1 VZ5      1.529400
      5 C2          0.9100   -0.3900   -0.0980 ca        1 VZ5      0.015100
      6 O2          2.7740   -2.5310   -1.5900 o         1 VZ5     -0.556800
      7 C3          1.7580   -0.1750    1.0040 ca        1 VZ5     -0.030300
      8 O3          1.4340   -0.3990   -1.3780 os        1 VZ5     -0.411800
      9 C4          1.1530   -0.0550    2.2600 ca        1 VZ5     -0.130000
     10 C5         -0.2320   -0.1420    2.4360 ca        1 VZ5      0.007700
     11 C6         -1.0600   -0.3480    1.3070 ca        1 VZ5     -0.053300
     12 C7         -2.5470   -0.4070    1.3960 c3        1 VZ5     -0.044100
     13 C8         -3.0700   -0.5060    2.8120 c3        1 VZ5     -0.080400
     14 C9         -2.2880    0.4160    3.7290 c3        1 VZ5     -0.046700
     15 C10        -0.8300   -0.0710    3.8070 c3        1 VZ5     -0.032400
     16 C11         0.0000    0.7540    4.7860 c3        1 VZ5     -0.071400
     17 C12        -0.6500    0.9270    6.1500 c3        1 VZ5     -0.065400
     18 C13        -2.0730    1.4370    6.0180 c3        1 VZ5     -0.046000
     19 C14        -2.8470    0.4310    5.1340 c3        1 VZ5     -0.068700
     20 C15        -4.3130    0.7770    5.3610 c3        1 VZ5     -0.067400
     21 C16        -4.3780    1.2320    6.8210 c3        1 VZ5     -0.118400
     22 C17        -2.9220    1.3880    7.3130 c3        1 VZ5      0.145100
     23 O17        -2.7260    2.5760    8.0560 oh        1 VZ5     -0.590800
     24 C18        -2.0800    2.8580    5.4810 c3        1 VZ5     -0.079100
     25 C19         3.2340   -0.0470    0.8710 c3        1 VZ5     -0.048100
     26 C20         3.9590   -1.2900    1.3290 c3        1 VZ5     -0.102100
     27 H10        -0.8500   -1.1350    4.1970 hc        1 VZ5      0.074700
     28 H20         3.6670   -1.5540    2.3740 hc        1 VZ5      0.051033
     29 H20A        3.7250   -2.1570    0.6640 hc        1 VZ5      0.051033
     30 H20B        5.0620   -1.1150    1.3040 hc        1 VZ5      0.051033
     31 H1         -1.1210   -0.6320   -0.8420 ha        1 VZ5      0.157000
     32 H11         0.2060    1.7610    4.3380 hc        1 VZ5      0.044700
     33 H11A        0.9890    0.2460    4.9470 hc        1 VZ5      0.044700
     34 H12        -0.0440    1.6490    6.7570 hc        1 VZ5      0.054200
     35 H12A       -0.6500   -0.0550    6.6930 hc        1 VZ5      0.054200
     36 H4          1.8120    0.1160    3.1280 ha        1 VZ5      0.165000
     37 H14        -2.6850   -0.6010    5.5680 hc        1 VZ5      0.048700
     38 H15        -4.6410    1.5960    4.6740 hc        1 VZ5      0.047700
     39 H15A       -4.9710   -0.1070    5.1790 hc        1 VZ5      0.047700
     40 H16        -4.9160    2.2080    6.9060 hc        1 VZ5      0.055700
     41 H16A       -4.9180    0.4810    7.4480 hc        1 VZ5      0.055700
     42 H7         -2.9220   -1.2810    0.7980 hc        1 VZ5      0.064200
     43 H17        -2.6200    0.5030    7.9380 h1        1 VZ5      0.037700
     44 H7A        -2.9570    0.5240    0.9130 hc        1 VZ5      0.064200
     45 H8         -2.9950   -1.5630    3.1790 hc        1 VZ5      0.058200
     46 H18        -3.1310    3.2040    5.3250 hc        1 VZ5      0.043033
     47 H8A        -4.1550   -0.2230    2.8300 hc        1 VZ5      0.058200
     48 H18A       -1.5270    2.9390    4.5170 hc        1 VZ5      0.043033
     49 H18B       -1.5960    3.5370    6.2270 hc        1 VZ5      0.043033
     50 H9         -2.3130    1.4560    3.3000 hc        1 VZ5      0.067700
     51 H19         3.5750    0.8320    1.4850 hc        1 VZ5      0.057200
     52 H19A        3.5030    0.1760   -0.1960 hc        1 VZ5      0.057200
     53 HN1         1.8000   -1.3810   -4.4840 hn        1 VZ5      0.470467
     54 HN1A        3.3260   -1.4350   -3.8570 hn        1 VZ5      0.470467
     55 HO17       -3.3250    2.5290    8.8110 ho        1 VZ5      0.407000
     56 H13         2.3830   -0.1040   -3.6250 hn        1 VZ5      0.470467
@<TRIPOS>BOND
     1    1    5 ar  
     2    1   11 ar  
     3    1   31 1   
     4    2    4 1   
     5    2   53 1   
     6    2   54 1   
     7    2   56 1   
     8    3    4 2   
     9    4    6 2   
    10    4    8 1   
    11    5    7 ar  
    12    5    8 1   
    13    7    9 ar  
    14    7   25 1   
    15    9   10 ar  
    16    9   36 1   
    17   10   11 ar  
    18   10   15 1   
    19   11   12 1   
    20   12   13 1   
    21   12   42 1   
    22   12   44 1   
    23   13   14 1   
    24   13   45 1   
    25   13   47 1   
    26   14   15 1   
    27   14   19 1   
    28   14   50 1   
    29   15   16 1   
    30   15   27 1   
    31   16   17 1   
    32   16   32 1   
    33   16   33 1   
    34   17   18 1   
    35   17   34 1   
    36   17   35 1   
    37   18   19 1   
    38   18   22 1   
    39   18   24 1   
    40   19   20 1   
    41   19   37 1   
    42   20   21 1   
    43   20   38 1   
    44   20   39 1   
    45   21   22 1   
    46   21   40 1   
    47   21   41 1   
    48   22   23 1   
    49   22   43 1   
    50   23   55 1   
    51   24   46 1   
    52   24   48 1   
    53   24   49 1   
    54   25   26 1   
    55   25   51 1   
    56   25   52 1   
    57   26   28 1   
    58   26   29 1   
    59   26   30 1   
@<TRIPOS>SUBSTRUCTURE
     1 VZ5         1 TEMP              0 ****  ****    0 ROOT
