@<TRIPOS>MOLECULE
VZV
   71    75     1     0     0
SMALL
bcc


@<TRIPOS>ATOM
      1 O43        -0.0220   -0.0510    0.5940 o         1 VZV     -0.683100
      2 C42         1.2090   -0.0410    0.3250 c         1 VZV      0.738700
      3 N5          2.0700    0.1810    1.4250 n         1 VZV     -0.473800
      4 C4          1.5500   -0.0290    2.7670 c3        1 VZV      0.036700
      5 C6          1.0300    1.2680    3.4050 c         1 VZV      0.541100
      6 O10         1.3180    1.7150    4.5040 o         1 VZV     -0.423100
      7 N7         -0.0020    2.0440    2.6050 n4        1 VZV     -0.598200
      8 C9         -1.1790    2.3740    3.4470 c3        1 VZV      0.086600
      9 C8          0.6180    3.2760    2.0540 c3        1 VZV      0.086600
     10 C3          2.6880   -0.6170    3.6360 c3        1 VZV     -0.090400
     11 C2          3.9520   -0.5220    2.7920 c3        1 VZV     -0.092400
     12 C1          3.4940   -0.1400    1.3760 c3        1 VZV      0.056000
     13 C37         1.7540   -0.1210   -1.0050 cc        1 VZV     -0.303700
     14 C38         1.0560   -0.5050   -2.1660 cd        1 VZV      0.196400
     15 C39        -0.3690   -0.9810   -2.1860 c3        1 VZV     -0.043400
     16 C41        -1.1510   -0.4670   -3.3770 c3        1 VZV     -0.099600
     17 C40        -0.4080   -2.4970   -2.1240 c3        1 VZV     -0.099600
     18 N35         1.8360   -0.3980   -3.2820 na        1 VZV     -0.167100
     19 C31         1.7340   -0.6770   -4.7200 c3        1 VZV      0.081300
     20 C24         1.4890   -2.1170   -5.0520 ca        1 VZV     -0.116300
     21 C23         0.4770   -2.4330   -5.9690 ca        1 VZV     -0.104000
     22 C22         0.2130   -3.7590   -6.3020 ca        1 VZV     -0.123000
     23 C25         2.2350   -3.1490   -4.4710 ca        1 VZV     -0.104000
     24 C26         1.9760   -4.4790   -4.7970 ca        1 VZV     -0.123000
     25 C21         0.9630   -4.7840   -5.7120 ca        1 VZV      0.031400
     26 CL2         0.6420   -6.3990   -6.1090 cl        1 VZV     -0.064400
     27 S36         3.3900    0.3420   -1.3410 ss        1 VZV     -0.084800
     28 C34         3.1740    0.1060   -3.0190 cc        1 VZV      0.107600
     29 N33         3.9270    0.2800   -4.0660 n2        1 VZV     -0.266200
     30 C32         3.1410   -0.0830   -5.2830 c3        1 VZV      0.187500
     31 C44         2.8090    1.1870   -6.0820 c3        1 VZV     -0.091100
     32 C15         3.8630   -1.0430   -6.1920 ca        1 VZV     -0.086300
     33 C16         3.2330   -1.4550   -7.3770 ca        1 VZV     -0.102000
     34 C11         3.8810   -2.2930   -8.2790 ca        1 VZV     -0.126000
     35 C14         5.1650   -1.4840   -5.9320 ca        1 VZV     -0.102000
     36 C13         5.8220   -2.3260   -6.8300 ca        1 VZV     -0.126000
     37 C12         5.1810   -2.7300   -8.0030 ca        1 VZV      0.028400
     38 CL1         5.9790   -3.7510   -9.0980 cl        1 VZV     -0.074400
     39 H1          0.6550   -0.7290    2.7520 h1        1 VZV      0.116700
     40 H2         -1.9120    2.9710    2.8430 hx        1 VZV      0.103867
     41 H3         -0.8490    2.9700    4.3400 hx        1 VZV      0.103867
     42 H4         -1.6630    1.4210    3.7900 hx        1 VZV      0.103867
     43 H5          1.4740    2.9910    1.3850 hx        1 VZV      0.103867
     44 H6          0.9920    3.9150    2.8980 hx        1 VZV      0.103867
     45 H7         -0.1480    3.8440    1.4620 hx        1 VZV      0.103867
     46 H8          2.4420   -1.6840    3.8720 hc        1 VZV      0.088200
     47 H9          2.8000   -0.0670    4.6030 hc        1 VZV      0.088200
     48 H10         4.6470    0.2540    3.1990 hc        1 VZV      0.078200
     49 H11         4.4990   -1.4970    2.7760 hc        1 VZV      0.078200
     50 H12         4.0500    0.7710    1.0100 h1        1 VZV      0.081200
     51 H13         3.6890   -0.9960    0.6670 h1        1 VZV      0.081200
     52 H16        -0.8680   -0.5750   -1.2560 hc        1 VZV      0.105700
     53 H17        -0.8830   -1.0260   -4.3070 hc        1 VZV      0.051867
     54 H18        -0.9650    0.6210   -3.5400 hc        1 VZV      0.051867
     55 H19        -2.2430   -0.6150   -3.1890 hc        1 VZV      0.051867
     56 H20         0.1300   -2.9460   -2.9960 hc        1 VZV      0.051867
     57 H21         0.0650   -2.8630   -1.1820 hc        1 VZV      0.051867
     58 H22        -1.4710   -2.8400   -2.1460 hc        1 VZV      0.051867
     59 H23         0.8980   -0.0440   -5.1380 h1        1 VZV      0.084700
     60 H24        -0.1130   -1.6320   -6.4420 ha        1 VZV      0.141000
     61 H25        -0.5790   -3.9980   -7.0290 ha        1 VZV      0.158500
     62 H26         3.0460   -2.9160   -3.7640 ha        1 VZV      0.141000
     63 H27         2.5740   -5.2830   -4.3410 ha        1 VZV      0.158500
     64 H28         2.1670    0.9250   -6.9560 hc        1 VZV      0.055367
     65 H29         3.7510    1.6560   -6.4580 hc        1 VZV      0.055367
     66 H30         2.2680    1.9290   -5.4470 hc        1 VZV      0.055367
     67 H31         2.2040   -1.1270   -7.5960 ha        1 VZV      0.142500
     68 H32         3.3720   -2.6070   -9.2030 ha        1 VZV      0.154000
     69 H33         5.7060   -1.1720   -5.0250 ha        1 VZV      0.142500
     70 H34         6.8480   -2.6630   -6.6130 ha        1 VZV      0.154000
     71 H71        -0.3240    1.4490    1.8160 hn        1 VZV      0.493800
@<TRIPOS>BOND
     1    1    2 2   
     2    2    3 1   
     3    2   13 1   
     4    3    4 1   
     5    3   12 1   
     6    4    5 1   
     7    4   10 1   
     8    4   39 1   
     9    5    6 2   
    10    5    7 1   
    11    7    8 1   
    12    7    9 1   
    13    7   71 1   
    14    8   40 1   
    15    8   41 1   
    16    8   42 1   
    17    9   43 1   
    18    9   44 1   
    19    9   45 1   
    20   10   11 1   
    21   10   46 1   
    22   10   47 1   
    23   11   12 1   
    24   11   48 1   
    25   11   49 1   
    26   12   50 1   
    27   12   51 1   
    28   13   14 2   
    29   13   27 1   
    30   14   15 1   
    31   14   18 1   
    32   15   16 1   
    33   15   17 1   
    34   15   52 1   
    35   16   53 1   
    36   16   54 1   
    37   16   55 1   
    38   17   56 1   
    39   17   57 1   
    40   17   58 1   
    41   18   19 1   
    42   18   28 1   
    43   19   20 1   
    44   19   30 1   
    45   19   59 1   
    46   20   21 ar  
    47   20   23 ar  
    48   21   22 ar  
    49   21   60 1   
    50   22   25 ar  
    51   22   61 1   
    52   23   24 ar  
    53   23   62 1   
    54   24   25 ar  
    55   24   63 1   
    56   25   26 1   
    57   27   28 1   
    58   28   29 2   
    59   29   30 1   
    60   30   31 1   
    61   30   32 1   
    62   31   64 1   
    63   31   65 1   
    64   31   66 1   
    65   32   33 ar  
    66   32   35 ar  
    67   33   34 ar  
    68   33   67 1   
    69   34   37 ar  
    70   34   68 1   
    71   35   36 ar  
    72   35   69 1   
    73   36   37 ar  
    74   36   70 1   
    75   37   38 1   
@<TRIPOS>SUBSTRUCTURE
     1 VZV         1 TEMP              0 ****  ****    0 ROOT
