@<TRIPOS>MOLECULE
VZV
   71    75     1     0     0
SMALL
bcc


@<TRIPOS>ATOM
      1 O43         0.0490    0.0830    0.6430 o         1 VZV     -0.670100
      2 C42         1.2700   -0.0420    0.3790 c         1 VZV      0.737700
      3 N5          2.1550    0.0010    1.4850 n         1 VZV     -0.465800
      4 C4          1.6050   -0.1370    2.8220 c3        1 VZV      0.047700
      5 C6          1.5200    1.2340    3.5160 c         1 VZV      0.542100
      6 O10         2.3260    1.7120    4.2970 o         1 VZV     -0.421100
      7 N7          0.3130    2.1290    3.2680 n4        1 VZV     -0.582200
      8 C9          0.4780    2.9070    2.0130 c3        1 VZV      0.077600
      9 C8         -0.9720    1.3920    3.2880 c3        1 VZV      0.077600
     10 C3          2.5570   -1.0450    3.6420 c3        1 VZV     -0.092400
     11 C2          3.8170   -1.1930    2.8000 c3        1 VZV     -0.093400
     12 C1          3.4890   -0.5940    1.4230 c3        1 VZV      0.056000
     13 C37         1.8210   -0.1060   -0.9530 cc        1 VZV     -0.301700
     14 C38         1.1040   -0.3520   -2.1370 cd        1 VZV      0.190400
     15 C39        -0.3610   -0.6820   -2.1930 c3        1 VZV     -0.042400
     16 C41        -1.0750   -0.0180   -3.3520 c3        1 VZV     -0.099100
     17 C40        -0.5530   -2.1870   -2.2270 c3        1 VZV     -0.099100
     18 N35         1.9050   -0.2610   -3.2410 na        1 VZV     -0.170100
     19 C31         1.7940   -0.4450   -4.6920 c3        1 VZV      0.081300
     20 C24         1.4090   -1.8310   -5.1100 ca        1 VZV     -0.115300
     21 C23         0.3800   -1.9910   -6.0480 ca        1 VZV     -0.104000
     22 C22        -0.0120   -3.2620   -6.4590 ca        1 VZV     -0.123000
     23 C25         2.0420   -2.9650   -4.5880 ca        1 VZV     -0.104000
     24 C26         1.6550   -4.2410   -4.9920 ca        1 VZV     -0.123000
     25 C21         0.6250   -4.3890   -5.9270 ca        1 VZV      0.031400
     26 CL2         0.1470   -5.9390   -6.4190 cl        1 VZV     -0.065400
     27 S36         3.4980    0.2130   -1.2480 ss        1 VZV     -0.079800
     28 C34         3.2820    0.0920   -2.9390 cc        1 VZV      0.109600
     29 N33         4.0630    0.2470   -3.9690 n2        1 VZV     -0.270200
     30 C32         3.2600    0.0350   -5.2100 c3        1 VZV      0.187500
     31 C44         3.0670    1.3750   -5.9370 c3        1 VZV     -0.091100
     32 C15         3.8940   -0.9390   -6.1680 ca        1 VZV     -0.086300
     33 C16         3.2400   -1.2200   -7.3780 ca        1 VZV     -0.102000
     34 C11         3.8130   -2.0660   -8.3230 ca        1 VZV     -0.126000
     35 C14         5.1430   -1.5230   -5.9260 ca        1 VZV     -0.102000
     36 C13         5.7240   -2.3730   -6.8660 ca        1 VZV     -0.126000
     37 C12         5.0600   -2.6450   -8.0650 ca        1 VZV      0.027400
     38 CL1         5.7650   -3.6780   -9.2110 cl        1 VZV     -0.075400
     39 H1          0.5640   -0.5790    2.7930 h1        1 VZV      0.109700
     40 H2          1.4920    3.3900    2.0120 hx        1 VZV      0.110867
     41 H3         -0.3200    3.6960    1.9660 hx        1 VZV      0.110867
     42 H4          0.3760    2.2260    1.1240 hx        1 VZV      0.110867
     43 H5         -1.8160    2.1340    3.3050 hx        1 VZV      0.110867
     44 H6         -1.0680    0.7520    2.3650 hx        1 VZV      0.110867
     45 H7         -1.0170    0.7510    4.2070 hx        1 VZV      0.110867
     46 H8          2.0580   -2.0360    3.7960 hc        1 VZV      0.083200
     47 H9          2.7870   -0.6120    4.6450 hc        1 VZV      0.083200
     48 H10         4.6750   -0.6470    3.2660 hc        1 VZV      0.079200
     49 H11         4.1100   -2.2680    2.6990 hc        1 VZV      0.079200
     50 H12         4.2240    0.2180    1.1570 h1        1 VZV      0.082200
     51 H13         3.5340   -1.3960    0.6320 h1        1 VZV      0.082200
     52 H16        -0.8260   -0.2860   -1.2410 hc        1 VZV      0.104700
     53 H17        -0.8530   -0.5420   -4.3150 hc        1 VZV      0.051367
     54 H18        -2.1780   -0.0680   -3.1800 hc        1 VZV      0.051367
     55 H19        -0.7790    1.0540   -3.4440 hc        1 VZV      0.051367
     56 H20        -1.6450   -2.4190   -2.2730 hc        1 VZV      0.051367
     57 H21        -0.1270   -2.6570   -1.3080 hc        1 VZV      0.051367
     58 H22        -0.0560   -2.6320   -3.1230 hc        1 VZV      0.051367
     59 H23         1.0300    0.2920   -5.0780 h1        1 VZV      0.084700
     60 H24        -0.1220   -1.1090   -6.4750 ha        1 VZV      0.141000
     61 H25        -0.8180   -3.3780   -7.2010 ha        1 VZV      0.157500
     62 H26         2.8650   -2.8560   -3.8650 ha        1 VZV      0.141000
     63 H27         2.1640   -5.1270   -4.5810 ha        1 VZV      0.157500
     64 H28         2.5950    2.1310   -5.2640 hc        1 VZV      0.055367
     65 H29         4.0560    1.7670   -6.2790 hc        1 VZV      0.055367
     66 H30         2.4130    1.2290   -6.8290 hc        1 VZV      0.055367
     67 H31         2.2520   -0.7790   -7.5850 ha        1 VZV      0.142500
     68 H32         3.2860   -2.2750   -9.2670 ha        1 VZV      0.153500
     69 H33         5.7010   -1.3170   -4.9990 ha        1 VZV      0.142500
     70 H34         6.7080   -2.8230   -6.6620 ha        1 VZV      0.153500
     71 H71         0.2970    2.8110    4.0450 hn        1 VZV      0.448800
@<TRIPOS>BOND
     1    1    2 2   
     2    2    3 1   
     3    2   13 1   
     4    3    4 1   
     5    3   12 1   
     6    4    5 1   
     7    4   10 1   
     8    4   39 1   
     9    5    6 2   
    10    5    7 1   
    11    7    8 1   
    12    7    9 1   
    13    7   71 1   
    14    8   40 1   
    15    8   41 1   
    16    8   42 1   
    17    9   43 1   
    18    9   44 1   
    19    9   45 1   
    20   10   11 1   
    21   10   46 1   
    22   10   47 1   
    23   11   12 1   
    24   11   48 1   
    25   11   49 1   
    26   12   50 1   
    27   12   51 1   
    28   13   14 2   
    29   13   27 1   
    30   14   15 1   
    31   14   18 1   
    32   15   16 1   
    33   15   17 1   
    34   15   52 1   
    35   16   53 1   
    36   16   54 1   
    37   16   55 1   
    38   17   56 1   
    39   17   57 1   
    40   17   58 1   
    41   18   19 1   
    42   18   28 1   
    43   19   20 1   
    44   19   30 1   
    45   19   59 1   
    46   20   21 ar  
    47   20   23 ar  
    48   21   22 ar  
    49   21   60 1   
    50   22   25 ar  
    51   22   61 1   
    52   23   24 ar  
    53   23   62 1   
    54   24   25 ar  
    55   24   63 1   
    56   25   26 1   
    57   27   28 1   
    58   28   29 2   
    59   29   30 1   
    60   30   31 1   
    61   30   32 1   
    62   31   64 1   
    63   31   65 1   
    64   31   66 1   
    65   32   33 ar  
    66   32   35 ar  
    67   33   34 ar  
    68   33   67 1   
    69   34   37 ar  
    70   34   68 1   
    71   35   36 ar  
    72   35   69 1   
    73   36   37 ar  
    74   36   70 1   
    75   37   38 1   
@<TRIPOS>SUBSTRUCTURE
     1 VZV         1 TEMP              0 ****  ****    0 ROOT
