@<TRIPOS>MOLECULE
VZV
   71    75     1     0     0
SMALL
bcc


@<TRIPOS>ATOM
      1 O43        -0.0710   -0.1340    0.5810 o         1 VZV     -0.683100
      2 C42         1.1650   -0.1930    0.3410 c         1 VZV      0.738700
      3 N5          2.0090   -0.1100    1.4720 n         1 VZV     -0.473800
      4 C4          1.4390   -0.3750    2.7840 c3        1 VZV      0.036700
      5 C6          0.9930    0.9090    3.5010 c         1 VZV      0.541100
      6 O10         1.2800    1.2560    4.6360 o         1 VZV     -0.423100
      7 N7          0.0400    1.8100    2.7350 nx        1 VZV     -0.598200
      8 C9          0.7590    3.0300    2.2880 c3        1 VZV      0.086600
      9 C8         -1.1340    2.1630    3.5710 c3        1 VZV      0.086600
     10 C3          2.5100   -1.1000    3.6340 c3        1 VZV     -0.090400
     11 C2          3.8000   -1.0370    2.8270 c3        1 VZV     -0.092400
     12 C1          3.4080   -0.5260    1.4330 c3        1 VZV      0.056000
     13 C37         1.7380   -0.2200   -0.9790 cc        1 VZV     -0.303700
     14 C38         1.0470   -0.4720   -2.1800 cd        1 VZV      0.196400
     15 C39        -0.4060   -0.8440   -2.2650 c3        1 VZV     -0.043400
     16 C41        -1.1180   -0.1940   -3.4340 c3        1 VZV     -0.099600
     17 C40        -0.5520   -2.3540   -2.3110 c3        1 VZV     -0.099600
     18 N35         1.8630   -0.3440   -3.2680 na        1 VZV     -0.167100
     19 C31         1.7800   -0.5150   -4.7240 c3        1 VZV      0.081300
     20 C24         1.4460   -1.9070   -5.1630 ca        1 VZV     -0.116300
     21 C23         0.4390   -2.0870   -6.1220 ca        1 VZV     -0.104000
     22 C22         0.0930   -3.3650   -6.5540 ca        1 VZV     -0.123000
     23 C25         2.1020   -3.0270   -4.6400 ca        1 VZV     -0.104000
     24 C26         1.7600   -4.3100   -5.0650 ca        1 VZV     -0.123000
     25 C21         0.7530   -4.4780   -6.0210 ca        1 VZV      0.031400
     26 Cl2         0.3320   -6.0350   -6.5400 cl        1 VZV     -0.064400
     27 S36         3.4110    0.1480   -1.2450 ss        1 VZV     -0.084800
     28 C34         3.2250    0.0450   -2.9410 cc        1 VZV      0.107600
     29 N33         4.0160    0.2360   -3.9560 n2        1 VZV     -0.266200
     30 C32         3.2400    0.0150   -5.2120 c3        1 VZV      0.187500
     31 C44         3.0180    1.3580   -5.9260 c3        1 VZV     -0.091100
     32 C15         3.9180   -0.9290   -6.1710 ca        1 VZV     -0.086300
     33 C16         3.2930   -1.2120   -7.3950 ca        1 VZV     -0.102000
     34 C11         3.9050   -2.0300   -8.3400 ca        1 VZV     -0.126000
     35 C14         5.1780   -1.4790   -5.9140 ca        1 VZV     -0.102000
     36 C13         5.8000   -2.3010   -6.8550 ca        1 VZV     -0.126000
     37 C12         5.1640   -2.5760   -8.0670 ca        1 VZV      0.028400
     38 Cl1         5.9180   -3.5740   -9.2140 cl        1 VZV     -0.074400
     39 H1          0.4990   -1.0060    2.7000 h1        1 VZV      0.116700
     40 H2          0.0510    3.6910    1.7200 hx        1 VZV      0.103867
     41 H3          1.1530    3.5800    3.1840 hx        1 VZV      0.103867
     42 H4          1.6120    2.7330    1.6200 hx        1 VZV      0.103867
     43 H5         -1.8070    2.8530    2.9950 hx        1 VZV      0.103867
     44 H6         -0.7890    2.6710    4.5120 hx        1 VZV      0.103867
     45 H7         -1.6920    1.2260    3.8340 hx        1 VZV      0.103867
     46 H8          2.6340   -0.6280    4.6400 hc        1 VZV      0.088200
     47 H9          2.1850   -2.1600    3.7890 hc        1 VZV      0.088200
     48 H10         4.5360   -0.3430    3.3040 hc        1 VZV      0.078200
     49 H11         4.2790   -2.0440    2.7540 hc        1 VZV      0.078200
     50 H12         3.5630   -1.3430    0.6690 h1        1 VZV      0.081200
     51 H13         4.0350    0.3660    1.1450 h1        1 VZV      0.081200
     52 H16        -0.9010   -0.4680   -1.3200 hc        1 VZV      0.105700
     53 H17        -2.2230   -0.2770   -3.2810 hc        1 VZV      0.051867
     54 H18        -0.8650   -0.7060   -4.3950 hc        1 VZV      0.051867
     55 H19        -0.8530    0.8860   -3.5150 hc        1 VZV      0.051867
     56 H20        -0.0230   -2.7790   -3.2000 hc        1 VZV      0.051867
     57 H21        -0.1310   -2.8160   -1.3870 hc        1 VZV      0.051867
     58 H22        -1.6350   -2.6180   -2.3810 hc        1 VZV      0.051867
     59 H23         1.0020    0.2030   -5.1140 h1        1 VZV      0.084700
     60 H24        -0.0810   -1.2150   -6.5500 ha        1 VZV      0.141000
     61 H25        -0.6940   -3.4960   -7.3130 ha        1 VZV      0.158500
     62 H26         2.9080   -2.9030   -3.9000 ha        1 VZV      0.141000
     63 H27         2.2880   -5.1850   -4.6540 ha        1 VZV      0.158500
     64 H28         2.3830    1.2020   -6.8310 hc        1 VZV      0.055367
     65 H29         4.0000    1.7830   -6.2480 hc        1 VZV      0.055367
     66 H30         2.5130    2.0910   -5.2530 hc        1 VZV      0.055367
     67 H31         2.2960   -0.7980   -7.6130 ha        1 VZV      0.142500
     68 H32         3.4010   -2.2420   -9.2950 ha        1 VZV      0.154000
     69 H33         5.7150   -1.2690   -4.9760 ha        1 VZV      0.142500
     70 H34         6.7930   -2.7240   -6.6390 ha        1 VZV      0.154000
     71 H71        -0.3010    1.2960    1.8980 hn        1 VZV      0.493800
@<TRIPOS>BOND
     1    1    2 2   
     2    2    3 1   
     3    2   13 1   
     4    3    4 1   
     5    3   12 1   
     6    4    5 1   
     7    4   10 1   
     8    4   39 1   
     9    5    6 2   
    10    5    7 1   
    11    7    8 1   
    12    7    9 1   
    13    7   71 1   
    14    8   40 1   
    15    8   41 1   
    16    8   42 1   
    17    9   43 1   
    18    9   44 1   
    19    9   45 1   
    20   10   11 1   
    21   10   46 1   
    22   10   47 1   
    23   11   12 1   
    24   11   48 1   
    25   11   49 1   
    26   12   50 1   
    27   12   51 1   
    28   13   14 2   
    29   13   27 1   
    30   14   15 1   
    31   14   18 1   
    32   15   16 1   
    33   15   17 1   
    34   15   52 1   
    35   16   53 1   
    36   16   54 1   
    37   16   55 1   
    38   17   56 1   
    39   17   57 1   
    40   17   58 1   
    41   18   19 1   
    42   18   28 1   
    43   19   20 1   
    44   19   30 1   
    45   19   59 1   
    46   20   21 ar  
    47   20   23 ar  
    48   21   22 ar  
    49   21   60 1   
    50   22   25 ar  
    51   22   61 1   
    52   23   24 ar  
    53   23   62 1   
    54   24   25 ar  
    55   24   63 1   
    56   25   26 1   
    57   27   28 1   
    58   28   29 2   
    59   29   30 1   
    60   30   31 1   
    61   30   32 1   
    62   31   64 1   
    63   31   65 1   
    64   31   66 1   
    65   32   33 ar  
    66   32   35 ar  
    67   33   34 ar  
    68   33   67 1   
    69   34   37 ar  
    70   34   68 1   
    71   35   36 ar  
    72   35   69 1   
    73   36   37 ar  
    74   36   70 1   
    75   37   38 1   
@<TRIPOS>SUBSTRUCTURE
     1 VZV         1 TEMP              0 ****  ****    0 ROOT
