@<TRIPOS>MOLECULE
VZV
   70    66     1     0     0
SMALL
bcc


@<TRIPOS>ATOM
      1 O43        -1.1360    1.5350    0.7270 o         1 VZV     -0.347000
      2 C42         0.0740    1.4930    0.7410 c1        1 VZV      0.403000
      3 N5          0.8080    1.5200    2.0510 n2        1 VZV     -0.311000
      4 C4          0.1870    1.5960    3.4470 c3        1 VZV      0.017000
      5 C6         -0.3690    2.8710    3.6530 c1        1 VZV      0.291000
      6 O10        -0.0510    3.7870    2.9380 o         1 VZV     -0.373000
      7 N7         -1.1920    3.1280    4.8460 n2        1 VZV     -0.329000
      8 C9         -2.4100    2.3820    5.0590 c3        1 VZV     -0.080000
      9 C8         -0.8670    4.2170    5.7100 c3        1 VZV     -0.080000
     10 C3          1.4190    1.2660    4.3820 c3        1 VZV     -0.160000
     11 C2          2.3250    0.8370    3.6190 c3        1 VZV     -0.166000
     12 C1          2.0820    1.4810    2.2270 c3        1 VZV     -0.028000
     13 C37         0.8440    1.2720   -0.5630 c2        1 VZV     -0.495000
     14 C38         0.1750    1.0520   -1.7090 c1        1 VZV      0.141000
     15 C39        -0.8790    2.0460   -2.1750 c2        1 VZV     -0.071000
     16 C41        -1.0290    1.9530   -3.6700 c3        1 VZV     -0.214000
     17 C40        -0.4220    3.5280   -1.7760 c3        1 VZV     -0.214000
     18 N35         0.9750    0.1660   -2.7830 n3        1 VZV     -0.260000
     19 C31         0.5680   -1.0930   -3.3400 c3        1 VZV      0.062000
     20 C24        -0.6900   -1.5010   -2.7990 c2        1 VZV     -0.094000
     21 C23        -1.3150   -0.7240   -1.8230 c2        1 VZV     -0.089000
     22 C22        -2.6180   -1.0560   -1.3820 c1        1 VZV     -0.122000
     23 C25        -1.3450   -2.5980   -3.3340 c1        1 VZV     -0.115000
     24 C26        -2.6440   -2.9280   -2.8940 c1        1 VZV     -0.129500
     25 C21        -3.2700   -2.1520   -1.9180 c1        1 VZV     -0.054500
     26 CL2        -4.9020   -2.5200   -1.4280 cl        1 VZV     -0.014000
     27 S36         2.1700    0.6580   -0.5340 ss        1 VZV      0.492000
     28 C34         2.2840   -0.1380   -2.1180 c2        1 VZV     -0.120000
     29 N33         2.6370   -1.3480   -2.1950 n1        1 VZV     -0.197000
     30 C32         1.7630   -2.1630   -2.9080 c2        1 VZV      0.052000
     31 C44         2.3130   -3.1120   -3.9400 c3        1 VZV     -0.206000
     32 C15         1.2180   -2.9450   -2.0180 c2        1 VZV     -0.062000
     33 C16         0.9880   -4.2950   -2.3280 c2        1 VZV     -0.115000
     34 C11         0.5980   -5.1880   -1.3210 c1        1 VZV     -0.127000
     35 C14         1.0590   -2.4970   -0.7100 c1        1 VZV     -0.092000
     36 C13         0.6690   -3.3880    0.2940 c1        1 VZV     -0.129500
     37 C12         0.4390   -4.7360   -0.0130 c1        1 VZV     -0.054500
     38 CL1         0.0000   -5.8710    1.2640 cl        1 VZV     -0.014000
     39 H1         -0.5760    1.0230    3.6420 h1        1 VZV      0.127000
     40 H2         -2.5030    1.6900    4.3560 h1        1 VZV      0.083167
     41 H3         -3.1800    2.9950    5.0200 h1        1 VZV      0.083167
     42 H4         -2.3780    1.9560    5.9290 h1        1 VZV      0.083167
     43 H5         -1.6110    4.8880    5.6990 h1        1 VZV      0.083167
     44 H6         -0.7450    3.8910    6.6050 h1        1 VZV      0.083167
     45 H7         -0.0130    4.6540    5.3910 h1        1 VZV      0.083167
     46 H8          1.1730    0.5770    5.0320 hc        1 VZV      0.099000
     47 H9          1.7390    2.1310    4.8740 hc        1 VZV      0.099000
     48 H10         3.1930    1.0980    3.9560 hc        1 VZV      0.095500
     49 H11         2.2730   -0.1200    3.5510 hc        1 VZV      0.095500
     50 H12         2.4440    2.3700    2.2090 h1        1 VZV      0.093500
     51 H13         2.4820    0.9610    1.5630 h1        1 VZV      0.093500
     52 H16        -1.7700    1.8300   -1.7320 ha        1 VZV      0.144000
     53 H17        -0.2010    2.1640   -4.0850 hc        1 VZV      0.084833
     54 H18        -1.7200    2.5870   -3.9700 hc        1 VZV      0.084833
     55 H19        -1.2870    1.0690   -3.9090 hc        1 VZV      0.084833
     56 H20         0.5520    3.5560   -1.6970 hc        1 VZV      0.084833
     57 H21        -0.8350    3.7800   -0.8990 hc        1 VZV      0.084833
     58 H22        -0.7000    4.1330   -2.4410 hc        1 VZV      0.084833
     59 H23         0.5090   -1.0260   -4.3230 h1        1 VZV      0.115000
     60 H24        -0.8440    0.0680   -1.4350 ha        1 VZV      0.150000
     61 H25        -3.0520   -0.5180   -0.7050 ha        1 VZV      0.153000
     62 H26        -0.8940   -3.1590   -4.0390 ha        1 VZV      0.135000
     63 H27        -3.1050   -3.7020   -3.2730 ha        1 VZV      0.148500
     64 H28         1.5970   -3.8150   -4.1770 hc        1 VZV      0.087667
     65 H29         3.1280   -3.5750   -3.5700 hc        1 VZV      0.087667
     66 H30         2.5570   -2.6130   -4.7430 hc        1 VZV      0.087667
     67 H31         1.1040   -4.6190   -3.2730 ha        1 VZV      0.133000
     68 H32         0.4320   -6.1630   -1.5450 ha        1 VZV      0.146000
     69 H33         1.2160   -1.5700   -0.4970 ha        1 VZV      0.158000
     70 H34         0.5580   -3.0730    1.2090 ha        1 VZV      0.148500
@<TRIPOS>BOND
     1    1    2 1   
     2    2   13 1   
     3    3    4 1   
     4    3   12 1   
     5    4    5 1   
     6    4   10 1   
     7    4   39 1   
     8    5    6 1   
     9    7    8 1   
    10    7    9 1   
    11    8   40 1   
    12    8   41 1   
    13    8   42 1   
    14    9   43 1   
    15    9   44 1   
    16    9   45 1   
    17   10   11 1   
    18   10   46 1   
    19   10   47 1   
    20   11   12 1   
    21   11   48 1   
    22   11   49 1   
    23   12   50 1   
    24   12   51 1   
    25   13   14 1   
    26   13   27 1   
    27   14   18 1   
    28   15   16 1   
    29   15   17 1   
    30   15   52 1   
    31   16   53 1   
    32   16   54 1   
    33   16   55 1   
    34   17   56 1   
    35   17   57 1   
    36   17   58 1   
    37   18   19 1   
    38   18   28 1   
    39   19   20 1   
    40   19   30 1   
    41   19   59 1   
    42   20   21 1   
    43   20   23 1   
    44   21   22 1   
    45   21   60 1   
    46   22   61 1   
    47   23   62 1   
    48   24   25 1   
    49   24   63 1   
    50   25   26 1   
    51   27   28 1   
    52   28   29 1   
    53   30   31 1   
    54   30   32 1   
    55   31   64 1   
    56   31   65 1   
    57   31   66 1   
    58   32   33 1   
    59   32   35 1   
    60   33   34 1   
    61   33   67 1   
    62   34   68 1   
    63   35   69 1   
    64   36   37 1   
    65   36   70 1   
    66   37   38 1   
@<TRIPOS>SUBSTRUCTURE
     1 VZV         1 TEMP              0 ****  ****    0 ROOT
