@<TRIPOS>MOLECULE
VZV
   70    74     1     0     0
SMALL
bcc


@<TRIPOS>ATOM
      1 O43        -3.5860   -1.3540    0.3480 o         1 VZV     -0.625100
      2 C42        -3.2950   -0.1400    0.4520 c         1 VZV      0.740700
      3 N5         -4.2440    0.7120    1.0000 n         1 VZV     -0.467800
      4 C4         -5.6100    0.2700    1.2340 c3        1 VZV      0.054700
      5 C6         -6.3890   -0.0610   -0.0610 c         1 VZV      0.647100
      6 O10        -6.0870    0.4500   -1.1550 o         1 VZV     -0.596100
      7 N7         -7.4970   -0.8960    0.0430 n         1 VZV     -0.474800
      8 C9         -8.1720   -1.3410   -1.1450 c3        1 VZV      0.076800
      9 C8         -7.7860   -1.6080    1.2540 c3        1 VZV      0.076800
     10 C3         -6.3300    1.4330    1.9570 c3        1 VZV     -0.083400
     11 C2         -5.4260    2.6520    1.8020 c3        1 VZV     -0.082400
     12 C1         -4.0980    2.1350    1.2200 c3        1 VZV      0.083000
     13 C37        -1.9840    0.3890    0.0730 cc        1 VZV     -0.233700
     14 C38        -1.0270   -0.3090   -0.6590 cd        1 VZV      0.139400
     15 C39        -1.2270   -1.6830   -1.2280 c3        1 VZV     -0.027400
     16 C41        -0.5760   -1.8760   -2.5800 c3        1 VZV     -0.094600
     17 C40        -0.7570   -2.7310   -0.2370 c3        1 VZV     -0.094600
     18 N35         0.1230    0.4380   -0.8370 na        1 VZV     -0.192100
     19 C31         1.4610    0.2510   -1.3910 c3        1 VZV      0.086300
     20 C24         2.2510   -0.8590   -0.7620 ca        1 VZV     -0.099300
     21 C23         2.9360   -1.7540   -1.5950 ca        1 VZV     -0.103000
     22 C22         3.6730   -2.8040   -1.0540 ca        1 VZV     -0.124000
     23 C25         2.3080   -1.0360    0.6250 ca        1 VZV     -0.103000
     24 C26         3.0420   -2.0850    1.1750 ca        1 VZV     -0.124000
     25 C21         3.7240   -2.9680    0.3340 ca        1 VZV      0.025400
     26 CL2         4.6190   -4.2500    0.9990 cl        1 VZV     -0.087400
     27 S36        -1.4640    1.9780    0.5070 ss        1 VZV     -0.068800
     28 C34         0.0560    1.7480   -0.2380 cc        1 VZV      0.116600
     29 N33         1.1210    2.4940   -0.3870 n2        1 VZV     -0.319200
     30 C32         2.1120    1.7310   -1.2000 c3        1 VZV      0.184500
     31 C44         2.2300    2.3530   -2.5990 c3        1 VZV     -0.088100
     32 C15         3.4860    1.6940   -0.5800 ca        1 VZV     -0.069300
     33 C16         4.5180    1.0240   -1.2540 ca        1 VZV     -0.104000
     34 C11         5.8160    1.0140   -0.7520 ca        1 VZV     -0.129500
     35 C14         3.7840    2.3600    0.6150 ca        1 VZV     -0.104000
     36 C13         5.0810    2.3540    1.1280 ca        1 VZV     -0.129500
     37 C12         6.0960    1.6830    0.4440 ca        1 VZV      0.021400
     38 CL1         7.6790    1.6770    1.0640 cl        1 VZV     -0.096400
     39 H1         -5.5560   -0.6550    1.8780 h1        1 VZV      0.086700
     40 H2         -7.9400   -2.4210   -1.3530 h1        1 VZV      0.042700
     41 H3         -9.2810   -1.2330   -1.0030 h1        1 VZV      0.042700
     42 H4         -7.8540   -0.7240   -2.0270 h1        1 VZV      0.042700
     43 H5         -7.0240   -2.4100    1.4540 h1        1 VZV      0.042700
     44 H6         -7.8000   -0.8950    2.1230 h1        1 VZV      0.042700
     45 H7         -8.7970   -2.0900    1.1750 h1        1 VZV      0.042700
     46 H8         -7.3380    1.6170    1.5140 hc        1 VZV      0.060200
     47 H9         -6.4670    1.1720    3.0360 hc        1 VZV      0.060200
     48 H10        -5.8830    3.3990    1.1070 hc        1 VZV      0.058200
     49 H11        -5.2530    3.1520    2.7860 hc        1 VZV      0.058200
     50 H12        -3.2650    2.3160    1.9620 h1        1 VZV      0.058700
     51 H13        -3.8580    2.6700    0.2570 h1        1 VZV      0.058700
     52 H16        -2.3460   -1.8100   -1.3660 hc        1 VZV      0.111700
     53 H17         0.5310   -2.0000   -2.4810 hc        1 VZV      0.044533
     54 H18        -0.9860   -2.8010   -3.0560 hc        1 VZV      0.044533
     55 H19        -0.7860   -1.0100   -3.2520 hc        1 VZV      0.044533
     56 H20        -1.3830   -2.6820    0.6880 hc        1 VZV      0.044533
     57 H21        -0.8660   -3.7470   -0.6890 hc        1 VZV      0.044533
     58 H22         0.3150   -2.5710    0.0350 hc        1 VZV      0.044533
     59 H23         1.3600    0.0540   -2.4980 h1        1 VZV      0.077700
     60 H24         2.8970   -1.6310   -2.6890 ha        1 VZV      0.142000
     61 H25         4.2100   -3.5000   -1.7170 ha        1 VZV      0.150500
     62 H26         1.7780   -0.3400    1.2940 ha        1 VZV      0.142000
     63 H27         3.0830   -2.2130    2.2680 ha        1 VZV      0.150500
     64 H28         1.2310    2.4030   -3.0960 hc        1 VZV      0.049367
     65 H29         2.6430    3.3880   -2.5220 hc        1 VZV      0.049367
     66 H30         2.9150    1.7410   -3.2320 hc        1 VZV      0.049367
     67 H31         4.3020    0.4820   -2.1880 ha        1 VZV      0.145500
     68 H32         6.6130    0.4810   -1.2930 ha        1 VZV      0.147000
     69 H33         3.0070    2.9080    1.1700 ha        1 VZV      0.145500
     70 H34         5.2990    2.8830    2.0680 ha        1 VZV      0.147000
@<TRIPOS>BOND
     1    1    2 2   
     2    2    3 1   
     3    2   13 1   
     4    3    4 1   
     5    3   12 1   
     6    4    5 1   
     7    4   10 1   
     8    4   39 1   
     9    5    6 2   
    10    5    7 1   
    11    7    8 1   
    12    7    9 1   
    13    8   40 1   
    14    8   41 1   
    15    8   42 1   
    16    9   43 1   
    17    9   44 1   
    18    9   45 1   
    19   10   11 1   
    20   10   46 1   
    21   10   47 1   
    22   11   12 1   
    23   11   48 1   
    24   11   49 1   
    25   12   50 1   
    26   12   51 1   
    27   13   14 2   
    28   13   27 1   
    29   14   15 1   
    30   14   18 1   
    31   15   16 1   
    32   15   17 1   
    33   15   52 1   
    34   16   53 1   
    35   16   54 1   
    36   16   55 1   
    37   17   56 1   
    38   17   57 1   
    39   17   58 1   
    40   18   19 1   
    41   18   28 1   
    42   19   20 1   
    43   19   30 1   
    44   19   59 1   
    45   20   21 ar  
    46   20   23 ar  
    47   21   22 ar  
    48   21   60 1   
    49   22   25 ar  
    50   22   61 1   
    51   23   24 ar  
    52   23   62 1   
    53   24   25 ar  
    54   24   63 1   
    55   25   26 1   
    56   27   28 1   
    57   28   29 2   
    58   29   30 1   
    59   30   31 1   
    60   30   32 1   
    61   31   64 1   
    62   31   65 1   
    63   31   66 1   
    64   32   33 ar  
    65   32   35 ar  
    66   33   34 ar  
    67   33   67 1   
    68   34   37 ar  
    69   34   68 1   
    70   35   36 ar  
    71   35   69 1   
    72   36   37 ar  
    73   36   70 1   
    74   37   38 1   
@<TRIPOS>SUBSTRUCTURE
     1 VZV         1 TEMP              0 ****  ****    0 ROOT
