@<TRIPOS>MOLECULE
VZZ
   38    37     1     0     0
SMALL
bcc


@<TRIPOS>ATOM
      1 O3          8.1380   -1.0030    0.9930 o         1 VZZ     -0.853300
      2 C12         8.1040   -0.0860    0.1220 c         1 VZZ      0.907600
      3 O4          9.0790    0.2070   -0.6290 o         1 VZZ     -0.853300
      4 C11         6.8150    0.7420   -0.0240 c3        1 VZZ     -0.194400
      5 C10         5.5940   -0.1440   -0.0500 c3        1 VZZ     -0.065400
      6 C9          4.3110    0.6590   -0.0040 c3        1 VZZ     -0.078400
      7 C8          3.0930   -0.2390   -0.0490 c3        1 VZZ     -0.078400
      8 C7          1.8100    0.5620    0.0080 c3        1 VZZ     -0.078400
      9 C6          0.5940   -0.3380   -0.0380 c3        1 VZZ     -0.079400
     10 C5         -0.6880    0.4640    0.0190 c3        1 VZZ     -0.078400
     11 C4         -1.9030   -0.4380   -0.0270 c3        1 VZZ     -0.078400
     12 C3         -3.1820    0.3700    0.0300 c3        1 VZZ     -0.085400
     13 C2         -4.3830   -0.5530   -0.0190 c3        1 VZZ      0.136400
     14 O2         -5.5410    0.3060    0.0400 os        1 VZZ     -0.414900
     15 C1         -6.7550   -0.3070    0.0090 c         1 VZZ      0.641700
     16 O1         -6.8080   -1.5380   -0.0680 o         1 VZZ     -0.542000
     17 S1         -8.0360    0.8450    0.0870 sh        1 VZZ     -0.207400
     18 H111        6.7590    1.4440    0.8470 hc        1 VZZ      0.018700
     19 H112        6.8710    1.3560   -0.9570 hc        1 VZZ      0.018700
     20 H101        5.6090   -0.7730   -0.9790 hc        1 VZZ      0.044200
     21 H102        5.6410   -0.8470    0.8240 hc        1 VZZ      0.044200
     22 H91         4.2880    1.2750    0.9330 hc        1 VZZ      0.026700
     23 H92         4.2820    1.3730   -0.8680 hc        1 VZZ      0.026700
     24 H81         3.1130   -0.8510   -0.9890 hc        1 VZZ      0.036700
     25 H82         3.1270   -0.9570    0.8130 hc        1 VZZ      0.036700
     26 H71         1.7900    1.1730    0.9490 hc        1 VZZ      0.035200
     27 H72         1.7780    1.2810   -0.8530 hc        1 VZZ      0.035200
     28 H61         0.6140   -0.9490   -0.9790 hc        1 VZZ      0.038200
     29 H62         0.6270   -1.0570    0.8220 hc        1 VZZ      0.038200
     30 H51        -0.7080    1.0740    0.9610 hc        1 VZZ      0.039700
     31 H52        -0.7210    1.1840   -0.8410 hc        1 VZZ      0.039700
     32 H41        -1.8830   -1.0470   -0.9690 hc        1 VZZ      0.042200
     33 H42        -1.8710   -1.1570    0.8340 hc        1 VZZ      0.042200
     34 H31        -3.2140    0.9780    0.9720 hc        1 VZZ      0.056200
     35 H32        -3.2250    1.0880   -0.8300 hc        1 VZZ      0.056200
     36 H21        -4.4230   -1.1440   -0.9710 h1        1 VZZ      0.054700
     37 H22        -4.4120   -1.2550    0.8550 h1        1 VZZ      0.054700
     38 HS1        -9.0390   -0.0240    0.0390 hs        1 VZZ      0.217800
@<TRIPOS>BOND
     1    1    2 1   
     2    2    3 1   
     3    2    4 1   
     4    4    5 1   
     5    4   18 1   
     6    4   19 1   
     7    5    6 1   
     8    5   20 1   
     9    5   21 1   
    10    6    7 1   
    11    6   22 1   
    12    6   23 1   
    13    7    8 1   
    14    7   24 1   
    15    7   25 1   
    16    8    9 1   
    17    8   26 1   
    18    8   27 1   
    19    9   10 1   
    20    9   28 1   
    21    9   29 1   
    22   10   11 1   
    23   10   30 1   
    24   10   31 1   
    25   11   12 1   
    26   11   32 1   
    27   11   33 1   
    28   12   13 1   
    29   12   34 1   
    30   12   35 1   
    31   13   14 1   
    32   13   36 1   
    33   13   37 1   
    34   14   15 1   
    35   15   16 2   
    36   15   17 1   
    37   17   38 1   
@<TRIPOS>SUBSTRUCTURE
     1 VZZ         1 TEMP              0 ****  ****    0 ROOT
