@<TRIPOS>MOLECULE
VZZ
   38    37     1     0     0
SMALL
bcc


@<TRIPOS>ATOM
      1 O3          0.2880    0.9340    0.1270 o         1 VZZ     -0.853300
      2 C12         1.2020    0.0630    0.0330 c         1 VZZ      0.907600
      3 O4          1.5500   -0.6950    0.9840 o         1 VZZ     -0.853300
      4 C11         1.9540   -0.0720   -1.3030 c3        1 VZZ     -0.194400
      5 C10         0.9990   -0.0890   -2.4710 c3        1 VZZ     -0.065400
      6 C9          1.7270   -0.0330   -3.7970 c3        1 VZZ     -0.078400
      7 C8          0.7600   -0.0690   -4.9620 c3        1 VZZ     -0.078400
      8 C7          1.4860   -0.0020   -6.2880 c3        1 VZZ     -0.078400
      9 C6          0.5180   -0.0390   -7.4510 c3        1 VZZ     -0.079400
     10 C5          1.2450    0.0280   -8.7770 c3        1 VZZ     -0.078400
     11 C4          0.2740   -0.0100   -9.9380 c3        1 VZZ     -0.078400
     12 C3          1.0070    0.0580  -11.2600 c3        1 VZZ     -0.085400
     13 C2          0.0160    0.0180  -12.4070 c3        1 VZZ      0.136400
     14 O2          0.8080    0.0860  -13.6120 os        1 VZZ     -0.414900
     15 C1          0.1260    0.0630  -14.7890 c         1 VZZ      0.641700
     16 O1         -1.1070   -0.0130  -14.7710 o         1 VZZ     -0.542000
     17 S1          1.2020    0.1520  -16.1330 sh        1 VZZ     -0.207400
     18 H111        2.6510    0.7990   -1.3920 hc        1 VZZ      0.018700
     19 H112        2.5700   -1.0060   -1.2890 hc        1 VZZ      0.018700
     20 H101        0.3730   -1.0190   -2.4270 hc        1 VZZ      0.044200
     21 H102        0.3000    0.7840   -2.3760 hc        1 VZZ      0.044200
     22 H91         2.4390   -0.8970   -3.8740 hc        1 VZZ      0.026700
     23 H92         2.3410    0.9050   -3.8490 hc        1 VZZ      0.026700
     24 H81         0.1510   -1.0090   -4.9140 hc        1 VZZ      0.036700
     25 H82         0.0450    0.7920   -4.8800 hc        1 VZZ      0.036700
     26 H71         2.2030   -0.8620   -6.3680 hc        1 VZZ      0.035200
     27 H72         2.0950    0.9390   -6.3360 hc        1 VZZ      0.035200
     28 H61        -0.1990    0.8210   -7.3700 hc        1 VZZ      0.038200
     29 H62        -0.0910   -0.9810   -7.4030 hc        1 VZZ      0.038200
     30 H51         1.8520    0.9700   -8.8250 hc        1 VZZ      0.039700
     31 H52         1.9610   -0.8320   -8.8570 hc        1 VZZ      0.039700
     32 H41        -0.4410    0.8510   -9.8580 hc        1 VZZ      0.042200
     33 H42        -0.3330   -0.9520   -9.8900 hc        1 VZZ      0.042200
     34 H31         1.7220   -0.8010  -11.3520 hc        1 VZZ      0.056200
     35 H32         1.6120    1.0000  -11.3200 hc        1 VZZ      0.056200
     36 H21        -0.5750   -0.9340  -12.4200 h1        1 VZZ      0.054700
     37 H22        -0.6860    0.8910  -12.3890 h1        1 VZZ      0.054700
     38 HS1         0.2760    0.1110  -17.0850 hs        1 VZZ      0.217800
@<TRIPOS>BOND
     1    1    2 1   
     2    2    3 1   
     3    2    4 1   
     4    4    5 1   
     5    4   18 1   
     6    4   19 1   
     7    5    6 1   
     8    5   20 1   
     9    5   21 1   
    10    6    7 1   
    11    6   22 1   
    12    6   23 1   
    13    7    8 1   
    14    7   24 1   
    15    7   25 1   
    16    8    9 1   
    17    8   26 1   
    18    8   27 1   
    19    9   10 1   
    20    9   28 1   
    21    9   29 1   
    22   10   11 1   
    23   10   30 1   
    24   10   31 1   
    25   11   12 1   
    26   11   32 1   
    27   11   33 1   
    28   12   13 1   
    29   12   34 1   
    30   12   35 1   
    31   13   14 1   
    32   13   36 1   
    33   13   37 1   
    34   14   15 1   
    35   15   16 2   
    36   15   17 1   
    37   17   38 1   
@<TRIPOS>SUBSTRUCTURE
     1 VZZ         1 TEMP              0 ****  ****    0 ROOT
