@<TRIPOS>MOLECULE
VZZ
   38    37     1     0     0
SMALL
bcc


@<TRIPOS>ATOM
      1 O3          0.2540   -1.0110    0.1140 o         1 VZZ     -0.853300
      2 C12         1.2030   -0.1790    0.0310 c         1 VZZ      0.907600
      3 O4          1.5830    0.5510    0.9920 o         1 VZZ     -0.853300
      4 C11         1.9590   -0.0570   -1.3040 c3        1 VZZ     -0.194400
      5 C10         1.0050    0.0170   -2.4700 c3        1 VZZ     -0.065400
      6 C9          1.7300   -0.0520   -3.7980 c3        1 VZZ     -0.078400
      7 C8          0.7650    0.0400   -4.9610 c3        1 VZZ     -0.078400
      8 C7          1.4870   -0.0390   -6.2890 c3        1 VZZ     -0.078400
      9 C6          0.5190    0.0540   -7.4500 c3        1 VZZ     -0.079400
     10 C5          1.2430   -0.0260   -8.7770 c3        1 VZZ     -0.078400
     11 C4          0.2740    0.0670   -9.9370 c3        1 VZZ     -0.078400
     12 C3          1.0030   -0.0130  -11.2610 c3        1 VZZ     -0.085400
     13 C2          0.0140    0.0840  -12.4060 c3        1 VZZ      0.136400
     14 O2          0.8010   -0.0020  -13.6120 os        1 VZZ     -0.414900
     15 C1          0.1200    0.0650  -14.7880 c         1 VZZ      0.641700
     16 O1         -1.1080    0.1920  -14.7680 o         1 VZZ     -0.542000
     17 S1          1.1910   -0.0500  -16.1340 sh        1 VZZ     -0.207400
     18 H111        2.6140    0.8500   -1.2780 hc        1 VZZ      0.018700
     19 H112        2.6200   -0.9550   -1.4050 hc        1 VZZ      0.018700
     20 H101        0.2700   -0.8280   -2.3860 hc        1 VZZ      0.044200
     21 H102        0.4180    0.9710   -2.4130 hc        1 VZZ      0.044200
     22 H91         2.3030   -1.0140   -3.8630 hc        1 VZZ      0.026700
     23 H92         2.4770    0.7820   -3.8640 hc        1 VZZ      0.026700
     24 H81         0.0140   -0.7910   -4.8900 hc        1 VZZ      0.036700
     25 H82         0.1950    1.0040   -4.8990 hc        1 VZZ      0.036700
     26 H71         2.0550   -1.0040   -6.3500 hc        1 VZZ      0.035200
     27 H72         2.2380    0.7910   -6.3580 hc        1 VZZ      0.035200
     28 H61        -0.0490    1.0190   -7.3880 hc        1 VZZ      0.038200
     29 H62        -0.2320   -0.7770   -7.3800 hc        1 VZZ      0.038200
     30 H51         1.9940    0.8040   -8.8470 hc        1 VZZ      0.039700
     31 H52         1.8100   -0.9920   -8.8380 hc        1 VZZ      0.039700
     32 H41        -0.2940    1.0330   -9.8760 hc        1 VZZ      0.042200
     33 H42        -0.4770   -0.7640   -9.8670 hc        1 VZZ      0.042200
     34 H31         1.5680   -0.9780  -11.3340 hc        1 VZZ      0.056200
     35 H32         1.7520    0.8170  -11.3420 hc        1 VZZ      0.056200
     36 H21        -0.7240   -0.7600  -12.3990 h1        1 VZZ      0.054700
     37 H22        -0.5380    1.0590  -12.4060 h1        1 VZZ      0.054700
     38 HS1         0.2670    0.0420  -17.0850 hs        1 VZZ      0.217800
@<TRIPOS>BOND
     1    1    2 1   
     2    2    3 1   
     3    2    4 1   
     4    4    5 1   
     5    4   18 1   
     6    4   19 1   
     7    5    6 1   
     8    5   20 1   
     9    5   21 1   
    10    6    7 1   
    11    6   22 1   
    12    6   23 1   
    13    7    8 1   
    14    7   24 1   
    15    7   25 1   
    16    8    9 1   
    17    8   26 1   
    18    8   27 1   
    19    9   10 1   
    20    9   28 1   
    21    9   29 1   
    22   10   11 1   
    23   10   30 1   
    24   10   31 1   
    25   11   12 1   
    26   11   32 1   
    27   11   33 1   
    28   12   13 1   
    29   12   34 1   
    30   12   35 1   
    31   13   14 1   
    32   13   36 1   
    33   13   37 1   
    34   14   15 1   
    35   15   16 2   
    36   15   17 1   
    37   17   38 1   
@<TRIPOS>SUBSTRUCTURE
     1 VZZ         1 TEMP              0 ****  ****    0 ROOT
