@<TRIPOS>MOLECULE
000
    8     7     1     0     0
SMALL
bcc


@<TRIPOS>ATOM
      1 C           0.0360   -0.0000   -0.0520 c         1 000      0.497100
      2 O           1.2870   -0.0040    0.0370 o         1 000     -0.563000
      3 OA         -0.6710   -0.0010    1.1760 os        1 000     -0.528900
      4 CB          0.1150   -0.0060    2.3410 c3        1 000      0.167700
      5 OXT        -0.7480    0.0040   -1.0260 o         1 000     -0.563000
      6 HB          0.7680    0.9020    2.3860 h1        1 000     -0.002967
      7 HBA         0.7620   -0.9170    2.3820 h1        1 000     -0.002967
      8 HBB        -0.6110   -0.0050    3.1930 h1        1 000     -0.002967
@<TRIPOS>BOND
     1    1    2 1   
     2    1    3 1   
     3    1    5 1   
     4    3    4 1   
     5    4    6 1   
     6    4    7 1   
     7    4    8 1   
@<TRIPOS>SUBSTRUCTURE
     1 000         1 TEMP              0 ****  ****    0 ROOT
