@<TRIPOS>MOLECULE
000
    9     8     1     0     0
SMALL
bcc


@<TRIPOS>ATOM
      1 C          -0.4440    0.1200    0.0000 c         1 000      0.760200
      2 O          -0.4390    1.3500   -0.0020 o         1 000     -0.587000
      3 OA          0.6390   -0.6920    0.0010 os        1 000     -0.384900
      4 CB          1.9000   -0.0050   -0.0000 c3        1 000      0.126700
      5 OXT        -1.5550   -0.6460    0.0020 oh        1 000     -0.552100
      6 HB          1.9880    0.6240   -0.9180 h1        1 000      0.059700
      7 HBA         1.9890    0.6260    0.9150 h1        1 000      0.059700
      8 HBB         2.6410   -0.8430    0.0010 h1        1 000      0.059700
      9 HXT        -2.3220   -0.0470    0.0010 ho        1 000      0.458000
@<TRIPOS>BOND
     1    1    2 2   
     2    1    3 1   
     3    1    5 1   
     4    3    4 1   
     5    4    6 1   
     6    4    7 1   
     7    4    8 1   
     8    5    9 1   
@<TRIPOS>SUBSTRUCTURE
     1 000         1 TEMP              0 ****  ****    0 ROOT
