@<TRIPOS>MOLECULE
000
    9     7     1     0     0
SMALL
bcc


@<TRIPOS>ATOM
      1 C           0.0970    0.0880   -0.9570 c1        1 000      0.391000
      2 O           0.7840    1.0160   -1.2410 o         1 000     -0.398000
      3 OA         -0.7880    0.1840    0.1130 os        1 000     -0.223000
      4 CB         -0.1460    0.1790    1.3890 c3        1 000     -0.063000
      5 OXT         0.1320   -1.0980   -1.7480 o         1 000     -0.261000
      6 HB          0.1790    1.0990    1.5990 h1        1 000      0.099000
      7 HBA         0.6340   -0.4550    1.3650 h1        1 000      0.099000
      8 HBB        -0.7910   -0.1160    2.0920 h1        1 000      0.099000
      9 HXT        -0.1010   -0.8970   -2.6120 ho        1 000      0.257000
@<TRIPOS>BOND
     1    1    2 1   
     2    1    3 1   
     3    3    4 1   
     4    4    6 1   
     5    4    7 1   
     6    4    8 1   
     7    5    9 1   
@<TRIPOS>SUBSTRUCTURE
     1 000         1 TEMP              0 ****  ****    0 ROOT
