@<TRIPOS>MOLECULE
000
    9     8     1     0     0
SMALL
bcc


@<TRIPOS>ATOM
      1 C           0.1080    0.0000    0.0160 c         1 000      0.760200
      2 O           1.3360   -0.0020   -0.0520 o         1 000     -0.587000
      3 OA         -0.6380   -0.0020    1.1440 os        1 000     -0.384900
      4 CB          0.1220   -0.0070    2.3630 c3        1 000      0.126700
      5 OXT        -0.7220    0.0050   -1.0480 oh        1 000     -0.552100
      6 HB          0.7540   -0.9250    2.4110 h1        1 000      0.059700
      7 HBA        -0.6700   -0.0070    3.1520 h1        1 000      0.059700
      8 HBB         0.7580    0.9090    2.4170 h1        1 000      0.059700
      9 HXT        -0.1690    0.0060   -1.8490 ho        1 000      0.458000
@<TRIPOS>BOND
     1    1    2 2   
     2    1    3 1   
     3    1    5 1   
     4    3    4 1   
     5    4    6 1   
     6    4    7 1   
     7    4    8 1   
     8    5    9 1   
@<TRIPOS>SUBSTRUCTURE
     1 000         1 TEMP              0 ****  ****    0 ROOT
