@<TRIPOS>MOLECULE
001
   87    90     1     0     0
SMALL
bcc


@<TRIPOS>ATOM
      1 C01        -0.0610   -1.2580   -3.2010 ca        1 001     -0.108300
      2 C02         0.0590    0.0230   -2.6650 ca        1 001     -0.193500
      3 C03         0.8560    0.9710   -3.3240 ca        1 001      0.137100
      4 C04         1.5420    0.6280   -4.5100 ca        1 001      0.059100
      5 C05         1.3840   -0.6710   -5.0400 ca        1 001      0.137100
      6 C06         0.5850   -1.6150   -4.3850 ca        1 001     -0.193500
      7 O03         1.0360    2.2630   -2.8900 os        1 001     -0.310900
      8 C07         0.3900    2.6140   -1.6660 c3        1 001      0.105200
      9 O04         2.4340    1.5290   -5.0550 os        1 001     -0.309900
     10 C08         2.0000    2.0960   -6.2940 c3        1 001      0.115700
     11 O05         2.0520   -0.9120   -6.2230 os        1 001     -0.310900
     12 C09         1.9400   -2.2290   -6.7530 c3        1 001      0.105200
     13 C10        -0.9350   -2.2780   -2.4800 c3        1 001      0.416900
     14 F10        -2.2650   -2.1760   -2.8380 f         1 001     -0.220300
     15 F11        -0.6650   -3.5870   -2.8320 f         1 001     -0.220300
     16 C11        -0.8020   -2.0560   -0.9290 c         1 001      0.623100
     17 O11        -1.7820   -1.5860   -0.3230 o         1 001     -0.576100
     18 N12         0.3990   -2.3160   -0.2950 n         1 001     -0.445800
     19 C12         1.3920   -3.1650   -0.9190 c3        1 001      0.094000
     20 C13         2.7830   -3.1300   -0.2960 c3        1 001     -0.088400
     21 C14         2.7070   -3.2090    1.2110 c3        1 001     -0.080400
     22 C15         1.8970   -2.0440    1.7250 c3        1 001     -0.084400
     23 C16         0.4790   -2.0270    1.1300 c3        1 001      0.071700
     24 C17        -0.0860   -0.6410    1.4620 c         1 001      0.646100
     25 O17         0.0090    0.4040    0.8180 o         1 001     -0.551000
     26 O18        -0.7030   -0.6510    2.6750 os        1 001     -0.433900
     27 C18        -1.2570    0.5850    3.1850 c3        1 001      0.146100
     28 C19        -0.8260    0.6710    4.6460 c3        1 001     -0.088400
     29 C20         0.6670    0.8790    4.7760 c3        1 001     -0.077400
     30 C21         1.0840    0.9310    6.2340 c3        1 001     -0.032100
     31 C22         2.5470    1.1350    6.3800 ca        1 001     -0.193600
     32 C23         3.3840    0.0870    6.8210 ca        1 001      0.393200
     33 N23         4.7150    0.2090    6.9780 nb        1 001     -0.663000
     34 C24         5.2650    1.4060    6.6960 ca        1 001      0.389200
     35 C25         4.5210    2.5140    6.2520 ca        1 001     -0.242300
     36 C26         3.1420    2.3700    6.0940 ca        1 001     -0.092000
     37 C27        -2.7750    0.5080    3.0600 c3        1 001     -0.093400
     38 C28        -3.2300    0.8370    1.6550 c3        1 001     -0.086400
     39 C29        -4.7110    0.5570    1.4820 c3        1 001     -0.030100
     40 C30        -5.1800    0.8730    0.1050 ca        1 001     -0.080300
     41 C31        -4.6630    0.1730   -0.9940 ca        1 001     -0.128000
     42 C32        -5.1170    0.4550   -2.2810 ca        1 001     -0.132000
     43 C33        -6.0890    1.4350   -2.4840 ca        1 001     -0.136000
     44 C34        -6.6060    2.1340   -1.3940 ca        1 001     -0.132000
     45 C35        -6.1540    1.8550   -0.1050 ca        1 001     -0.128000
     46 H021       -0.4600    0.2840   -1.7270 ha        1 001      0.164500
     47 H061        0.4590   -2.6300   -4.7890 ha        1 001      0.164500
     48 H071        0.7260    3.6680   -1.4980 h1        1 001      0.052200
     49 H072       -0.7200    2.5670   -1.7850 h1        1 001      0.052200
     50 H073        0.7240    1.9500   -0.8310 h1        1 001      0.052200
     51 H081        2.8410    2.7770   -6.5760 h1        1 001      0.043367
     52 H082        1.8590    1.2950   -7.0590 h1        1 001      0.043367
     53 H083        1.0550    2.6710   -6.1460 h1        1 001      0.043367
     54 H091        2.5690   -2.1870   -7.6790 h1        1 001      0.052200
     55 H092        2.3460   -2.9810   -6.0340 h1        1 001      0.052200
     56 H093        0.8780   -2.4610   -7.0090 h1        1 001      0.052200
     57 H121        1.0120   -4.2300   -0.8970 h1        1 001      0.054700
     58 H122        1.4870   -2.8550   -2.0020 h1        1 001      0.054700
     59 H131        3.3640   -3.9960   -0.7050 hc        1 001      0.060200
     60 H132        3.3130   -2.1890   -0.5990 hc        1 001      0.060200
     61 H141        2.2360   -4.1770    1.5240 hc        1 001      0.053700
     62 H142        3.7380   -3.1750    1.6500 hc        1 001      0.053700
     63 H151        1.7910   -2.0930    2.8400 hc        1 001      0.066700
     64 H152        2.4210   -1.0840    1.4700 hc        1 001      0.066700
     65 H161       -0.1560   -2.7900    1.6790 h1        1 001      0.083700
     66 H181       -0.8530    1.4580    2.6010 h1        1 001      0.080700
     67 H191       -1.3740    1.5250    5.1240 hc        1 001      0.055200
     68 H192       -1.1270   -0.2710    5.1740 hc        1 001      0.055200
     69 H201        1.2030    0.0410    4.2570 hc        1 001      0.047700
     70 H202        0.9660    1.8330    4.2660 hc        1 001      0.047700
     71 H211        0.5390    1.7700    6.7460 hc        1 001      0.051200
     72 H212        0.7760   -0.0220    6.7420 hc        1 001      0.051200
     73 H231        2.9610   -0.9050    7.0640 h4        1 001      0.021100
     74 H241        6.3590    1.4760    6.8340 h4        1 001      0.022100
     75 H251        5.0190    3.4680    6.0380 ha        1 001      0.144000
     76 H261        2.5260    3.2140    5.7490 ha        1 001      0.139000
     77 H271       -3.1120   -0.5240    3.3400 hc        1 001      0.052700
     78 H272       -3.2350    1.2270    3.7870 hc        1 001      0.052700
     79 H281       -3.0200    1.9150    1.4310 hc        1 001      0.058700
     80 H282       -2.6390    0.2220    0.9200 hc        1 001      0.058700
     81 H291       -4.9090   -0.5290    1.6930 hc        1 001      0.044700
     82 H292       -5.2920    1.1530    2.2350 hc        1 001      0.044700
     83 H311       -3.8910   -0.6000   -0.8390 ha        1 001      0.142000
     84 H321       -4.7050   -0.1010   -3.1360 ha        1 001      0.129500
     85 H331       -6.4460    1.6550   -3.5000 ha        1 001      0.127000
     86 H341       -7.3720    2.9070   -1.5500 ha        1 001      0.129500
     87 H351       -6.5660    2.4100    0.7500 ha        1 001      0.142000
@<TRIPOS>BOND
     1    1    2 ar  
     2    1    6 ar  
     3    1   13 1   
     4    2    3 ar  
     5    2   46 1   
     6    3    4 ar  
     7    3    7 1   
     8    4    5 ar  
     9    4    9 1   
    10    5    6 ar  
    11    5   11 1   
    12    6   47 1   
    13    7    8 1   
    14    8   48 1   
    15    8   49 1   
    16    8   50 1   
    17    9   10 1   
    18   10   51 1   
    19   10   52 1   
    20   10   53 1   
    21   11   12 1   
    22   12   54 1   
    23   12   55 1   
    24   12   56 1   
    25   13   14 1   
    26   13   15 1   
    27   13   16 1   
    28   16   17 2   
    29   16   18 1   
    30   18   19 1   
    31   18   23 1   
    32   19   20 1   
    33   19   57 1   
    34   19   58 1   
    35   20   21 1   
    36   20   59 1   
    37   20   60 1   
    38   21   22 1   
    39   21   61 1   
    40   21   62 1   
    41   22   23 1   
    42   22   63 1   
    43   22   64 1   
    44   23   24 1   
    45   23   65 1   
    46   24   25 2   
    47   24   26 1   
    48   26   27 1   
    49   27   28 1   
    50   27   37 1   
    51   27   66 1   
    52   28   29 1   
    53   28   67 1   
    54   28   68 1   
    55   29   30 1   
    56   29   69 1   
    57   29   70 1   
    58   30   31 1   
    59   30   71 1   
    60   30   72 1   
    61   31   32 ar  
    62   31   36 ar  
    63   32   33 ar  
    64   32   73 1   
    65   33   34 ar  
    66   34   35 ar  
    67   34   74 1   
    68   35   36 ar  
    69   35   75 1   
    70   36   76 1   
    71   37   38 1   
    72   37   77 1   
    73   37   78 1   
    74   38   39 1   
    75   38   79 1   
    76   38   80 1   
    77   39   40 1   
    78   39   81 1   
    79   39   82 1   
    80   40   41 ar  
    81   40   45 ar  
    82   41   42 ar  
    83   41   83 1   
    84   42   43 ar  
    85   42   84 1   
    86   43   44 ar  
    87   43   85 1   
    88   44   45 ar  
    89   44   86 1   
    90   45   87 1   
@<TRIPOS>SUBSTRUCTURE
     1 001         1 TEMP              0 ****  ****    0 ROOT
