@<TRIPOS>MOLECULE
001
   87    83     1     0     0
SMALL
bcc


@<TRIPOS>ATOM
      1 C01        -0.1870    0.3900    3.8500 c1        1 001     -0.130000
      2 C02         0.8470   -0.5280    3.9720 c1        1 001     -0.110000
      3 C03         1.5220   -0.6710    5.1940 c1        1 001      0.051000
      4 C04         1.1530    0.1110    6.2860 c1        1 001      0.031500
      5 C05         0.1210    1.0280    6.1630 c1        1 001      0.031500
      6 C06        -0.5530    1.1660    4.9330 c1        1 001     -0.125000
      7 O03         2.5300   -1.6760    5.3370 os        1 001     -0.224000
      8 C07         3.8800   -1.1460    5.4900 c3        1 001     -0.078000
      9 O04         1.7620   -0.0890    7.5210 os        1 001     -0.222000
     10 C08         1.1930   -1.1470    8.2810 c3        1 001     -0.073000
     11 O05        -0.1930    1.9030    7.2490 os        1 001     -0.222000
     12 C09        -1.4580    1.6390    7.8590 c3        1 001     -0.073000
     13 C10        -0.8270    0.6720    2.4260 c3        1 001      0.304000
     14 F10        -0.3050    1.7950    1.9170 f         1 001     -0.149000
     15 F11        -0.5640   -0.3460    1.6120 f         1 001     -0.149000
     16 C11        -2.3920    0.8380    2.5760 c2        1 001      0.285000
     17 O11        -2.9600    0.4240    3.6020 o         1 001     -0.303000
     18 N12        -3.1480    1.6650    1.5950 n         1 001     -0.299000
     19 C12        -4.5510    2.0260    1.7820 c3        1 001     -0.037000
     20 C13        -4.7830    3.4880    1.6730 c3        1 001     -0.191000
     21 C14        -4.2150    4.0670    0.4530 c3        1 001     -0.159000
     22 C15        -2.7900    3.7150    0.2650 c3        1 001     -0.180000
     23 C16        -2.5300    2.2020    0.3370 c3        1 001      0.031000
     24 C17        -1.0440    1.8560    0.2230 c2        1 001      0.307000
     25 O17        -0.2130    2.7530    0.1530 o         1 001     -0.350000
     26 O18        -0.6520    0.5110   -0.0190 os        1 001     -0.268000
     27 C18        -0.3890    0.2320   -1.3740 c3        1 001      0.045000
     28 C19        -0.3140   -1.3300   -1.5840 c3        1 001     -0.166000
     29 C20        -1.1250   -1.7250   -2.8240 c3        1 001     -0.157000
     30 C21        -0.7260   -3.2380   -3.2670 c3        1 001     -0.119000
     31 C22        -0.3860   -3.2600   -4.7380 c2        1 001     -0.120000
     32 C23        -0.6840   -4.3930   -5.5170 c2        1 001     -0.070000
     33 N23        -0.3780   -4.4040   -6.8590 n1        1 001     -0.138000
     34 C24         0.2140   -3.3170   -7.4280 c1        1 001     -0.129250
     35 C25         0.5110   -2.1830   -6.6430 c1        1 001     -0.129250
     36 C26         0.2070   -2.1730   -5.3120 c1        1 001     -0.092000
     37 C27         0.9010    0.8630   -1.7620 c3        1 001     -0.188000
     38 C28         1.0540    0.8170   -3.3120 c3        1 001     -0.149000
     39 C29         2.5070    1.0860   -3.6940 c3        1 001     -0.123000
     40 C30         3.0380   -0.0900   -4.5520 c2        1 001     -0.070000
     41 C31         3.4370   -1.2840   -3.9310 c2        1 001     -0.128000
     42 C32         4.0190   -2.2980   -4.6830 c1        1 001     -0.129000
     43 C33         4.2070   -2.1300   -6.0470 c1        1 001     -0.129250
     44 C34         3.8120   -0.9480   -6.6630 c1        1 001     -0.129250
     45 C35         3.2230    0.0770   -5.9030 c1        1 001     -0.128000
     46 H021        1.1010   -1.0670    3.2190 ha        1 001      0.180000
     47 H061       -1.2560    1.7910    4.8500 ha        1 001      0.166000
     48 H071        3.9560   -0.6830    6.3660 h1        1 001      0.087000
     49 H072        4.0660   -0.5090    4.7640 h1        1 001      0.087000
     50 H073        4.5390   -1.8960    5.4500 h1        1 001      0.087000
     51 H081        1.0730   -0.8450    9.2390 h1        1 001      0.088500
     52 H082        0.3200   -1.3890    7.9030 h1        1 001      0.088500
     53 H083        1.7800   -1.9150    8.2560 h1        1 001      0.088500
     54 H091       -2.1520    2.0900    7.3690 h1        1 001      0.088500
     55 H092       -1.4480    1.9670    8.7930 h1        1 001      0.088500
     56 H093       -1.6290    0.6710    7.8520 h1        1 001      0.088500
     57 H121       -5.0870    1.5700    1.1090 h1        1 001      0.110500
     58 H122       -4.8350    1.7290    2.6620 h1        1 001      0.110500
     59 H131       -5.7660    3.6620    1.6840 hc        1 001      0.094500
     60 H132       -4.3740    3.9310    2.4540 hc        1 001      0.094500
     61 H141       -4.7160    3.7510   -0.3030 hc        1 001      0.088000
     62 H142       -4.2930    5.0370    0.4980 hc        1 001      0.088000
     63 H151       -2.2580    4.1620    0.9700 hc        1 001      0.110000
     64 H152       -2.4980    4.0430   -0.6060 hc        1 001      0.110000
     65 H161       -2.8940    1.7430   -0.4620 h1        1 001      0.128000
     66 H181       -1.1030    0.5990   -1.9260 h1        1 001      0.110000
     67 H191       -0.6800   -1.7740   -0.8090 hc        1 001      0.101000
     68 H192        0.5880   -1.5920   -1.7000 hc        1 001      0.101000
     69 H201       -0.9290   -1.1120   -3.5510 hc        1 001      0.087500
     70 H202       -2.0860   -1.6870   -2.6130 hc        1 001      0.087500
     71 H211        0.0490   -3.5340   -2.7500 hc        1 001      0.091500
     72 H212       -1.4720   -3.8310   -3.0970 hc        1 001      0.091500
     73 H231       -1.1200   -5.1970   -5.0960 h4        1 001      0.158000
     74 H241        0.4350   -3.3190   -8.3850 ha        1 001      0.140250
     75 H251        0.9280   -1.4180   -7.0460 ha        1 001      0.140250
     76 H261        0.4240   -1.3470   -4.7420 ha        1 001      0.140000
     77 H271        1.6460    0.3790   -1.3400 hc        1 001      0.103000
     78 H272        0.9070    1.8180   -1.4550 hc        1 001      0.103000
     79 H281        0.4820    1.4970   -3.7150 hc        1 001      0.083500
     80 H282        0.7940   -0.0550   -3.6350 hc        1 001      0.083500
     81 H291        3.0540    1.1720   -2.8750 hc        1 001      0.091500
     82 H292        2.5600    1.9400   -4.2260 hc        1 001      0.091500
     83 H311        3.3040   -1.4050   -2.9630 ha        1 001      0.131000
     84 H321        4.3050   -3.1530   -4.2380 ha        1 001      0.130000
     85 H331        4.6360   -2.8770   -6.6010 ha        1 001      0.140250
     86 H341        3.9410   -0.8330   -7.5940 ha        1 001      0.140250
     87 H351        2.9380    0.9330   -6.3480 ha        1 001      0.133000
@<TRIPOS>BOND
     1    1    6 1   
     2    1   13 1   
     3    2    3 1   
     4    2   46 1   
     5    3    7 1   
     6    4    5 1   
     7    4    9 1   
     8    5   11 1   
     9    6   47 1   
    10    7    8 1   
    11    8   48 1   
    12    8   49 1   
    13    8   50 1   
    14    9   10 1   
    15   10   51 1   
    16   10   52 1   
    17   10   53 1   
    18   11   12 1   
    19   12   54 1   
    20   12   55 1   
    21   12   56 1   
    22   13   14 1   
    23   13   15 1   
    24   13   16 1   
    25   16   17 1   
    26   16   18 1   
    27   18   19 1   
    28   18   23 1   
    29   19   20 1   
    30   19   57 1   
    31   19   58 1   
    32   20   21 1   
    33   20   59 1   
    34   20   60 1   
    35   21   22 1   
    36   21   61 1   
    37   21   62 1   
    38   22   23 1   
    39   22   63 1   
    40   22   64 1   
    41   23   24 1   
    42   23   65 1   
    43   24   25 1   
    44   24   26 1   
    45   26   27 1   
    46   27   28 1   
    47   27   37 1   
    48   27   66 1   
    49   28   29 1   
    50   28   67 1   
    51   28   68 1   
    52   29   30 1   
    53   29   69 1   
    54   29   70 1   
    55   30   31 1   
    56   30   71 1   
    57   30   72 1   
    58   31   32 1   
    59   31   36 1   
    60   32   33 1   
    61   32   73 1   
    62   34   35 1   
    63   34   74 1   
    64   35   75 1   
    65   36   76 1   
    66   37   38 1   
    67   37   77 1   
    68   37   78 1   
    69   38   39 1   
    70   38   79 1   
    71   38   80 1   
    72   39   40 1   
    73   39   81 1   
    74   39   82 1   
    75   40   41 1   
    76   40   45 1   
    77   41   42 1   
    78   41   83 1   
    79   42   84 1   
    80   43   44 1   
    81   43   85 1   
    82   44   86 1   
    83   45   87 1   
@<TRIPOS>SUBSTRUCTURE
     1 001         1 TEMP              0 ****  ****    0 ROOT
