@<TRIPOS>MOLECULE
001
   87    90     1     0     0
SMALL
bcc


@<TRIPOS>ATOM
      1 C01        -1.2720   -0.4590   -0.2560 ca        1 001     -0.108300
      2 C02        -0.0530    0.1540   -0.5460 ca        1 001     -0.193500
      3 C03         1.0200    0.0020    0.3440 ca        1 001      0.137100
      4 C04         0.8670   -0.7520    1.5280 ca        1 001      0.059100
      5 C05        -0.3730   -1.3790    1.7840 ca        1 001      0.137100
      6 C06        -1.4420   -1.2310    0.8930 ca        1 001     -0.193500
      7 O03         2.2650    0.5530    0.1520 os        1 001     -0.310900
      8 C07         2.4260    1.3600   -1.0150 c3        1 001      0.105200
      9 O04         1.8890   -0.7630    2.4560 os        1 001     -0.309900
     10 C08         2.5570   -2.0220    2.5660 c3        1 001      0.115700
     11 O05        -0.4270   -2.1320    2.9390 os        1 001     -0.310900
     12 C09        -1.6810   -2.7390    3.2360 c3        1 001      0.105200
     13 C10        -2.4290   -0.2920   -1.2340 c3        1 001      0.416900
     14 F10        -2.3890   -1.2160   -2.2580 f         1 001     -0.220300
     15 F11        -3.6660   -0.5630   -0.6800 f         1 001     -0.220300
     16 C11        -2.3740    1.1560   -1.8460 c         1 001      0.623100
     17 O11        -2.0510    1.2700   -3.0420 o         1 001     -0.576100
     18 N12        -2.6120    2.2540   -1.0410 n         1 001     -0.445800
     19 C12        -3.3080    2.1060    0.2200 c3        1 001      0.094000
     20 C13        -3.2380    3.3020    1.1630 c3        1 001     -0.088400
     21 C14        -3.4910    4.5950    0.4230 c3        1 001     -0.080400
     22 C15        -2.4570    4.7510   -0.6640 c3        1 001     -0.084400
     23 C16        -2.4810    3.5710   -1.6490 c3        1 001      0.071700
     24 C17        -1.1880    3.6940   -2.4650 c         1 001      0.646100
     25 O17        -0.0730    3.2360   -2.2130 o         1 001     -0.551000
     26 O18        -1.3800    4.4810   -3.5580 os        1 001     -0.433900
     27 C18        -0.2550    4.7560   -4.4250 c3        1 001      0.146100
     28 C19        -0.3010    6.2530   -4.7150 c3        1 001     -0.088400
     29 C20         0.0050    7.0710   -3.4790 c3        1 001     -0.077400
     30 C21        -0.0750    8.5560   -3.7760 c3        1 001     -0.032100
     31 C22         0.2220    9.3740   -2.5730 ca        1 001     -0.193600
     32 C23        -0.8020   10.0830   -1.9080 ca        1 001      0.393200
     33 N23        -0.5980   10.8430   -0.8170 nb        1 001     -0.663000
     34 C24         0.6610   10.9240   -0.3450 ca        1 001      0.389200
     35 C25         1.7520   10.2600   -0.9340 ca        1 001     -0.242300
     36 C26         1.5230    9.4750   -2.0640 ca        1 001     -0.092000
     37 C27        -0.4330    3.9400   -5.7010 c3        1 001     -0.093400
     38 C28         0.0150    2.5080   -5.5070 c3        1 001     -0.086400
     39 C29        -0.3560    1.6540   -6.7040 c3        1 001     -0.030100
     40 C30         0.0750    0.2390   -6.5340 ca        1 001     -0.080300
     41 C31        -0.4550   -0.5390   -5.4970 ca        1 001     -0.128000
     42 C32        -0.0660   -1.8690   -5.3500 ca        1 001     -0.132000
     43 C33         0.8530   -2.4340   -6.2340 ca        1 001     -0.136000
     44 C34         1.3840   -1.6640   -7.2680 ca        1 001     -0.132000
     45 C35         0.9970   -0.3330   -7.4180 ca        1 001     -0.128000
     46 H021        0.0600    0.7610   -1.4610 ha        1 001      0.164500
     47 H061       -2.4120   -1.7120    1.0850 ha        1 001      0.164500
     48 H071        1.6990    2.2100   -1.0190 h1        1 001      0.052200
     49 H072        2.3090    0.7380   -1.9350 h1        1 001      0.052200
     50 H073        3.4770    1.7330   -0.9200 h1        1 001      0.052200
     51 H081        3.3270   -1.8390    3.3560 h1        1 001      0.043367
     52 H082        1.8380   -2.8160    2.8830 h1        1 001      0.043367
     53 H083        3.0380   -2.2910    1.5950 h1        1 001      0.043367
     54 H091       -1.9630   -3.4710    2.4410 h1        1 001      0.052200
     55 H092       -2.4760   -1.9640    3.3590 h1        1 001      0.052200
     56 H093       -1.4870   -3.2640    4.2070 h1        1 001      0.052200
     57 H121       -4.3940    1.8810    0.0020 h1        1 001      0.054700
     58 H122       -2.8710    1.2130    0.7580 h1        1 001      0.054700
     59 H131       -4.0060    3.1530    1.9650 hc        1 001      0.060200
     60 H132       -2.2320    3.3410    1.6570 hc        1 001      0.060200
     61 H141       -4.5220    4.5910   -0.0200 hc        1 001      0.053700
     62 H142       -3.4290    5.4620    1.1300 hc        1 001      0.053700
     63 H151       -2.6390    5.6850   -1.2580 hc        1 001      0.066700
     64 H152       -1.4370    4.8310   -0.2000 hc        1 001      0.066700
     65 H161       -3.3460    3.7130   -2.3690 h1        1 001      0.083700
     66 H181        0.7060    4.4820   -3.9080 h1        1 001      0.080700
     67 H191       -1.3160    6.5210   -5.1070 hc        1 001      0.055200
     68 H192        0.4500    6.4790   -5.5170 hc        1 001      0.055200
     69 H201       -0.7270    6.8050   -2.6700 hc        1 001      0.047700
     70 H202        1.0290    6.8190   -3.0980 hc        1 001      0.047700
     71 H211        0.6570    8.8130   -4.5890 hc        1 001      0.051200
     72 H212       -1.1000    8.8030   -4.1640 hc        1 001      0.051200
     73 H231       -1.8440   10.0390   -2.2730 h4        1 001      0.021100
     74 H241        0.7990   11.5560    0.5510 h4        1 001      0.022100
     75 H251        2.7600   10.3610   -0.5100 ha        1 001      0.144000
     76 H261        2.3500    8.9400   -2.5530 ha        1 001      0.139000
     77 H271       -1.5130    3.9660   -6.0030 hc        1 001      0.052700
     78 H272        0.1630    4.4180   -6.5220 hc        1 001      0.052700
     79 H281       -0.4670    2.0910   -4.5790 hc        1 001      0.058700
     80 H282        1.1240    2.4760   -5.3490 hc        1 001      0.058700
     81 H291       -1.4710    1.6790   -6.8450 hc        1 001      0.044700
     82 H292        0.1050    2.0900   -7.6300 hc        1 001      0.044700
     83 H311       -1.1780   -0.0960   -4.7910 ha        1 001      0.142000
     84 H321       -0.4880   -2.4720   -4.5320 ha        1 001      0.129500
     85 H331        1.1580   -3.4840   -6.1170 ha        1 001      0.127000
     86 H341        2.1080   -2.1050   -7.9670 ha        1 001      0.129500
     87 H351        1.4190    0.2700   -8.2360 ha        1 001      0.142000
@<TRIPOS>BOND
     1    1    2 ar  
     2    1    6 ar  
     3    1   13 1   
     4    2    3 ar  
     5    2   46 1   
     6    3    4 ar  
     7    3    7 1   
     8    4    5 ar  
     9    4    9 1   
    10    5    6 ar  
    11    5   11 1   
    12    6   47 1   
    13    7    8 1   
    14    8   48 1   
    15    8   49 1   
    16    8   50 1   
    17    9   10 1   
    18   10   51 1   
    19   10   52 1   
    20   10   53 1   
    21   11   12 1   
    22   12   54 1   
    23   12   55 1   
    24   12   56 1   
    25   13   14 1   
    26   13   15 1   
    27   13   16 1   
    28   16   17 2   
    29   16   18 1   
    30   18   19 1   
    31   18   23 1   
    32   19   20 1   
    33   19   57 1   
    34   19   58 1   
    35   20   21 1   
    36   20   59 1   
    37   20   60 1   
    38   21   22 1   
    39   21   61 1   
    40   21   62 1   
    41   22   23 1   
    42   22   63 1   
    43   22   64 1   
    44   23   24 1   
    45   23   65 1   
    46   24   25 2   
    47   24   26 1   
    48   26   27 1   
    49   27   28 1   
    50   27   37 1   
    51   27   66 1   
    52   28   29 1   
    53   28   67 1   
    54   28   68 1   
    55   29   30 1   
    56   29   69 1   
    57   29   70 1   
    58   30   31 1   
    59   30   71 1   
    60   30   72 1   
    61   31   32 ar  
    62   31   36 ar  
    63   32   33 ar  
    64   32   73 1   
    65   33   34 ar  
    66   34   35 ar  
    67   34   74 1   
    68   35   36 ar  
    69   35   75 1   
    70   36   76 1   
    71   37   38 1   
    72   37   77 1   
    73   37   78 1   
    74   38   39 1   
    75   38   79 1   
    76   38   80 1   
    77   39   40 1   
    78   39   81 1   
    79   39   82 1   
    80   40   41 ar  
    81   40   45 ar  
    82   41   42 ar  
    83   41   83 1   
    84   42   43 ar  
    85   42   84 1   
    86   43   44 ar  
    87   43   85 1   
    88   44   45 ar  
    89   44   86 1   
    90   45   87 1   
@<TRIPOS>SUBSTRUCTURE
     1 001         1 TEMP              0 ****  ****    0 ROOT
