@<TRIPOS>MOLECULE
001
   87    90     1     0     0
SMALL
bcc


@<TRIPOS>ATOM
      1 C01        -1.2680   -0.4680   -0.2740 ca        1 001     -0.108300
      2 C02        -0.0510    0.1480   -0.5580 ca        1 001     -0.193500
      3 C03         1.0220   -0.0060    0.3320 ca        1 001      0.137100
      4 C04         0.8680   -0.7670    1.5120 ca        1 001      0.059100
      5 C05        -0.3710   -1.3980    1.7620 ca        1 001      0.137100
      6 C06        -1.4390   -1.2460    0.8710 ca        1 001     -0.193500
      7 O03         2.2670    0.5480    0.1450 os        1 001     -0.310900
      8 C07         2.4270    1.3610   -1.0170 c3        1 001      0.105200
      9 O04         1.8890   -0.7810    2.4420 os        1 001     -0.309900
     10 C08         2.5590   -2.0390    2.5460 c3        1 001      0.115700
     11 O05        -0.4250   -2.1570    2.9140 os        1 001     -0.310900
     12 C09        -1.6780   -2.7680    3.2060 c3        1 001      0.105200
     13 C10        -2.4240   -0.2980   -1.2520 c3        1 001      0.416900
     14 F10        -2.3810   -1.2180   -2.2810 f         1 001     -0.220300
     15 F11        -3.6610   -0.5750   -0.7020 f         1 001     -0.220300
     16 C11        -2.3700    1.1520   -1.8570 c         1 001      0.623100
     17 O11        -2.0460    1.2730   -3.0520 o         1 001     -0.576100
     18 N12        -2.6120    2.2470   -1.0470 n         1 001     -0.445800
     19 C12        -3.3090    2.0910    0.2120 c3        1 001      0.094000
     20 C13        -3.2430    3.2830    1.1610 c3        1 001     -0.088400
     21 C14        -3.4980    4.5780    0.4270 c3        1 001     -0.080400
     22 C15        -2.4610    4.7420   -0.6580 c3        1 001     -0.084400
     23 C16        -2.4820    3.5670   -1.6490 c3        1 001      0.071700
     24 C17        -1.1880    3.6950   -2.4620 c         1 001      0.646100
     25 O17        -0.0730    3.2390   -2.2100 o         1 001     -0.551000
     26 O18        -1.3810    4.4870   -3.5520 os        1 001     -0.433900
     27 C18        -0.2550    4.7690   -4.4160 c3        1 001      0.146100
     28 C19        -0.3040    6.2670   -4.7000 c3        1 001     -0.088400
     29 C20        -0.0030    7.0800   -3.4600 c3        1 001     -0.077400
     30 C21        -0.0860    8.5670   -3.7520 c3        1 001     -0.032100
     31 C22         0.2070    9.3800   -2.5450 ca        1 001     -0.193600
     32 C23        -0.8190   10.0840   -1.8790 ca        1 001      0.393200
     33 N23        -0.6180   10.8410   -0.7840 nb        1 001     -0.663000
     34 C24         0.6400   10.9240   -0.3100 ca        1 001      0.389200
     35 C25         1.7340   10.2640   -0.9010 ca        1 001     -0.242300
     36 C26         1.5080    9.4830   -2.0340 ca        1 001     -0.092000
     37 C27        -0.4280    3.9570   -5.6960 c3        1 001     -0.093400
     38 C28         0.0230    2.5250   -5.5070 c3        1 001     -0.086400
     39 C29        -0.3430    1.6750   -6.7070 c3        1 001     -0.030100
     40 C30         0.0910    0.2610   -6.5420 ca        1 001     -0.080300
     41 C31        -0.4400   -0.5230   -5.5090 ca        1 001     -0.128000
     42 C32        -0.0480   -1.8530   -5.3670 ca        1 001     -0.132000
     43 C33         0.8750   -2.4120   -6.2510 ca        1 001     -0.136000
     44 C34         1.4060   -1.6360   -7.2800 ca        1 001     -0.132000
     45 C35         1.0170   -0.3050   -7.4260 ca        1 001     -0.128000
     46 H021        0.0640    0.7600   -1.4700 ha        1 001      0.164500
     47 H061       -2.4080   -1.7310    1.0600 ha        1 001      0.164500
     48 H071        1.6990    2.2100   -1.0180 h1        1 001      0.052200
     49 H072        2.3130    0.7440   -1.9410 h1        1 001      0.052200
     50 H073        3.4770    1.7360   -0.9180 h1        1 001      0.052200
     51 H081        1.8420   -2.8360    2.8580 h1        1 001      0.043367
     52 H082        3.3280   -1.8590    3.3380 h1        1 001      0.043367
     53 H083        3.0430   -2.3020    1.5750 h1        1 001      0.043367
     54 H091       -1.9580   -3.4960    2.4060 h1        1 001      0.052200
     55 H092       -2.4750   -1.9950    3.3310 h1        1 001      0.052200
     56 H093       -1.4850   -3.2970    4.1740 h1        1 001      0.052200
     57 H121       -2.8720    1.1960    0.7460 h1        1 001      0.054700
     58 H122       -4.3940    1.8650   -0.0090 h1        1 001      0.054700
     59 H131       -4.0120    3.1270    1.9610 hc        1 001      0.060200
     60 H132       -2.2370    3.3200    1.6560 hc        1 001      0.060200
     61 H141       -4.5270    4.5750   -0.0170 hc        1 001      0.053700
     62 H142       -3.4380    5.4420    1.1390 hc        1 001      0.053700
     63 H151       -2.6440    5.6780   -1.2460 hc        1 001      0.066700
     64 H152       -1.4430    4.8210   -0.1920 hc        1 001      0.066700
     65 H161       -3.3470    3.7110   -2.3690 h1        1 001      0.083700
     66 H181        0.7060    4.4950   -3.8980 h1        1 001      0.080700
     67 H191       -1.3190    6.5340   -5.0930 hc        1 001      0.055200
     68 H192        0.4470    6.4970   -5.5000 hc        1 001      0.055200
     69 H201        1.0220    6.8300   -3.0790 hc        1 001      0.047700
     70 H202       -0.7350    6.8090   -2.6540 hc        1 001      0.047700
     71 H211        0.6470    8.8280   -4.5630 hc        1 001      0.051200
     72 H212       -1.1110    8.8120   -4.1410 hc        1 001      0.051200
     73 H231       -1.8600   10.0390   -2.2460 h4        1 001      0.021100
     74 H241        0.7750   11.5520    0.5880 h4        1 001      0.022100
     75 H251        2.7400   10.3660   -0.4750 ha        1 001      0.144000
     76 H261        2.3370    8.9520   -2.5230 ha        1 001      0.139000
     77 H271        0.1670    4.4400   -6.5130 hc        1 001      0.052700
     78 H272       -1.5080    3.9810   -5.9990 hc        1 001      0.052700
     79 H281       -0.4590    2.1040   -4.5810 hc        1 001      0.058700
     80 H282        1.1320    2.4960   -5.3460 hc        1 001      0.058700
     81 H291       -1.4580    1.6980   -6.8500 hc        1 001      0.044700
     82 H292        0.1190    2.1170   -7.6310 hc        1 001      0.044700
     83 H311       -1.1660   -0.0840   -4.8040 ha        1 001      0.142000
     84 H321       -0.4700   -2.4600   -4.5530 ha        1 001      0.129500
     85 H331        1.1820   -3.4610   -6.1380 ha        1 001      0.127000
     86 H341        2.1340   -2.0720   -7.9800 ha        1 001      0.129500
     87 H351        1.4390    0.3020   -8.2410 ha        1 001      0.142000
@<TRIPOS>BOND
     1    1    2 ar  
     2    1    6 ar  
     3    1   13 1   
     4    2    3 ar  
     5    2   46 1   
     6    3    4 ar  
     7    3    7 1   
     8    4    5 ar  
     9    4    9 1   
    10    5    6 ar  
    11    5   11 1   
    12    6   47 1   
    13    7    8 1   
    14    8   48 1   
    15    8   49 1   
    16    8   50 1   
    17    9   10 1   
    18   10   51 1   
    19   10   52 1   
    20   10   53 1   
    21   11   12 1   
    22   12   54 1   
    23   12   55 1   
    24   12   56 1   
    25   13   14 1   
    26   13   15 1   
    27   13   16 1   
    28   16   17 2   
    29   16   18 1   
    30   18   19 1   
    31   18   23 1   
    32   19   20 1   
    33   19   57 1   
    34   19   58 1   
    35   20   21 1   
    36   20   59 1   
    37   20   60 1   
    38   21   22 1   
    39   21   61 1   
    40   21   62 1   
    41   22   23 1   
    42   22   63 1   
    43   22   64 1   
    44   23   24 1   
    45   23   65 1   
    46   24   25 2   
    47   24   26 1   
    48   26   27 1   
    49   27   28 1   
    50   27   37 1   
    51   27   66 1   
    52   28   29 1   
    53   28   67 1   
    54   28   68 1   
    55   29   30 1   
    56   29   69 1   
    57   29   70 1   
    58   30   31 1   
    59   30   71 1   
    60   30   72 1   
    61   31   32 ar  
    62   31   36 ar  
    63   32   33 ar  
    64   32   73 1   
    65   33   34 ar  
    66   34   35 ar  
    67   34   74 1   
    68   35   36 ar  
    69   35   75 1   
    70   36   76 1   
    71   37   38 1   
    72   37   77 1   
    73   37   78 1   
    74   38   39 1   
    75   38   79 1   
    76   38   80 1   
    77   39   40 1   
    78   39   81 1   
    79   39   82 1   
    80   40   41 ar  
    81   40   45 ar  
    82   41   42 ar  
    83   41   83 1   
    84   42   43 ar  
    85   42   84 1   
    86   43   44 ar  
    87   43   85 1   
    88   44   45 ar  
    89   44   86 1   
    90   45   87 1   
@<TRIPOS>SUBSTRUCTURE
     1 001         1 TEMP              0 ****  ****    0 ROOT
