@<TRIPOS>MOLECULE
001
   87    90     1     0     0
SMALL
bcc


@<TRIPOS>ATOM
      1 C01        -1.2690   -0.4640   -0.2650 ca        1 001     -0.108300
      2 C02        -0.0520    0.1530   -0.5480 ca        1 001     -0.193500
      3 C03         1.0190    0.0030    0.3450 ca        1 001      0.137100
      4 C04         0.8630   -0.7550    1.5280 ca        1 001      0.059100
      5 C05        -0.3750   -1.3860    1.7770 ca        1 001      0.137100
      6 C06        -1.4420   -1.2390    0.8820 ca        1 001     -0.193500
      7 O03         2.2630    0.5590    0.1600 os        1 001     -0.310900
      8 C07         2.4250    1.3690   -1.0040 c3        1 001      0.105200
      9 O04         1.8810   -0.7640    2.4600 os        1 001     -0.309900
     10 C08         2.5540   -2.0210    2.5690 c3        1 001      0.115700
     11 O05        -0.4320   -2.1420    2.9300 os        1 001     -0.310900
     12 C09        -1.6840   -2.7530    3.2210 c3        1 001      0.105200
     13 C10        -2.4230   -0.2990   -1.2460 c3        1 001      0.416900
     14 F10        -2.3760   -1.2220   -2.2720 f         1 001     -0.220300
     15 F11        -3.6610   -0.5750   -0.6980 f         1 001     -0.220300
     16 C11        -2.3700    1.1500   -1.8560 c         1 001      0.623100
     17 O11        -2.0430    1.2660   -3.0500 o         1 001     -0.576100
     18 N12        -2.6140    2.2470   -1.0500 n         1 001     -0.445800
     19 C12        -3.3140    2.0940    0.2080 c3        1 001      0.094000
     20 C13        -3.2530    3.2890    1.1520 c3        1 001     -0.088400
     21 C14        -3.5080    4.5820    0.4130 c3        1 001     -0.080400
     22 C15        -2.4690    4.7430   -0.6690 c3        1 001     -0.084400
     23 C16        -2.4850    3.5640   -1.6560 c3        1 001      0.071700
     24 C17        -1.1890    3.6920   -2.4660 c         1 001      0.646100
     25 O17        -0.0740    3.2370   -2.2100 o         1 001     -0.551000
     26 O18        -1.3790    4.4810   -3.5590 os        1 001     -0.433900
     27 C18        -0.2510    4.7610   -4.4210 c3        1 001      0.146100
     28 C19        -0.3000    6.2580   -4.7080 c3        1 001     -0.088400
     29 C20        -0.0020    7.0740   -3.4690 c3        1 001     -0.077400
     30 C21        -0.0850    8.5600   -3.7630 c3        1 001     -0.032100
     31 C22         0.2050    9.3760   -2.5580 ca        1 001     -0.193600
     32 C23        -0.8240   10.0790   -1.8940 ca        1 001      0.393200
     33 N23        -0.6250   10.8380   -0.8000 nb        1 001     -0.663000
     34 C24         0.6320   10.9240   -0.3250 ca        1 001      0.389200
     35 C25         1.7280   10.2650   -0.9130 ca        1 001     -0.242300
     36 C26         1.5050    9.4820   -2.0450 ca        1 001     -0.092000
     37 C27        -0.4220    3.9470   -5.6990 c3        1 001     -0.093400
     38 C28         0.0290    2.5150   -5.5060 c3        1 001     -0.086400
     39 C29        -0.3350    1.6630   -6.7060 c3        1 001     -0.030100
     40 C30         0.0990    0.2490   -6.5370 ca        1 001     -0.080300
     41 C31        -0.4330   -0.5330   -5.5030 ca        1 001     -0.128000
     42 C32        -0.0420   -1.8620   -5.3570 ca        1 001     -0.132000
     43 C33         0.8820   -2.4240   -6.2390 ca        1 001     -0.136000
     44 C34         1.4150   -1.6500   -7.2690 ca        1 001     -0.132000
     45 C35         1.0260   -0.3190   -7.4180 ca        1 001     -0.128000
     46 H021        0.0640    0.7630   -1.4610 ha        1 001      0.164500
     47 H061       -2.4110   -1.7240    1.0700 ha        1 001      0.164500
     48 H071        2.3140    0.7480   -1.9270 h1        1 001      0.052200
     49 H072        3.4750    1.7450   -0.9040 h1        1 001      0.052200
     50 H073        1.6960    2.2160   -1.0090 h1        1 001      0.052200
     51 H081        3.3200   -1.8370    3.3630 h1        1 001      0.043367
     52 H082        1.8370   -2.8180    2.8820 h1        1 001      0.043367
     53 H083        3.0400   -2.2850    1.6000 h1        1 001      0.043367
     54 H091       -1.9610   -3.4850    2.4230 h1        1 001      0.052200
     55 H092       -2.4830   -1.9820    3.3420 h1        1 001      0.052200
     56 H093       -1.4930   -3.2800    4.1910 h1        1 001      0.052200
     57 H121       -4.3990    1.8650   -0.0150 h1        1 001      0.054700
     58 H122       -2.8770    1.2020    0.7460 h1        1 001      0.054700
     59 H131       -4.0240    3.1360    1.9510 hc        1 001      0.060200
     60 H132       -2.2480    3.3300    1.6500 hc        1 001      0.060200
     61 H141       -4.5360    4.5750   -0.0340 hc        1 001      0.053700
     62 H142       -3.4520    5.4480    1.1220 hc        1 001      0.053700
     63 H151       -2.6520    5.6770   -1.2620 hc        1 001      0.066700
     64 H152       -1.4520    4.8260   -0.2010 hc        1 001      0.066700
     65 H161       -3.3480    3.7040   -2.3790 h1        1 001      0.083700
     66 H181        0.7080    4.4890   -3.9000 h1        1 001      0.080700
     67 H191       -1.3150    6.5240   -5.1030 hc        1 001      0.055200
     68 H192        0.4530    6.4880   -5.5060 hc        1 001      0.055200
     69 H201       -0.7360    6.8050   -2.6630 hc        1 001      0.047700
     70 H202        1.0220    6.8250   -3.0850 hc        1 001      0.047700
     71 H211       -1.1090    8.8050   -4.1550 hc        1 001      0.051200
     72 H212        0.6500    8.8200   -4.5730 hc        1 001      0.051200
     73 H231       -1.8640   10.0320   -2.2620 h4        1 001      0.021100
     74 H241        0.7650   11.5540    0.5730 h4        1 001      0.022100
     75 H251        2.7330   10.3700   -0.4860 ha        1 001      0.144000
     76 H261        2.3360    8.9520   -2.5330 ha        1 001      0.139000
     77 H271        0.1760    4.4280   -6.5160 hc        1 001      0.052700
     78 H272       -1.5000    3.9710   -6.0050 hc        1 001      0.052700
     79 H281       -0.4560    2.0960   -4.5810 hc        1 001      0.058700
     80 H282        1.1380    2.4860   -5.3430 hc        1 001      0.058700
     81 H291       -1.4490    1.6850   -6.8510 hc        1 001      0.044700
     82 H292        0.1300    2.1020   -7.6290 hc        1 001      0.044700
     83 H311       -1.1600   -0.0920   -4.8000 ha        1 001      0.142000
     84 H321       -0.4660   -2.4680   -4.5420 ha        1 001      0.129500
     85 H331        1.1890   -3.4730   -6.1230 ha        1 001      0.127000
     86 H341        2.1430   -2.0880   -7.9670 ha        1 001      0.129500
     87 H351        1.4490    0.2860   -8.2330 ha        1 001      0.142000
@<TRIPOS>BOND
     1    1    2 ar  
     2    1    6 ar  
     3    1   13 1   
     4    2    3 ar  
     5    2   46 1   
     6    3    4 ar  
     7    3    7 1   
     8    4    5 ar  
     9    4    9 1   
    10    5    6 ar  
    11    5   11 1   
    12    6   47 1   
    13    7    8 1   
    14    8   48 1   
    15    8   49 1   
    16    8   50 1   
    17    9   10 1   
    18   10   51 1   
    19   10   52 1   
    20   10   53 1   
    21   11   12 1   
    22   12   54 1   
    23   12   55 1   
    24   12   56 1   
    25   13   14 1   
    26   13   15 1   
    27   13   16 1   
    28   16   17 2   
    29   16   18 1   
    30   18   19 1   
    31   18   23 1   
    32   19   20 1   
    33   19   57 1   
    34   19   58 1   
    35   20   21 1   
    36   20   59 1   
    37   20   60 1   
    38   21   22 1   
    39   21   61 1   
    40   21   62 1   
    41   22   23 1   
    42   22   63 1   
    43   22   64 1   
    44   23   24 1   
    45   23   65 1   
    46   24   25 2   
    47   24   26 1   
    48   26   27 1   
    49   27   28 1   
    50   27   37 1   
    51   27   66 1   
    52   28   29 1   
    53   28   67 1   
    54   28   68 1   
    55   29   30 1   
    56   29   69 1   
    57   29   70 1   
    58   30   31 1   
    59   30   71 1   
    60   30   72 1   
    61   31   32 ar  
    62   31   36 ar  
    63   32   33 ar  
    64   32   73 1   
    65   33   34 ar  
    66   34   35 ar  
    67   34   74 1   
    68   35   36 ar  
    69   35   75 1   
    70   36   76 1   
    71   37   38 1   
    72   37   77 1   
    73   37   78 1   
    74   38   39 1   
    75   38   79 1   
    76   38   80 1   
    77   39   40 1   
    78   39   81 1   
    79   39   82 1   
    80   40   41 ar  
    81   40   45 ar  
    82   41   42 ar  
    83   41   83 1   
    84   42   43 ar  
    85   42   84 1   
    86   43   44 ar  
    87   43   85 1   
    88   44   45 ar  
    89   44   86 1   
    90   45   87 1   
@<TRIPOS>SUBSTRUCTURE
     1 001         1 TEMP              0 ****  ****    0 ROOT
