@<TRIPOS>MOLECULE
002
   66    66     1     0     0
SMALL
bcc


@<TRIPOS>ATOM
      1 C1         -1.1550    1.2980    0.1660 c3        1 002      0.013700
      2 C2         -1.5930    2.6990   -0.3250 c3        1 002     -0.058700
      3 C3         -2.7390    3.2710    0.4970 c3        1 002     -0.109400
      4 C4         -2.3900    3.4730    1.9480 c3        1 002     -0.086100
      5 C5          1.2330    0.7070    0.4680 c         1 002      0.647100
      6 C6         -2.2100    0.2340   -0.2620 c         1 002      0.627100
      7 C7         -4.4740   -0.6310    0.1780 c3        1 002     -0.067300
      8 C8         -4.8070   -1.9050    0.9560 c3        1 002     -0.061400
      9 C10         3.3830    1.1880   -0.7300 c3        1 002     -0.150400
     10 C11        -5.7010    0.3470    0.3200 c         1 002      0.907600
     11 C12        -1.9670    2.6820   -1.7920 c3        1 002     -0.095100
     12 N3          0.1520    0.9300   -0.3470 n         1 002     -0.528900
     13 O6         -2.0390   -0.4110   -1.3250 o         1 002     -0.662100
     14 O1         -5.5130    1.4670    0.8770 o         1 002     -0.829300
     15 O2          4.3650    3.2070    2.2130 oh        1 002     -0.432100
     16 C13        -3.7900   -3.0260    0.8090 c3        1 002     -0.066700
     17 C20        -4.2280   -4.2220    1.6330 c3        1 002     -0.090100
     18 C21        -3.5980   -3.4270   -0.6380 c3        1 002     -0.090100
     19 C22         2.4800    0.0960   -0.1820 c3        1 002     -0.128700
     20 C23         3.1780   -0.8180    0.8200 c3        1 002     -0.033100
     21 O4          1.2390    1.0360    1.6760 o         1 002     -0.639100
     22 N2         -3.2330   -0.0080    0.6160 n         1 002     -0.484900
     23 C14         4.0420   -1.8260    0.1450 ca        1 002     -0.088300
     24 C15         5.3770   -1.5310   -0.1560 ca        1 002     -0.124500
     25 C16         6.1840   -2.4870   -0.7710 ca        1 002     -0.134000
     26 C17         5.6660   -3.7410   -1.0930 ca        1 002     -0.135000
     27 C18         4.3360   -4.0390   -0.7970 ca        1 002     -0.134000
     28 C19         3.5260   -3.0870   -0.1810 ca        1 002     -0.124500
     29 H1         -1.0820    1.3340    1.2950 h1        1 002      0.098700
     30 H2         -0.7090    3.3890   -0.1920 hc        1 002      0.041700
     31 H31        -3.6640    2.6320    0.4110 hc        1 002      0.076700
     32 H32        -3.0040    4.2670    0.0480 hc        1 002      0.076700
     33 H41        -3.1670    4.1110    2.4360 hc        1 002      0.028367
     34 H42        -2.3600    2.4990    2.4950 hc        1 002      0.028367
     35 H43        -1.3970    3.9710    2.0610 hc        1 002      0.028367
     36 H7         -4.3860   -0.8900   -0.9170 h1        1 002      0.072700
     37 H81        -4.9220   -1.6610    2.0440 hc        1 002      0.051200
     38 H82        -5.8090   -2.2490    0.5780 hc        1 002      0.051200
     39 H101        4.0940    0.7190   -1.4660 hc        1 002      0.082700
     40 H102        2.7670    1.9490   -1.2800 hc        1 002      0.082700
     41 H121       -2.2260    3.7130   -2.1330 hc        1 002      0.039033
     42 H122       -1.1200    2.3050   -2.4140 hc        1 002      0.039033
     43 H123       -2.8510    2.0190   -1.9640 hc        1 002      0.039033
     44 HN3         0.1390    0.5170   -1.2560 hn        1 002      0.326500
     45 HO2         5.0830    3.7490    1.8310 ho        1 002      0.423000
     46 H13        -2.8000   -2.6690    1.2100 hc        1 002      0.041700
     47 H201       -3.4690   -5.0380    1.5700 hc        1 002      0.027533
     48 H202       -4.3510   -3.9330    2.7040 hc        1 002      0.027533
     49 H203       -5.2030   -4.6170    1.2590 hc        1 002      0.027533
     50 H211       -3.0990   -2.6000   -1.2020 hc        1 002      0.027533
     51 H212       -2.9580   -4.3400   -0.7070 hc        1 002      0.027533
     52 H213       -4.5810   -3.6450   -1.1190 hc        1 002      0.027533
     53 HN1         2.7160    2.5030    1.5510 hn        1 002      0.341500
     54 H22         2.1630   -0.5410   -1.0600 hc        1 002      0.078700
     55 H231        3.7880   -0.2000    1.5320 hc        1 002      0.069700
     56 H232        2.3950   -1.3420    1.4340 hc        1 002      0.069700
     57 HN2        -3.3920    0.6930    1.3180 hn        1 002      0.318500
     58 H15         5.7850   -0.5360    0.0910 ha        1 002      0.147500
     59 H16         7.2320   -2.2480   -1.0030 ha        1 002      0.128500
     60 H17         6.3040   -4.4940   -1.5770 ha        1 002      0.124000
     61 H18         3.9240   -5.0270   -1.0500 ha        1 002      0.128500
     62 H19         2.4770   -3.3260    0.0530 ha        1 002      0.147500
     63 C9          4.2370    1.8920    0.3030 c         1 002      0.598100
     64 O5         -6.7950   -0.0570   -0.1490 o         1 002     -0.829300
     65 N1          3.6110    2.8190    1.1810 n         1 002     -0.359400
     66 O3          5.4790    1.7980    0.2820 o         1 002     -0.599100
@<TRIPOS>BOND
     1    1    2 1   
     2    1    6 1   
     3    1   12 1   
     4    1   29 1   
     5    2    3 1   
     6    2   11 1   
     7    2   30 1   
     8    3    4 1   
     9    3   31 1   
    10    3   32 1   
    11    4   33 1   
    12    4   34 1   
    13    4   35 1   
    14    5   12 1   
    15    5   19 1   
    16    5   21 2   
    17    6   13 2   
    18    6   22 1   
    19    7    8 1   
    20    7   10 1   
    21    7   22 1   
    22    7   36 1   
    23    8   16 1   
    24    8   37 1   
    25    8   38 1   
    26    9   19 1   
    27    9   39 1   
    28    9   40 1   
    29    9   63 1   
    30   10   14 1   
    31   10   64 1   
    32   11   41 1   
    33   11   42 1   
    34   11   43 1   
    35   12   44 1   
    36   15   45 1   
    37   15   65 1   
    38   16   17 1   
    39   16   18 1   
    40   16   46 1   
    41   17   47 1   
    42   17   48 1   
    43   17   49 1   
    44   18   50 1   
    45   18   51 1   
    46   18   52 1   
    47   19   20 1   
    48   19   54 1   
    49   20   23 1   
    50   20   55 1   
    51   20   56 1   
    52   22   57 1   
    53   23   24 ar  
    54   23   28 ar  
    55   24   25 ar  
    56   24   58 1   
    57   25   26 ar  
    58   25   59 1   
    59   26   27 ar  
    60   26   60 1   
    61   27   28 ar  
    62   27   61 1   
    63   28   62 1   
    64   53   65 1   
    65   63   65 1   
    66   63   66 2   
@<TRIPOS>SUBSTRUCTURE
     1 002         1 TEMP              0 ****  ****    0 ROOT
