@<TRIPOS>MOLECULE
002
   66    62     1     0     0
SMALL
bcc


@<TRIPOS>ATOM
      1 C1         -2.0120    0.6790   -0.1800 c3        1 002     -0.019000
      2 C2         -3.5000    0.6180   -0.2500 c3        1 002     -0.098000
      3 C3         -4.0820    2.0020    0.0280 c3        1 002     -0.187000
      4 C4         -5.4210    2.1550   -0.7120 c3        1 002     -0.200000
      5 C5         -0.7680   -0.3640   -2.0630 c1        1 002      0.296000
      6 C6         -1.5690    0.7350    1.3050 c2        1 002      0.265000
      7 C7         -0.0020    1.6870    2.9610 c3        1 002     -0.088000
      8 C8          0.7210    2.9900    3.2550 c3        1 002     -0.144000
      9 C9         -0.1710   -3.5100   -3.8080 c1        1 002      0.243000
     10 C10        -0.0520   -1.9620   -3.8620 c2        1 002     -0.182000
     11 C11        -0.9220    1.3420    4.1290 c2        1 002      0.328000
     12 C12        -4.0110   -0.3580    0.7840 c3        1 002     -0.212000
     13 N3         -1.4610   -0.4760   -0.7920 n2        1 002     -0.324000
     14 O6         -1.8160   -0.2050    2.0520 o         1 002     -0.430000
     15 O1         -1.7330    2.1980    4.5620 o         1 002     -0.564000
     16 O2         -0.5710   -5.6090   -4.9460 oh        1 002     -0.242000
     17 C13         2.2190    2.7150    3.4500 c3        1 002     -0.113000
     18 C20         3.0060    3.8760    2.9560 c3        1 002     -0.201000
     19 C21         2.5080    2.5050    4.9340 c3        1 002     -0.201000
     20 N1         -0.3450   -4.2480   -5.0000 n3        1 002     -0.207000
     21 O3         -0.1500   -4.0740   -2.7520 o         1 002     -0.348000
     22 C22         0.2760   -1.4390   -2.4760 c3        1 002     -0.116000
     23 C23         1.6390   -0.8410   -2.4790 c3        1 002     -0.133000
     24 O4         -1.0070    0.5990   -2.8220 o         1 002     -0.400000
     25 N2         -0.7690    1.8290    1.7750 n         1 002     -0.299000
     26 O5         -0.8250    0.2230    4.7000 o         1 002     -0.564000
     27 C14         2.6260   -1.8490   -1.9520 c2        1 002     -0.070000
     28 C15         3.7130   -2.2070   -2.7200 c2        1 002     -0.126000
     29 C16         4.7440   -2.9500   -2.1600 c1        1 002     -0.130000
     30 C17         4.6790   -3.3280   -0.8420 c1        1 002     -0.131000
     31 C18         3.5850   -2.9670   -0.0690 c1        1 002     -0.131000
     32 C19         2.5640   -2.2320   -0.6220 c1        1 002     -0.121000
     33 H1         -1.6960    1.4810   -0.6480 h1        1 002      0.137000
     34 H2         -3.7680    0.3280   -1.1240 hc        1 002      0.087000
     35 H31        -4.2290    2.1080    0.9950 hc        1 002      0.116500
     36 H32        -3.4580    2.6870   -0.2850 hc        1 002      0.116500
     37 H41        -5.8080    3.0120   -0.4980 hc        1 002      0.065333
     38 H42        -6.0230    1.4530   -0.4380 hc        1 002      0.065333
     39 H43        -5.2700    2.0970   -1.6690 hc        1 002      0.065333
     40 H7          0.6420    0.9810    2.8410 h1        1 002      0.107000
     41 H81         0.5990    3.6030    2.5130 hc        1 002      0.092500
     42 H82         0.3560    3.3870    4.0670 hc        1 002      0.092500
     43 H101       -0.8960   -1.5800   -4.1630 ha        1 002      0.128500
     44 H102        0.6500   -1.7140   -4.4750 ha        1 002      0.128500
     45 H121       -3.9760    0.0570    1.6730 hc        1 002      0.078667
     46 H122       -4.9320   -0.6020    0.5750 hc        1 002      0.078667
     47 H123       -3.4440   -1.1710    0.7780 hc        1 002      0.078667
     48 HN3        -1.6010   -1.2940   -0.4240 hn        1 002      0.229000
     49 HO2        -0.8830   -5.8950   -5.7530 ho        1 002      0.224000
     50 H13         2.4720    1.9100    2.9480 hc        1 002      0.097000
     51 H201        3.9590    3.6680    3.0050 hc        1 002      0.063000
     52 H202        2.8130    4.6670    3.5170 hc        1 002      0.063000
     53 H203        2.7590    4.0670    2.0210 hc        1 002      0.063000
     54 H211        2.0700    3.2130    5.4550 hc        1 002      0.063000
     55 H212        2.1690    1.6500    5.2080 hc        1 002      0.063000
     56 H213        3.5070    2.5400    5.0910 hc        1 002      0.063000
     57 HN1        -0.3220   -3.8210   -5.8080 hn        1 002      0.246000
     58 H22         0.2490   -2.1980   -1.8210 hc        1 002      0.122000
     59 H231        1.6500   -0.0560   -1.9150 hc        1 002      0.113500
     60 H232        1.8790   -0.5950   -3.3770 hc        1 002      0.113500
     61 HN2        -0.6770    2.5770    1.2640 hn        1 002      0.236000
     62 H15         3.8140   -1.8380   -3.6140 ha        1 002      0.131000
     63 H16         5.5340   -3.2110   -2.7180 ha        1 002      0.127000
     64 H17         5.4150   -3.8570   -0.4430 ha        1 002      0.127500
     65 H18         3.5370   -3.2450    0.9000 ha        1 002      0.127500
     66 H19         1.8130   -1.9420   -0.0660 ha        1 002      0.137000
@<TRIPOS>BOND
     1    1    2 1   
     2    1    6 1   
     3    1   13 1   
     4    1   33 1   
     5    2    3 1   
     6    2   12 1   
     7    2   34 1   
     8    3    4 1   
     9    3   35 1   
    10    3   36 1   
    11    4   37 1   
    12    4   38 1   
    13    4   39 1   
    14    5   22 1   
    15    5   24 1   
    16    6   14 1   
    17    6   25 1   
    18    7    8 1   
    19    7   11 1   
    20    7   25 1   
    21    7   40 1   
    22    8   17 1   
    23    8   41 1   
    24    8   42 1   
    25    9   20 1   
    26    9   21 1   
    27   10   22 1   
    28   10   43 1   
    29   10   44 1   
    30   11   15 1   
    31   11   26 1   
    32   12   45 1   
    33   12   46 1   
    34   12   47 1   
    35   13   48 1   
    36   16   20 1   
    37   16   49 1   
    38   17   18 1   
    39   17   19 1   
    40   17   50 1   
    41   18   51 1   
    42   18   52 1   
    43   18   53 1   
    44   19   54 1   
    45   19   55 1   
    46   19   56 1   
    47   20   57 1   
    48   22   23 1   
    49   22   58 1   
    50   23   27 1   
    51   23   59 1   
    52   23   60 1   
    53   25   61 1   
    54   27   28 1   
    55   27   32 1   
    56   28   29 1   
    57   28   62 1   
    58   29   63 1   
    59   30   31 1   
    60   30   64 1   
    61   31   65 1   
    62   32   66 1   
@<TRIPOS>SUBSTRUCTURE
     1 002         1 TEMP              0 ****  ****    0 ROOT
