@<TRIPOS>MOLECULE
002
   69    59     1     0     0
SMALL
bcc


@<TRIPOS>ATOM
      1 C1         26.1440  243.7350  200.4420 c3        1 002     -0.226000
      2 C2         22.4540  241.5830  201.1720 c1        1 002     -0.182000
      3 C3         22.9500  242.6460  201.7470 c2        1 002     -0.175000
      4 C4         22.5380  244.0310  201.4330 c3        1 002     -0.194000
      5 C5         24.7090  242.6500  198.7180 c2        1 002      0.234000
      6 C6         27.4680  243.6590  201.1870 c2        1 002      0.177000
      7 C7         26.1700  245.5490  197.4550 c1        1 002     -0.180000
      8 C8         27.3510  245.7550  197.3480 c1        1 002     -0.113000
      9 C10       -52.5840 -558.5240 -453.7070 c2        1 002     -0.098000
     10 C11        22.0220  248.4090  197.9590 c1        1 002      0.431000
     11 C12        21.9420  240.5140  200.6470 c2        1 002     -0.146000
     12 N3         26.1120  242.9260  199.1980 n4        1 002     -0.118000
     13 O6         28.3530  242.8790  200.8510 o         1 002     -0.242000
     14 O1         22.7510  247.4990  198.2220 o         1 002     -0.215000
     15 O2        -55.7230 -557.7200 -455.0190 oh        1 002     -0.063000
     16 C13        28.7240  245.9920  197.1900 c2        1 002     -0.095000
     17 C20        27.9460  242.1130  196.7190 c3        1 002     -0.299000
     18 C21        29.3850  246.9960  197.7740 c2        1 002     -0.156000
     19 C22       -51.2710 -558.9170 -454.1050 c2        1 002     -0.081000
     20 C23       -50.8890 -558.9950 -455.3620 c1        1 002      0.095000
     21 O4         24.5810  242.2750  197.5690 o         1 002     -0.161000
     22 N2         24.8630  245.2300  197.6320 n3        1 002     -0.272000
     23 C14       -50.4310 -559.0150 -456.6090 c2        1 002     -0.185000
     24 C15       -50.9040 -562.9640 -461.3660 c2        1 002      0.078000
     25 C16       -50.6850 -562.0070 -460.4930 c1        1 002     -0.188000
     26 C17       -50.4790 -561.0910 -459.6640 c1        1 002      0.119000
     27 C18       -50.2360 -560.0820 -458.8150 c2        1 002     -0.192000
     28 C19       -50.6560 -560.1040 -457.4790 c2        1 002      0.197000
     29 H1         25.3290  243.3770  201.1440 hx        1 002      0.174500
     30 H2         22.3670  240.0110  199.7650 ha        1 002      0.150500
     31 H31        25.9270  244.8140  200.1750 hx        1 002      0.174500
     32 H32        23.6690  242.5360  202.5810 ha        1 002      0.138000
     33 H41        21.9320  244.0890  200.4970 hc        1 002      0.089333
     34 H42        21.9140  244.4320  202.2740 hc        1 002      0.089333
     35 H43        23.4350  244.6950  201.3240 hc        1 002      0.089333
     36 H7         24.4450  244.9430  196.7590 hn        1 002      0.204500
     37 H81        24.3190  243.1060  195.3180 ha        1 002      0.002125
     38 H82        24.9940  243.1010  195.3750 ha        1 002      0.002125
     39 H101       23.9290  242.8170  199.5020 hx        1 002      0.238000
     40 H102      -52.7930 -558.3850 -452.6370 ha        1 002      0.178000
     41 H121       24.0720  246.9930  200.0990 ha        1 002      0.002125
     42 H122       24.4380  246.4740  200.3360 ha        1 002      0.002125
     43 H123       21.0370  240.0420  201.0630 ha        1 002      0.150500
     44 HN3        26.6050  242.0300  199.3630 hn        1 002      0.273000
     45 HO2       -56.5290 -557.4100 -454.5170 ho        1 002      0.290000
     46 H13        29.2380  245.2850  196.5100 ha        1 002      0.153000
     47 H201       28.2100  241.5600  197.6490 hc        1 002      0.075500
     48 H202       28.2040  243.1910  196.8310 hc        1 002      0.075500
     49 H203       26.8600  242.0030  196.4990 hc        1 002      0.075500
     50 H211       30.4610  247.1470  197.6070 ha        1 002      0.131500
     51 H212       28.5300  241.6900  195.8710 hc        1 002      0.075500
     52 H213       28.9070  247.7280  198.4390 ha        1 002      0.131500
     53 HN1        25.1940  246.0350  202.6090 ha        1 002      0.002125
     54 H22       -50.5490 -559.1790 -453.3020 ha        1 002      0.199000
     55 H231       28.6050  240.6440  199.9210 ha        1 002      0.002125
     56 H232       27.9490  240.5950  199.7550 ha        1 002      0.002125
     57 HN2        24.3520  246.0060  198.0260 hn        1 002      0.204500
     58 H15       -51.4430 -563.8900 -461.0950 ha        1 002      0.174000
     59 H16       -50.5570 -562.8840 -462.4130 ha        1 002      0.174000
     60 H17       -49.6930 -559.1930 -459.1960 ha        1 002      0.187000
     61 H18       -51.2010 -560.9900 -457.0930 ha        1 002      0.162000
     62 H19       -49.9110 -558.1180 -457.0050 ha        1 002      0.186000
     63 C9        -53.5620 -558.3370 -454.7240 c2        1 002      0.136000
     64 N1        -54.8120 -557.9250 -454.1950 n2        1 002      0.073000
     65 O3        -53.3480 -558.5200 -455.9590 o         1 002     -0.440000
     66 H321       26.6460  243.4150  198.4540 hn        1 002      0.273000
     67 H221       27.5320  244.3560  202.0490 h4        1 002      0.165000
     68 H12        25.4930  245.5020  202.3140 ha        1 002      0.002125
     69 O5         21.2990  249.3110  197.7040 o         1 002     -0.215000
@<TRIPOS>BOND
     1    1    6 1   
     2    1   12 1   
     3    1   29 1   
     4    1   31 1   
     5    2    3 1   
     6    2   11 1   
     7    3    4 1   
     8    3   32 1   
     9    4   33 1   
    10    4   34 1   
    11    4   35 1   
    12    5   12 1   
    13    5   21 1   
    14    5   39 1   
    15    6   13 1   
    16    6   67 1   
    17    7    8 1   
    18    7   22 1   
    19    8   16 1   
    20    9   19 1   
    21    9   40 1   
    22    9   63 1   
    23   10   14 1   
    24   10   69 1   
    25   11   30 1   
    26   11   43 1   
    27   12   44 1   
    28   12   66 1   
    29   15   45 1   
    30   15   64 1   
    31   16   18 1   
    32   16   46 1   
    33   17   47 1   
    34   17   48 1   
    35   17   49 1   
    36   17   51 1   
    37   18   50 1   
    38   18   52 1   
    39   19   20 1   
    40   19   54 1   
    41   20   23 1   
    42   22   36 1   
    43   22   57 1   
    44   23   28 1   
    45   23   62 1   
    46   24   25 1   
    47   24   58 1   
    48   24   59 1   
    49   25   26 1   
    50   26   27 1   
    51   27   28 1   
    52   27   60 1   
    53   28   61 1   
    54   37   38 1   
    55   41   42 1   
    56   53   68 1   
    57   55   56 1   
    58   63   64 1   
    59   63   65 1   
@<TRIPOS>SUBSTRUCTURE
     1 002         1 TEMP              0 ****  ****    0 ROOT
