@<TRIPOS>MOLECULE
003
   58    62     1     0     0
SMALL
bcc


@<TRIPOS>ATOM
      1 C2         -0.1630    0.1650    0.0740 c         1 003      0.815500
      2 O11        -0.8690    0.1620   -0.9590 o         1 003     -0.636500
      3 N3          1.2510    0.2050   -0.0430 n         1 003     -0.417300
      4 C7          1.8730    0.0650   -1.3440 c3        1 003      0.103000
      5 C8          2.3050   -1.3610   -1.7240 c3        1 003     -0.090700
      6 C10         1.1090   -2.2210   -2.0650 c3        1 003     -0.091100
      7 C9          3.2530   -1.2790   -2.9030 c3        1 003     -0.091100
      8 C4          2.0060    0.1100    1.1220 cc        1 003      0.460200
      9 N16         3.3720    0.0550    1.2660 nd        1 003     -0.527800
     10 N15         3.6050   -0.0050    2.5940 na        1 003      0.112400
     11 C23         4.9610    0.0280    3.1370 c3        1 003      0.098600
     12 C24         5.8870   -1.0050    2.5630 ca        1 003     -0.096300
     13 C29         6.6800   -0.7280    1.4090 ca        1 003     -0.005000
     14 C30         6.6050    0.4980    0.6900 ca        1 003     -0.113000
     15 C31         7.4010    0.7230   -0.4060 ca        1 003     -0.122000
     16 C32         8.3130   -0.2640   -0.8480 ca        1 003     -0.125000
     17 C33         8.4030   -1.4610   -0.1830 ca        1 003     -0.117000
     18 C28         7.5900   -1.7210    0.9550 ca        1 003     -0.042000
     19 C27         7.6750   -2.9650    1.6370 ca        1 003     -0.097000
     20 C26         6.8890   -3.2120    2.7340 ca        1 003     -0.137000
     21 C25         5.9920   -2.2250    3.1990 ca        1 003     -0.103000
     22 C14         2.4320    0.0120    3.3580 cd        1 003      0.045700
     23 C17         2.3600   -0.0610    4.8090 ca        1 003     -0.009000
     24 C22         2.9700   -1.1060    5.5190 ca        1 003     -0.212800
     25 C21         2.8430   -1.1290    6.9180 ca        1 003      0.393200
     26 N20         2.1660   -0.2000    7.6220 nb        1 003     -0.650000
     27 C19         1.5730    0.7880    6.9260 ca        1 003      0.393200
     28 C18         1.6360    0.9020    5.5240 ca        1 003     -0.212800
     29 C5          1.3670    0.0960    2.4360 cc        1 003     -0.354900
     30 C6         -0.0750    0.1670    2.5670 c         1 003      0.765100
     31 O13        -0.6900    0.2310    3.6460 o         1 003     -0.618500
     32 N1         -0.7870    0.1750    1.3460 n         1 003     -0.493400
     33 C12        -2.2310    0.2130    1.3490 c3        1 003      0.080300
     34 H7C1        2.7800    0.7340   -1.3500 h1        1 003      0.076700
     35 H7C2        1.1400    0.4410   -2.1150 h1        1 003      0.076700
     36 H8          2.8550   -1.8260   -0.8580 hc        1 003      0.063700
     37 H101        1.4330   -3.2690   -2.2710 hc        1 003      0.038200
     38 H102        0.5860   -1.8260   -2.9700 hc        1 003      0.038200
     39 H103        0.3770   -2.2310   -1.2210 hc        1 003      0.038200
     40 H9C1        4.1740   -0.7110   -2.6280 hc        1 003      0.038200
     41 H9C2        3.5520   -2.3070   -3.2210 hc        1 003      0.038200
     42 H9C3        2.7640   -0.7700   -3.7680 hc        1 003      0.038200
     43 H231        5.3820    1.0610    2.9650 h1        1 003      0.076200
     44 H232        4.8700   -0.1280    4.2520 h1        1 003      0.076200
     45 H25         5.3780   -2.4470    4.0860 ha        1 003      0.128000
     46 H30         5.8850    1.2680    1.0060 ha        1 003      0.140000
     47 H31         7.3350    1.6730   -0.9580 ha        1 003      0.135000
     48 H32         8.9420   -0.0600   -1.7270 ha        1 003      0.135000
     49 H33         9.1030   -2.2410   -0.5170 ha        1 003      0.134000
     50 H27         8.3820   -3.7230    1.2670 ha        1 003      0.137000
     51 H26         6.9470   -4.1740    3.2650 ha        1 003      0.138000
     52 H22         3.5140   -1.9050    4.9980 ha        1 003      0.155500
     53 H18         1.0980    1.7070    5.0020 ha        1 003      0.155500
     54 H21         3.3060   -1.9370    7.5120 h4        1 003      0.028600
     55 H19         1.0090    1.5280    7.5230 h4        1 003      0.028600
     56 H121       -2.6300   -0.6490    0.7500 h1        1 003      0.061700
     57 H122       -2.5840    1.1690    0.8770 h1        1 003      0.061700
     58 H123       -2.6070    0.1500    2.4040 h1        1 003      0.061700
@<TRIPOS>BOND
     1    1    2 2   
     2    1    3 1   
     3    1   32 1   
     4    3    4 1   
     5    3    8 1   
     6    4    5 1   
     7    4   34 1   
     8    4   35 1   
     9    5    6 1   
    10    5    7 1   
    11    5   36 1   
    12    6   37 1   
    13    6   38 1   
    14    6   39 1   
    15    7   40 1   
    16    7   41 1   
    17    7   42 1   
    18    8    9 2   
    19    8   29 1   
    20    9   10 1   
    21   10   11 1   
    22   10   22 1   
    23   11   12 1   
    24   11   43 1   
    25   11   44 1   
    26   12   13 ar  
    27   12   21 ar  
    28   13   14 ar  
    29   13   18 ar  
    30   14   15 ar  
    31   14   46 1   
    32   15   16 ar  
    33   15   47 1   
    34   16   17 ar  
    35   16   48 1   
    36   17   18 ar  
    37   17   49 1   
    38   18   19 ar  
    39   19   20 ar  
    40   19   50 1   
    41   20   21 ar  
    42   20   51 1   
    43   21   45 1   
    44   22   23 1   
    45   22   29 2   
    46   23   24 ar  
    47   23   28 ar  
    48   24   25 ar  
    49   24   52 1   
    50   25   26 ar  
    51   25   54 1   
    52   26   27 ar  
    53   27   28 ar  
    54   27   55 1   
    55   28   53 1   
    56   29   30 1   
    57   30   31 2   
    58   30   32 1   
    59   32   33 1   
    60   33   56 1   
    61   33   57 1   
    62   33   58 1   
@<TRIPOS>SUBSTRUCTURE
     1 003         1 TEMP              0 ****  ****    0 ROOT
