@<TRIPOS>MOLECULE
003
   58    62     1     0     0
SMALL
bcc


@<TRIPOS>ATOM
      1 C2         -0.1490   -2.2170   -2.4760 c         1 003      0.815500
      2 O11        -0.1440   -1.4260   -3.4450 o         1 003     -0.636500
      3 N3          0.1380   -1.7330   -1.1730 n         1 003     -0.417300
      4 C7          0.6070   -0.3740   -0.9940 c3        1 003      0.103000
      5 C8          2.1330   -0.1990   -0.9360 c3        1 003     -0.090700
      6 C10         2.7530   -0.3650   -2.3060 c3        1 003     -0.091100
      7 C9          2.4410    1.1750   -0.3770 c3        1 003     -0.091100
      8 C4          0.2170   -2.6560   -0.1350 cc        1 003      0.460200
      9 N16         0.5460   -2.4500    1.1840 nd        1 003     -0.527800
     10 N15         0.4520   -3.6550    1.7840 na        1 003      0.112400
     11 C23         0.6340   -3.8100    3.2260 c3        1 003      0.098600
     12 C24         1.9180   -3.2440    3.7560 ca        1 003     -0.096300
     13 C29         2.0000   -1.8930    4.2090 ca        1 003     -0.005000
     14 C30         0.9110   -0.9790    4.1310 ca        1 003     -0.113000
     15 C31         1.0350    0.3080    4.5940 ca        1 003     -0.122000
     16 C32         2.2530    0.7550    5.1590 ca        1 003     -0.125000
     17 C33         3.3250   -0.0980    5.2400 ca        1 003     -0.117000
     18 C28         3.2250   -1.4350    4.7660 ca        1 003     -0.042000
     19 C27         4.3380   -2.3150    4.8410 ca        1 003     -0.097000
     20 C26         4.2380   -3.6040    4.3830 ca        1 003     -0.137000
     21 C25         3.0200   -4.0690    3.8390 ca        1 003     -0.103000
     22 C14         0.0640   -4.6760    0.9080 cd        1 003      0.045700
     23 C17        -0.1030   -6.0790    1.2560 ca        1 003     -0.009000
     24 C22         0.9290   -6.8080    1.8650 ca        1 003     -0.212800
     25 C21         0.7100   -8.1650    2.1540 ca        1 003      0.393200
     26 N20        -0.4400   -8.8110    1.8780 nb        1 003     -0.650000
     27 C19        -1.4150   -8.1030    1.2800 ca        1 003      0.393200
     28 C18        -1.2990   -6.7410    0.9450 ca        1 003     -0.212800
     29 C5         -0.1090   -4.0640   -0.3520 cc        1 003     -0.354900
     30 C6         -0.5120   -4.5450   -1.6580 c         1 003      0.765100
     31 O13        -0.8730   -5.7090   -1.9090 o         1 003     -0.618500
     32 N1         -0.4890   -3.5770   -2.6860 n         1 003     -0.493400
     33 C12        -0.8410   -3.9450   -4.0380 c3        1 003      0.080300
     34 H7C1        0.1610    0.0060   -0.0300 h1        1 003      0.076700
     35 H7C2        0.2020    0.2420   -1.8480 h1        1 003      0.076700
     36 H8          2.5700   -0.9710   -0.2410 hc        1 003      0.063700
     37 H101        2.3960    0.4350   -2.9980 hc        1 003      0.038200
     38 H102        3.8660   -0.3050   -2.2350 hc        1 003      0.038200
     39 H103        2.4750   -1.3530   -2.7470 hc        1 003      0.038200
     40 H9C1        1.9750    1.9700   -1.0080 hc        1 003      0.038200
     41 H9C2        3.5460    1.3390   -0.3610 hc        1 003      0.038200
     42 H9C3        2.0530    1.2720    0.6650 hc        1 003      0.038200
     43 H231        0.5940   -4.9180    3.4420 h1        1 003      0.076200
     44 H232       -0.2450   -3.3250    3.7430 h1        1 003      0.076200
     45 H25         2.9660   -5.1110    3.4860 ha        1 003      0.128000
     46 H30        -0.0360   -1.3040    3.6740 ha        1 003      0.140000
     47 H31         0.1880    1.0080    4.5270 ha        1 003      0.135000
     48 H32         2.3260    1.7900    5.5250 ha        1 003      0.135000
     49 H33         4.2810    0.2370    5.6710 ha        1 003      0.134000
     50 H27         5.2800   -1.9400    5.2710 ha        1 003      0.137000
     51 H26         5.0970   -4.2900    4.4330 ha        1 003      0.138000
     52 H22         1.8980   -6.3420    2.0910 ha        1 003      0.155500
     53 H18        -2.1110   -6.2200    0.4190 ha        1 003      0.155500
     54 H21         1.5000   -8.7740    2.6300 h4        1 003      0.028600
     55 H19        -2.3420   -8.6590    1.0480 h4        1 003      0.028600
     56 H121       -0.0060   -3.6620   -4.7330 h1        1 003      0.061700
     57 H122       -1.7670   -3.3920   -4.3500 h1        1 003      0.061700
     58 H123       -1.0240   -5.0500   -4.0920 h1        1 003      0.061700
@<TRIPOS>BOND
     1    1    2 2   
     2    1    3 1   
     3    1   32 1   
     4    3    4 1   
     5    3    8 1   
     6    4    5 1   
     7    4   34 1   
     8    4   35 1   
     9    5    6 1   
    10    5    7 1   
    11    5   36 1   
    12    6   37 1   
    13    6   38 1   
    14    6   39 1   
    15    7   40 1   
    16    7   41 1   
    17    7   42 1   
    18    8    9 2   
    19    8   29 1   
    20    9   10 1   
    21   10   11 1   
    22   10   22 1   
    23   11   12 1   
    24   11   43 1   
    25   11   44 1   
    26   12   13 ar  
    27   12   21 ar  
    28   13   14 ar  
    29   13   18 ar  
    30   14   15 ar  
    31   14   46 1   
    32   15   16 ar  
    33   15   47 1   
    34   16   17 ar  
    35   16   48 1   
    36   17   18 ar  
    37   17   49 1   
    38   18   19 ar  
    39   19   20 ar  
    40   19   50 1   
    41   20   21 ar  
    42   20   51 1   
    43   21   45 1   
    44   22   23 1   
    45   22   29 2   
    46   23   24 ar  
    47   23   28 ar  
    48   24   25 ar  
    49   24   52 1   
    50   25   26 ar  
    51   25   54 1   
    52   26   27 ar  
    53   27   28 ar  
    54   27   55 1   
    55   28   53 1   
    56   29   30 1   
    57   30   31 2   
    58   30   32 1   
    59   32   33 1   
    60   33   56 1   
    61   33   57 1   
    62   33   58 1   
@<TRIPOS>SUBSTRUCTURE
     1 003         1 TEMP              0 ****  ****    0 ROOT
