@<TRIPOS>MOLECULE
003
   58    51     1     0     0
SMALL
bcc


@<TRIPOS>ATOM
      1 C2         -3.1880   -0.8210   -1.5340 c1        1 003      0.405000
      2 O11        -3.8210   -0.9550   -2.5720 o         1 003     -0.361000
      3 N3         -1.8220   -0.7040   -1.5780 n2        1 003     -0.235000
      4 C7         -1.1250   -0.7200   -2.8760 c3        1 003     -0.009000
      5 C8         -1.9950    0.0040   -3.9420 c3        1 003     -0.131000
      6 C10        -1.9900    1.5370   -3.6640 c3        1 003     -0.209000
      7 C9         -1.4250   -0.2630   -5.3360 c3        1 003     -0.209000
      8 C4         -1.1010   -0.6670   -0.4160 c1        1 003      0.058000
      9 N16         0.2610   -0.6780   -0.1760 n1        1 003     -0.096000
     10 N15         0.4550   -0.7660    1.1820 n2        1 003     -0.100000
     11 C23         1.8090   -0.8160    1.6940 c2        1 003      0.032000
     12 C24         2.7750   -0.1330    0.6780 c2        1 003     -0.100000
     13 C29         3.6090    1.0170    0.7710 c2        1 003     -0.012000
     14 C30         3.5790    1.8250    1.9430 c2        1 003     -0.130000
     15 C31         4.4030    2.9590    2.0370 c1        1 003     -0.114000
     16 C32         5.2590    3.2980    0.9740 c1        1 003     -0.109500
     17 C33         5.2900    2.5010   -0.1850 c1        1 003     -0.109500
     18 C28         4.4550    1.3500   -0.2820 c1        1 003     -0.043000
     19 C27         4.4850    0.5430   -1.4480 c2        1 003     -0.098000
     20 C26         3.6560   -0.5980   -1.5380 c1        1 003     -0.137000
     21 C25         2.8050   -0.9320   -0.4760 c1        1 003     -0.085000
     22 C14        -0.7660   -0.8090    1.7800 c2        1 003      0.071000
     23 C17        -1.0110   -0.8270    3.1690 c1        1 003     -0.014000
     24 C22        -0.9920    0.3410    3.8800 c1        1 003     -0.109500
     25 C21        -1.0950    0.3120    5.2710 c1        1 003     -0.109500
     26 N20        -1.2140   -0.8770    5.9220 n1        1 003     -0.124000
     27 C19        -1.2330   -2.0420    5.2160 c1        1 003     -0.075000
     28 C18        -1.1300   -2.0180    3.8220 c1        1 003     -0.171000
     29 C5         -1.7370   -0.7470    0.7800 c1        1 003     -0.268000
     30 C6         -3.1270   -0.8670    0.8230 c1        1 003      0.402000
     31 O13        -3.6960   -1.0010    1.8970 o         1 003     -0.347000
     32 N1         -3.8350   -0.9030   -0.3210 n2        1 003     -0.321000
     33 C12        -5.2710   -1.0410   -0.2770 c3        1 003     -0.075000
     34 H7C1       -0.9750   -1.6430   -3.1520 h1        1 003      0.114000
     35 H7C2       -0.2620   -0.2600   -2.7900 h1        1 003      0.114000
     36 H8         -2.9150   -0.3330   -3.8960 hc        1 003      0.106000
     37 H101       -1.0970    1.8140   -3.3690 hc        1 003      0.077000
     38 H102       -2.6420    1.7440   -2.9660 hc        1 003      0.077000
     39 H103       -2.2310    2.0260   -4.4970 hc        1 003      0.077000
     40 H9C1       -2.0280    0.1050   -6.0100 hc        1 003      0.077000
     41 H9C2       -1.3360   -1.2260   -5.4710 hc        1 003      0.077000
     42 H9C3       -0.5360    0.1660   -5.4170 hc        1 003      0.077000
     43 H231        1.8500   -0.3470    2.5490 ha        1 003      0.116000
     44 H232        2.0750   -1.7500    1.8220 ha        1 003      0.116000
     45 H25         2.2260   -1.7300   -0.5390 ha        1 003      0.139000
     46 H30         2.9800    1.5890    2.6880 ha        1 003      0.132000
     47 H31         4.3810    3.5200    2.8520 ha        1 003      0.136000
     48 H32         5.8330    4.0890    1.0400 ha        1 003      0.152250
     49 H33         5.8850    2.7380   -0.9250 ha        1 003      0.152250
     50 H27         5.0840    0.7770   -2.1950 ha        1 003      0.136000
     51 H26         3.6780   -1.1630   -2.3510 ha        1 003      0.138000
     52 H22        -0.9060    1.1980    3.4120 ha        1 003      0.152250
     53 H18        -1.1440   -2.8560    3.3140 ha        1 003      0.147000
     54 H21        -1.0810    1.1540    5.7830 ha        1 003      0.152250
     55 H19        -1.3190   -2.8960    5.6850 ha        1 003      0.164000
     56 H121       -5.6420   -0.4090    0.3850 h1        1 003      0.100667
     57 H122       -5.6420   -0.8470   -1.1540 h1        1 003      0.100667
     58 H123       -5.5050   -1.9640   -0.0170 h1        1 003      0.100667
@<TRIPOS>BOND
     1    1    2 1   
     2    1   32 1   
     3    3    4 1   
     4    3    8 1   
     5    4    5 1   
     6    4   34 1   
     7    4   35 1   
     8    5    6 1   
     9    5    7 1   
    10    5   36 1   
    11    6   37 1   
    12    6   38 1   
    13    6   39 1   
    14    7   40 1   
    15    7   41 1   
    16    7   42 1   
    17    9   10 1   
    18   10   22 1   
    19   11   12 1   
    20   11   43 1   
    21   11   44 1   
    22   12   13 1   
    23   12   21 1   
    24   13   14 1   
    25   13   18 1   
    26   14   15 1   
    27   14   46 1   
    28   15   47 1   
    29   16   17 1   
    30   16   48 1   
    31   17   49 1   
    32   18   19 1   
    33   19   20 1   
    34   19   50 1   
    35   20   51 1   
    36   21   45 1   
    37   22   23 1   
    38   22   29 1   
    39   23   28 1   
    40   24   25 1   
    41   24   52 1   
    42   25   54 1   
    43   26   27 1   
    44   27   55 1   
    45   28   53 1   
    46   29   30 1   
    47   30   31 1   
    48   32   33 1   
    49   33   56 1   
    50   33   57 1   
    51   33   58 1   
@<TRIPOS>SUBSTRUCTURE
     1 003         1 TEMP              0 ****  ****    0 ROOT
