@<TRIPOS>MOLECULE
003
   58    62     1     0     0
SMALL
bcc


@<TRIPOS>ATOM
      1 C2         -0.1540    0.1970    0.0700 c         1 003      0.815500
      2 O11        -0.8580    0.2040   -0.9640 o         1 003     -0.636500
      3 N3          1.2600    0.2260   -0.0440 n         1 003     -0.417300
      4 C7          1.8840    0.0840   -1.3440 c3        1 003      0.103000
      5 C8          2.3050   -1.3440   -1.7280 c3        1 003     -0.090700
      6 C10         1.1020   -2.1930   -2.0730 c3        1 003     -0.091100
      7 C9          3.2560   -1.2680   -2.9040 c3        1 003     -0.091100
      8 C4          2.0120    0.1210    1.1220 cc        1 003      0.460200
      9 N16         3.3780    0.0540    1.2680 nd        1 003     -0.527800
     10 N15         3.6080   -0.0110    2.5960 na        1 003      0.112400
     11 C23         4.9630    0.0070    3.1420 c3        1 003      0.098600
     12 C24         5.8810   -1.0310    2.5660 ca        1 003     -0.096300
     13 C29         6.6790   -0.7560    1.4150 ca        1 003     -0.005000
     14 C30         6.6170    0.4740    0.7010 ca        1 003     -0.113000
     15 C31         7.4170    0.6970   -0.3930 ca        1 003     -0.122000
     16 C32         8.3220   -0.2970   -0.8360 ca        1 003     -0.125000
     17 C33         8.4000   -1.4970   -0.1760 ca        1 003     -0.117000
     18 C28         7.5820   -1.7550    0.9590 ca        1 003     -0.042000
     19 C27         7.6550   -3.0020    1.6360 ca        1 003     -0.097000
     20 C26         6.8640   -3.2470    2.7300 ca        1 003     -0.137000
     21 C25         5.9740   -2.2540    3.1960 ca        1 003     -0.103000
     22 C14         2.4330    0.0130    3.3580 cd        1 003      0.045700
     23 C17         2.3590   -0.0630    4.8090 ca        1 003     -0.009000
     24 C22         2.9580   -1.1150    5.5170 ca        1 003     -0.212800
     25 C21         2.8290   -1.1390    6.9170 ca        1 003      0.393200
     26 N20         2.1580   -0.2070    7.6210 nb        1 003     -0.650000
     27 C19         1.5750    0.7880    6.9260 ca        1 003      0.393200
     28 C18         1.6410    0.9050    5.5250 ca        1 003     -0.212800
     29 C5          1.3710    0.1090    2.4340 cc        1 003     -0.354900
     30 C6         -0.0700    0.1930    2.5630 c         1 003      0.765100
     31 O13        -0.6870    0.2590    3.6410 o         1 003     -0.618500
     32 N1         -0.7800    0.2090    1.3410 n         1 003     -0.493400
     33 C12        -2.2240    0.2600    1.3410 c3        1 003      0.080300
     34 H7C1        2.7970    0.7460   -1.3470 h1        1 003      0.076700
     35 H7C2        1.1550    0.4680   -2.1160 h1        1 003      0.076700
     36 H8          2.8490   -1.8160   -0.8620 hc        1 003      0.063700
     37 H101        1.4180   -3.2440   -2.2810 hc        1 003      0.038200
     38 H102        0.5840   -1.7910   -2.9780 hc        1 003      0.038200
     39 H103        0.3680   -2.2000   -1.2310 hc        1 003      0.038200
     40 H9C1        3.5470   -2.2970   -3.2250 hc        1 003      0.038200
     41 H9C2        4.1810   -0.7080   -2.6260 hc        1 003      0.038200
     42 H9C3        2.7730   -0.7520   -3.7690 hc        1 003      0.038200
     43 H231        5.3930    1.0380    2.9750 h1        1 003      0.076200
     44 H232        4.8690   -0.1510    4.2560 h1        1 003      0.076200
     45 H25         5.3560   -2.4750    4.0810 ha        1 003      0.128000
     46 H30         5.9030    1.2490    1.0180 ha        1 003      0.140000
     47 H31         7.3610    1.6490   -0.9400 ha        1 003      0.135000
     48 H32         8.9550   -0.0940   -1.7130 ha        1 003      0.135000
     49 H33         9.0950   -2.2820   -0.5110 ha        1 003      0.134000
     50 H27         8.3560   -3.7650    1.2640 ha        1 003      0.137000
     51 H26         6.9110   -4.2120    3.2570 ha        1 003      0.138000
     52 H22         3.4960   -1.9170    4.9960 ha        1 003      0.155500
     53 H18         1.1110    1.7150    5.0040 ha        1 003      0.155500
     54 H21         3.2840   -1.9540    7.5090 h4        1 003      0.028600
     55 H19         1.0160    1.5310    7.5250 h4        1 003      0.028600
     56 H121       -2.5670    1.2210    0.8730 h1        1 003      0.061700
     57 H122       -2.6290   -0.5960    0.7380 h1        1 003      0.061700
     58 H123       -2.6020    0.1960    2.3950 h1        1 003      0.061700
@<TRIPOS>BOND
     1    1    2 2   
     2    1    3 1   
     3    1   32 1   
     4    3    4 1   
     5    3    8 1   
     6    4    5 1   
     7    4   34 1   
     8    4   35 1   
     9    5    6 1   
    10    5    7 1   
    11    5   36 1   
    12    6   37 1   
    13    6   38 1   
    14    6   39 1   
    15    7   40 1   
    16    7   41 1   
    17    7   42 1   
    18    8    9 2   
    19    8   29 1   
    20    9   10 1   
    21   10   11 1   
    22   10   22 1   
    23   11   12 1   
    24   11   43 1   
    25   11   44 1   
    26   12   13 ar  
    27   12   21 ar  
    28   13   14 ar  
    29   13   18 ar  
    30   14   15 ar  
    31   14   46 1   
    32   15   16 ar  
    33   15   47 1   
    34   16   17 ar  
    35   16   48 1   
    36   17   18 ar  
    37   17   49 1   
    38   18   19 ar  
    39   19   20 ar  
    40   19   50 1   
    41   20   21 ar  
    42   20   51 1   
    43   21   45 1   
    44   22   23 1   
    45   22   29 2   
    46   23   24 ar  
    47   23   28 ar  
    48   24   25 ar  
    49   24   52 1   
    50   25   26 ar  
    51   25   54 1   
    52   26   27 ar  
    53   27   28 ar  
    54   27   55 1   
    55   28   53 1   
    56   29   30 1   
    57   30   31 2   
    58   30   32 1   
    59   32   33 1   
    60   33   56 1   
    61   33   57 1   
    62   33   58 1   
@<TRIPOS>SUBSTRUCTURE
     1 003         1 TEMP              0 ****  ****    0 ROOT
