@<TRIPOS>MOLECULE
003
   58    62     1     0     0
SMALL
bcc


@<TRIPOS>ATOM
      1 C2         -0.1560    0.1980    0.0750 c         1 003      0.815500
      2 O11        -0.8620    0.2040   -0.9570 o         1 003     -0.636500
      3 N3          1.2580    0.2270   -0.0410 n         1 003     -0.417300
      4 C7          1.8790    0.0830   -1.3430 c3        1 003      0.103000
      5 C8          2.2990   -1.3450   -1.7260 c3        1 003     -0.090700
      6 C10         1.0950   -2.1940   -2.0690 c3        1 003     -0.091100
      7 C9          3.2480   -1.2700   -2.9040 c3        1 003     -0.091100
      8 C4          2.0120    0.1220    1.1240 cc        1 003      0.460200
      9 N16         3.3780    0.0540    1.2670 nd        1 003     -0.527800
     10 N15         3.6100   -0.0100    2.5950 na        1 003      0.112400
     11 C23         4.9660    0.0090    3.1390 c3        1 003      0.098600
     12 C24         5.8830   -1.0300    2.5620 ca        1 003     -0.096300
     13 C29         6.6790   -0.7560    1.4090 ca        1 003     -0.005000
     14 C30         6.6150    0.4720    0.6940 ca        1 003     -0.113000
     15 C31         7.4130    0.6930   -0.4020 ca        1 003     -0.122000
     16 C32         8.3180   -0.3000   -0.8460 ca        1 003     -0.125000
     17 C33         8.3970   -1.5000   -0.1840 ca        1 003     -0.117000
     18 C28         7.5810   -1.7560    0.9520 ca        1 003     -0.042000
     19 C27         7.6560   -3.0020    1.6310 ca        1 003     -0.097000
     20 C26         6.8670   -3.2460    2.7280 ca        1 003     -0.137000
     21 C25         5.9770   -2.2520    3.1940 ca        1 003     -0.103000
     22 C14         2.4370    0.0140    3.3590 cd        1 003      0.045700
     23 C17         2.3650   -0.0610    4.8100 ca        1 003     -0.009000
     24 C22         2.9650   -1.1130    5.5170 ca        1 003     -0.212800
     25 C21         2.8380   -1.1380    6.9170 ca        1 003      0.393200
     26 N20         2.1690   -0.2050    7.6220 nb        1 003     -0.650000
     27 C19         1.5850    0.7900    6.9290 ca        1 003      0.393200
     28 C18         1.6490    0.9070    5.5280 ca        1 003     -0.212800
     29 C5          1.3730    0.1100    2.4370 cc        1 003     -0.354900
     30 C6         -0.0680    0.1940    2.5680 c         1 003      0.765100
     31 O13        -0.6830    0.2610    3.6470 o         1 003     -0.618500
     32 N1         -0.7800    0.2100    1.3480 n         1 003     -0.493400
     33 C12        -2.2240    0.2620    1.3500 c3        1 003      0.080300
     34 H7C1        2.7920    0.7440   -1.3470 h1        1 003      0.076700
     35 H7C2        1.1490    0.4670   -2.1130 h1        1 003      0.076700
     36 H8          2.8440   -1.8170   -0.8600 hc        1 003      0.063700
     37 H101        1.4100   -3.2450   -2.2760 hc        1 003      0.038200
     38 H102        0.5760   -1.7930   -2.9730 hc        1 003      0.038200
     39 H103        0.3630   -2.2000   -1.2250 hc        1 003      0.038200
     40 H9C1        4.1740   -0.7110   -2.6280 hc        1 003      0.038200
     41 H9C2        3.5380   -2.3000   -3.2250 hc        1 003      0.038200
     42 H9C3        2.7640   -0.7540   -3.7680 hc        1 003      0.038200
     43 H231        5.3960    1.0390    2.9690 h1        1 003      0.076200
     44 H232        4.8740   -0.1490    4.2530 h1        1 003      0.076200
     45 H25         5.3620   -2.4720    4.0800 ha        1 003      0.128000
     46 H30         5.9020    1.2470    1.0110 ha        1 003      0.140000
     47 H31         7.3550    1.6460   -0.9510 ha        1 003      0.135000
     48 H32         8.9480   -0.0990   -1.7240 ha        1 003      0.135000
     49 H33         9.0910   -2.2850   -0.5200 ha        1 003      0.134000
     50 H27         8.3560   -3.7650    1.2590 ha        1 003      0.137000
     51 H26         6.9160   -4.2100    3.2560 ha        1 003      0.138000
     52 H22         3.5020   -1.9160    4.9950 ha        1 003      0.155500
     53 H18         1.1190    1.7170    5.0070 ha        1 003      0.155500
     54 H21         3.2940   -1.9530    7.5080 h4        1 003      0.028600
     55 H19         1.0280    1.5330    7.5280 h4        1 003      0.028600
     56 H121       -2.6300   -0.5960    0.7500 h1        1 003      0.061700
     57 H122       -2.5680    1.2210    0.8800 h1        1 003      0.061700
     58 H123       -2.6000    0.2000    2.4050 h1        1 003      0.061700
@<TRIPOS>BOND
     1    1    2 2   
     2    1    3 1   
     3    1   32 1   
     4    3    4 1   
     5    3    8 1   
     6    4    5 1   
     7    4   34 1   
     8    4   35 1   
     9    5    6 1   
    10    5    7 1   
    11    5   36 1   
    12    6   37 1   
    13    6   38 1   
    14    6   39 1   
    15    7   40 1   
    16    7   41 1   
    17    7   42 1   
    18    8    9 2   
    19    8   29 1   
    20    9   10 1   
    21   10   11 1   
    22   10   22 1   
    23   11   12 1   
    24   11   43 1   
    25   11   44 1   
    26   12   13 ar  
    27   12   21 ar  
    28   13   14 ar  
    29   13   18 ar  
    30   14   15 ar  
    31   14   46 1   
    32   15   16 ar  
    33   15   47 1   
    34   16   17 ar  
    35   16   48 1   
    36   17   18 ar  
    37   17   49 1   
    38   18   19 ar  
    39   19   20 ar  
    40   19   50 1   
    41   20   21 ar  
    42   20   51 1   
    43   21   45 1   
    44   22   23 1   
    45   22   29 2   
    46   23   24 ar  
    47   23   28 ar  
    48   24   25 ar  
    49   24   52 1   
    50   25   26 ar  
    51   25   54 1   
    52   26   27 ar  
    53   27   28 ar  
    54   27   55 1   
    55   28   53 1   
    56   29   30 1   
    57   30   31 2   
    58   30   32 1   
    59   32   33 1   
    60   33   56 1   
    61   33   57 1   
    62   33   58 1   
@<TRIPOS>SUBSTRUCTURE
     1 003         1 TEMP              0 ****  ****    0 ROOT
