@<TRIPOS>MOLECULE
004
   19    19     1     0     0
SMALL
bcc


@<TRIPOS>ATOM
      1 C          -1.9020   -0.0540   -0.4890 c         1 004      0.893600
      2 N          -1.2240   -1.3540    1.5660 n3        1 004     -0.882800
      3 O          -2.0780   -1.1210   -1.1450 o         1 004     -0.833300
      4 CA         -0.9870   -0.1400    0.7870 c3        1 004      0.045800
      5 CB          0.4530   -0.0250    0.3710 ca        1 004     -0.014300
      6 CE          3.1340    0.1730   -0.4200 ca        1 004     -0.161000
      7 CD1         2.6360    1.0040    0.5820 ca        1 004     -0.147000
      8 CD2         2.2890   -0.7530   -1.0340 ca        1 004     -0.147000
      9 CG1         1.3020    0.9050    0.9780 ca        1 004     -0.124000
     10 CG2         0.9560   -0.8530   -0.6440 ca        1 004     -0.124000
     11 OXT        -2.4280    1.0580   -0.7520 o         1 004     -0.833300
     12 HN         -2.2180   -1.4350    1.6960 hn        1 004      0.331300
     13 HNA        -0.9460   -2.1430    1.0060 hn        1 004      0.331300
     14 HA         -1.2490    0.7340    1.4510 h1        1 004      0.052700
     15 HE          4.1850    0.2510   -0.7300 ha        1 004      0.104000
     16 HD1         3.2960    1.7410    1.0610 ha        1 004      0.107500
     17 HD2         2.6750   -1.4020   -1.8320 ha        1 004      0.107500
     18 HG1         0.9130    1.5640    1.7670 ha        1 004      0.147000
     19 HG2         0.2610   -1.5520   -1.1420 ha        1 004      0.147000
@<TRIPOS>BOND
     1    1    3 1   
     2    1    4 1   
     3    1   11 1   
     4    2    4 1   
     5    2   12 1   
     6    2   13 1   
     7    4    5 1   
     8    4   14 1   
     9    5    9 ar  
    10    5   10 ar  
    11    6    7 ar  
    12    6    8 ar  
    13    6   15 1   
    14    7    9 ar  
    15    7   16 1   
    16    8   10 ar  
    17    8   17 1   
    18    9   18 1   
    19   10   19 1   
@<TRIPOS>SUBSTRUCTURE
     1 004         1 TEMP              0 ****  ****    0 ROOT
