@<TRIPOS>MOLECULE
005
   26    22     1     0     0
SMALL
bcc


@<TRIPOS>ATOM
      1 C          -2.8990    0.5290   -2.0910 c1        1 005      0.310000
      2 N          -1.3100   -1.4470   -0.5450 n3        1 005     -0.329000
      3 O          -3.3760    1.3960   -1.3120 o         1 005     -0.568500
      4 CA         -1.4040    0.3190   -2.1620 c2        1 005     -0.081000
      5 CD          1.1150   -0.0580    0.6320 c1        1 005     -0.074000
      6 CG          0.6190   -0.0480   -0.7970 c2        1 005     -0.129000
      7 CH          2.1480   -0.0360    3.2050 c1        1 005     -0.145500
      8 CB1        -0.8910   -0.1130   -0.8080 c3        1 005     -0.038000
      9 OB2        -0.7780    1.5220   -2.5400 oh        1 005     -0.371000
     10 CE1         1.7070   -1.1990    1.1510 c1        1 005     -0.074000
     11 CE2         1.0390    1.0940    1.4000 c2        1 005     -0.134500
     12 CZ1         2.2240   -1.1880    2.4380 c2        1 005     -0.134500
     13 CZ2         1.5560    1.1050    2.6860 c1        1 005     -0.145500
     14 OXT        -3.6660   -0.1460   -2.8260 o         1 005     -0.568500
     15 HN         -1.4460   -1.8860   -1.3370 hn        1 005      0.147000
     16 HNA        -2.0890   -1.4330   -0.0650 hn        1 005      0.147000
     17 HA         -1.2040   -0.3740   -2.8220 h4        1 005      0.077000
     18 HG          0.9820   -0.8210   -1.2740 ha        1 005      0.091000
     19 HGA         0.9130    0.7750   -1.2380 ha        1 005      0.091000
     20 HH          2.5360   -0.0200    4.1010 ha        1 005      0.114000
     21 HB1        -1.2470    0.4830   -0.1190 h1        1 005      0.094000
     22 HOB2       -1.0330    1.7430   -3.3630 ho        1 005      0.226000
     23 HE1         1.7380   -2.0180    0.6200 DU        1 005      0.129000
     24 HE2         0.6220    1.8970    1.0350 ha        1 005      0.125500
     25 HZ1         2.6410   -1.9910    2.8030 ha        1 005      0.125500
     26 HZ2         1.5030    1.9160    3.2270 ha        1 005      0.114000
@<TRIPOS>BOND
     1    1    3 1   
     2    1   14 1   
     3    2    8 1   
     4    2   15 1   
     5    2   16 1   
     6    4    8 1   
     7    4    9 1   
     8    4   17 1   
     9    5   10 1   
    10    5   11 1   
    11    6    8 1   
    12    6   18 1   
    13    6   19 1   
    14    7   12 1   
    15    7   20 1   
    16    8   21 1   
    17    9   22 1   
    18   10   12 1   
    19   11   13 1   
    20   11   24 1   
    21   12   25 1   
    22   13   26 1   
@<TRIPOS>SUBSTRUCTURE
     1 005         1 TEMP              0 ****  ****    0 ROOT
