@<TRIPOS>MOLECULE
005
   26    26     1     0     0
SMALL
bcc


@<TRIPOS>ATOM
      1 C           3.1770   -0.2900   -0.1190 c         1 005      0.890600
      2 N           0.5730   -1.6280    0.1760 n3        1 005     -0.899800
      3 O           3.8420    0.3980   -0.9440 o         1 005     -0.833800
      4 CA          1.9910    0.4200    0.5810 c3        1 005     -0.018900
      5 CD         -1.8360    0.2820    0.3910 ca        1 005     -0.041300
      6 CG         -0.4790    0.4800    0.9660 c3        1 005     -0.041100
      7 CH         -4.4120   -0.0640   -0.6650 ca        1 005     -0.153000
      8 CB1         0.6320   -0.1770    0.1250 c3        1 005      0.157500
      9 OB2         1.9890    1.8120    0.3180 oh        1 005     -0.643800
     10 CE1        -2.5320   -0.9170    0.5940 ca        1 005     -0.122500
     11 CE2        -2.4430    1.3020   -0.3530 ca        1 005     -0.122500
     12 CZ1        -3.8110   -1.0870    0.0690 ca        1 005     -0.141000
     13 CZ2        -3.7240    1.1290   -0.8760 ca        1 005     -0.141000
     14 OXT         3.4120   -1.4950    0.1740 o         1 005     -0.833800
     15 HN          1.2590   -1.9960   -0.4640 hn        1 005      0.351800
     16 HNA         0.8470   -1.9330    1.0930 hn        1 005      0.351800
     17 HA          2.0950    0.3120    1.6940 h1        1 005      0.038700
     18 HG         -0.2450    1.5780    1.0230 hc        1 005      0.051200
     19 HGA        -0.4520    0.0730    2.0120 hc        1 005      0.051200
     20 HH         -5.4200   -0.2000   -1.0780 ha        1 005      0.112000
     21 HB1         0.4760    0.1300   -0.9510 h1        1 005      0.056700
     22 HOB2        2.6000    1.9600   -0.4230 ho        1 005      0.427000
     23 HE1        -2.0490   -1.7320    1.1540 ha        1 005      0.137500
     24 HE2        -1.8990    2.2420   -0.5290 ha        1 005      0.137500
     25 HZ1        -4.3460   -2.0340    0.2280 ha        1 005      0.114500
     26 HZ2        -4.1890    1.9360   -1.4600 ha        1 005      0.114500
@<TRIPOS>BOND
     1    1    3 1   
     2    1    4 1   
     3    1   14 1   
     4    2    8 1   
     5    2   15 1   
     6    2   16 1   
     7    4    8 1   
     8    4    9 1   
     9    4   17 1   
    10    5    6 1   
    11    5   10 ar  
    12    5   11 ar  
    13    6    8 1   
    14    6   18 1   
    15    6   19 1   
    16    7   12 ar  
    17    7   13 ar  
    18    7   20 1   
    19    8   21 1   
    20    9   22 1   
    21   10   12 ar  
    22   10   23 1   
    23   11   13 ar  
    24   11   24 1   
    25   12   25 1   
    26   13   26 1   
@<TRIPOS>SUBSTRUCTURE
     1 005         1 TEMP              0 ****  ****    0 ROOT
