@<TRIPOS>MOLECULE
006
   86    90     1     0     0
SMALL
bcc


@<TRIPOS>ATOM
      1 N2         -2.8840    0.0530   -0.4740 n         1 006     -0.532900
      2 C20        -1.4570   -0.1260   -0.6000 c3        1 006      0.083700
      3 O20        -1.2690   -0.4660   -3.0280 oh        1 006     -0.581800
      4 C21        -1.0300   -1.5890   -0.3930 c3        1 006     -0.051100
      5 C22        -1.1680   -2.0130    1.0260 ca        1 006     -0.086300
      6 C23        -2.1840   -2.8960    1.4070 ca        1 006     -0.123500
      7 C24        -2.2980   -3.3020    2.7360 ca        1 006     -0.130000
      8 C25        -1.4010   -2.8280    3.6920 ca        1 006     -0.130000
      9 C26        -0.3860   -1.9470    3.3160 ca        1 006     -0.130000
     10 C27        -0.2670   -1.5400    1.9880 ca        1 006     -0.123500
     11 C28        -0.9120    0.3880   -1.9660 c3        1 006      0.057100
     12 C29         0.6130    0.5170   -1.8870 c         1 006      0.644100
     13 N30         4.3760    0.1840   -0.1000 n         1 006     -0.525900
     14 O30         6.6290    1.3360    0.8640 oh        1 006     -0.605800
     15 C31         5.0460   -0.5390    0.9480 c3        1 006      0.150000
     16 C32         5.6180   -1.8630    0.4940 ca        1 006     -0.106300
     17 C33         4.9820   -2.8590   -0.2300 ca        1 006     -0.093000
     18 C34         5.6850   -4.0380   -0.5100 ca        1 006     -0.133000
     19 C35         6.2730    0.1900    1.6200 c3        1 006      0.116100
     20 C36         6.9480   -2.0260    0.9330 ca        1 006     -0.081300
     21 C37         7.6410   -3.1960    0.6560 ca        1 006     -0.121000
     22 C38         6.9970   -4.2040   -0.0710 ca        1 006     -0.123000
     23 C39         7.4320   -0.8290    1.6720 c3        1 006     -0.071100
     24 C40        -9.7080    0.0190   -0.3530 ca        1 006     -0.123000
     25 O40        -2.7360    2.3410   -0.3570 o         1 006     -0.635100
     26 C41        -9.2030    0.5580   -1.5340 ca        1 006     -0.129500
     27 O41        -5.5890    0.3290   -0.9140 os        1 006     -0.352900
     28 C42        -7.8240    0.7010   -1.7180 ca        1 006     -0.075800
     29 C43        -7.2900    1.2510   -2.9850 c3        1 006     -0.055800
     30 C45        -6.9630    0.2860   -0.6850 ca        1 006      0.079100
     31 C46        -7.4590   -0.2630    0.5110 ca        1 006     -0.075800
     32 C47        -8.8450   -0.3900    0.6600 ca        1 006     -0.129500
     33 C48        -3.4410    1.3080   -0.4010 c         1 006      0.660100
     34 C49        -4.9550    1.4470   -0.2800 c3        1 006      0.058400
     35 C50         0.4550    2.6190   -0.5450 c3        1 006      0.173100
     36 N50         1.1870    1.5800   -1.2200 n         1 006     -0.452800
     37 O50         2.4520    0.5420    1.1050 o         1 006     -0.615100
     38 S50         1.5170    4.0690   -0.5040 ss        1 006     -0.323200
     39 C51         3.0460    3.1510   -0.8400 c3        1 006      0.050100
     40 C52         3.6620    3.7140   -2.1020 c3        1 006     -0.095600
     41 C53         3.9730    3.3510    0.3340 c3        1 006     -0.095600
     42 C54         2.6310    1.6720   -1.0660 c3        1 006      0.039700
     43 C55         3.1430    0.7750    0.0940 c         1 006      0.654100
     44 HN2        -3.4710   -0.7170   -0.7040 hn        1 006      0.331500
     45 H20        -0.9750    0.5100    0.2070 h1        1 006      0.088700
     46 HO20       -0.6700   -1.2280   -3.0170 ho        1 006      0.424000
     47 H21        -1.6250   -2.2620   -1.0670 hc        1 006      0.067200
     48 H21A        0.0480   -1.6740   -0.7040 hc        1 006      0.067200
     49 H23        -2.8930   -3.2740    0.6560 ha        1 006      0.143000
     50 H24        -3.0980   -3.9980    3.0290 ha        1 006      0.131500
     51 H25        -1.4920   -3.1480    4.7400 ha        1 006      0.129000
     52 H26         0.3240   -1.5720    4.0670 ha        1 006      0.131500
     53 H27         0.5420   -0.8480    1.6950 ha        1 006      0.143000
     54 H28        -1.3850    1.3800   -2.2280 h1        1 006      0.114700
     55 HN30        4.9610    0.5290   -0.8270 hn        1 006      0.320500
     56 HO30        7.4020    1.7210    1.2940 ho        1 006      0.409000
     57 H31         4.2920   -0.7390    1.7710 h1        1 006      0.101700
     58 H33         3.9470   -2.7280   -0.5800 ha        1 006      0.149000
     59 H34         5.1930   -4.8370   -1.0830 ha        1 006      0.135000
     60 H35         5.9810    0.5110    2.6560 h1        1 006      0.046700
     61 H37         8.6770   -3.3300    0.9970 ha        1 006      0.134000
     62 H38         7.5360   -5.1360   -0.2970 ha        1 006      0.132000
     63 H39         8.3520   -0.4070    1.1930 hc        1 006      0.062700
     64 H39A        7.6780   -1.0870    2.7330 hc        1 006      0.062700
     65 H41        -9.8900    0.8760   -2.3320 ha        1 006      0.135500
     66 H43        -8.0080    1.9750   -3.4410 hc        1 006      0.050033
     67 H43A       -6.3140    1.7710   -2.8110 hc        1 006      0.050033
     68 H43B       -7.1120    0.4200   -3.7130 hc        1 006      0.050033
     69 H44        -6.4590    0.1000    2.3690 hc        1 006      0.050033
     70 H44A       -6.9500   -1.6220    2.0930 hc        1 006      0.050033
     71 H44B       -5.5320   -0.9290    1.1950 hc        1 006      0.050033
     72 H47        -9.2490   -0.8210    1.5880 ha        1 006      0.135500
     73 H49        -5.2720    2.3950   -0.7900 h1        1 006      0.073200
     74 H49A       -5.2260    1.4840    0.8090 h1        1 006      0.073200
     75 H50        -0.5030    2.8740   -1.0690 h2        1 006      0.098200
     76 H50A        0.2200    2.3180    0.5120 h2        1 006      0.098200
     77 H52         3.8540    4.8080   -1.9770 hc        1 006      0.055200
     78 H52A        4.6350    3.2070   -2.3180 hc        1 006      0.055200
     79 H52B        2.9800    3.5710   -2.9740 hc        1 006      0.055200
     80 H53         3.5280    2.9340    1.2710 hc        1 006      0.055200
     81 H53A        4.9630    2.8600    0.1540 hc        1 006      0.055200
     82 H53B        4.1510    4.4450    0.4870 hc        1 006      0.055200
     83 H54         3.0850    1.2970   -2.0360 h1        1 006      0.106700
     84 O21         1.3250   -0.3490   -2.4410 o         1 006     -0.617100
     85 H40       -10.7950   -0.0860   -0.2210 ha        1 006      0.134000
     86 C44        -6.5530   -0.7040    1.5950 c3        1 006     -0.055800
@<TRIPOS>BOND
     1    1    2 1   
     2    1   33 1   
     3    1   44 1   
     4    2    4 1   
     5    2   11 1   
     6    2   45 1   
     7    3   11 1   
     8    3   46 1   
     9    4    5 1   
    10    4   47 1   
    11    4   48 1   
    12    5    6 ar  
    13    5   10 ar  
    14    6    7 ar  
    15    6   49 1   
    16    7    8 ar  
    17    7   50 1   
    18    8    9 ar  
    19    8   51 1   
    20    9   10 ar  
    21    9   52 1   
    22   10   53 1   
    23   11   12 1   
    24   11   54 1   
    25   12   36 1   
    26   12   84 2   
    27   13   15 1   
    28   13   43 1   
    29   13   55 1   
    30   14   19 1   
    31   14   56 1   
    32   15   16 1   
    33   15   19 1   
    34   15   57 1   
    35   16   17 ar  
    36   16   20 ar  
    37   17   18 ar  
    38   17   58 1   
    39   18   22 ar  
    40   18   59 1   
    41   19   23 1   
    42   19   60 1   
    43   20   21 ar  
    44   20   23 1   
    45   21   22 ar  
    46   21   61 1   
    47   22   62 1   
    48   23   63 1   
    49   23   64 1   
    50   24   26 ar  
    51   24   32 ar  
    52   24   85 1   
    53   25   33 2   
    54   26   28 ar  
    55   26   65 1   
    56   27   30 1   
    57   27   34 1   
    58   28   29 1   
    59   28   30 ar  
    60   29   66 1   
    61   29   67 1   
    62   29   68 1   
    63   30   31 ar  
    64   31   32 ar  
    65   31   86 1   
    66   32   72 1   
    67   33   34 1   
    68   34   73 1   
    69   34   74 1   
    70   35   36 1   
    71   35   38 1   
    72   35   75 1   
    73   35   76 1   
    74   36   42 1   
    75   37   43 2   
    76   38   39 1   
    77   39   40 1   
    78   39   41 1   
    79   39   42 1   
    80   40   77 1   
    81   40   78 1   
    82   40   79 1   
    83   41   80 1   
    84   41   81 1   
    85   41   82 1   
    86   42   43 1   
    87   42   83 1   
    88   69   86 1   
    89   70   86 1   
    90   71   86 1   
@<TRIPOS>SUBSTRUCTURE
     1 006         1 TEMP              0 ****  ****    0 ROOT
