@<TRIPOS>MOLECULE
006
   86    84     1     0     0
SMALL
bcc


@<TRIPOS>ATOM
      1 N2         -0.5470    2.3080    2.1610 n         1 006     -0.385000
      2 C20        -0.3490    1.1950    3.0340 c3        1 006      0.003000
      3 O20        -0.0870   -1.1490    2.9650 oh        1 006     -0.313000
      4 C21        -1.6800    0.8390    3.7260 c3        1 006     -0.146000
      5 O21         2.3670    0.7260    2.8060 o         1 006     -0.348000
      6 C22        -2.8400    0.8220    2.6570 c2        1 006     -0.081000
      7 C23        -4.1600    0.8050    3.0730 c1        1 006     -0.135000
      8 C24        -5.1910    0.6430    2.1310 c1        1 006     -0.125500
      9 C25        -4.8900    0.5010    0.7930 c1        1 006     -0.125500
     10 C26        -3.5570    0.5170    0.3680 c1        1 006     -0.137000
     11 C27        -2.5350    0.6770    1.2920 c2        1 006     -0.141000
     12 C28         0.1320    0.0190    2.2420 c3        1 006      0.006000
     13 C29         1.6320    0.1740    1.9630 c2        1 006      0.294000
     14 N30        -0.0090   -3.3470   -0.6720 n         1 006     -0.343000
     15 O30         0.7960   -4.5840   -2.6080 oh        1 006     -0.336000
     16 C31        -0.1130   -4.7630   -0.4250 c3        1 006      0.059000
     17 C32        -1.6060   -5.1550   -0.2170 c2        1 006     -0.100000
     18 C33        -2.5450   -4.7760    0.7410 c2        1 006     -0.100000
     19 C34        -3.8080   -5.3780    0.7590 c1        1 006     -0.132000
     20 C35         0.3870   -5.5020   -1.5730 c3        1 006      0.003000
     21 C36        -1.9350   -6.1520   -1.1730 c1        1 006     -0.075000
     22 C37        -3.2010   -6.7530   -1.1540 c1        1 006     -0.125500
     23 C38        -4.1350   -6.3730   -0.1980 c1        1 006     -0.125500
     24 C39        -0.7160   -6.3630   -2.0770 c3        1 006     -0.157000
     25 C40         2.8120    5.3700   -3.0920 c1        1 006     -0.121000
     26 O40         1.2300    3.5180    3.0670 o         1 006     -0.342000
     27 C41         3.6200    4.7370   -2.1430 c1        1 006     -0.140000
     28 O41         1.5650    5.1310    0.8990 os        1 006     -0.193000
     29 C42         3.2060    4.6510   -0.8330 c1        1 006     -0.046000
     30 C43         4.1060    4.0230    0.2050 c3        1 006     -0.204000
     31 C44        -0.0080    6.6380   -0.9500 c3        1 006     -0.181000
     32 C45         1.9790    5.1950   -0.4540 c1        1 006      0.019000
     33 C46         1.1720    5.8280   -1.4030 c2        1 006     -0.079000
     34 C47         1.5910    5.9120   -2.7160 c2        1 006     -0.128000
     35 C48         0.4100    3.4090    2.1520 c2        1 006      0.279000
     36 C49         0.2940    4.5210    1.0860 c3        1 006     -0.034000
     37 C50         3.5150   -0.3930    0.4370 c3        1 006     -0.124000
     38 N50         2.2020   -0.3890    0.7750 n         1 006     -0.313000
     39 O50         2.2200   -3.2470    0.0850 o         1 006     -0.340000
     40 S50         3.5490   -0.4240   -1.2060 ss        1 006      0.048000
     41 C51         1.9910   -0.7740   -1.6800 c3        1 006     -0.130000
     42 C52         1.3120    0.4890   -2.2450 c3        1 006     -0.213000
     43 C53         1.9960   -1.8920   -2.7390 c3        1 006     -0.213000
     44 C54         1.3260   -1.2020   -0.5180 c3        1 006      0.012000
     45 C55         1.2600   -2.6310   -0.3720 c2        1 006      0.274000
     46 HN2        -1.2740    2.3450    1.6410 hn        1 006      0.225000
     47 H20         0.3260    1.4290    3.7180 h1        1 006      0.147000
     48 HO20       -0.7550   -1.5690    2.6320 ho        1 006      0.231000
     49 H21        -1.6060   -0.0300    4.1340 hc        1 006      0.110000
     50 H21A       -1.8760    1.4960    4.4020 hc        1 006      0.110000
     51 H23        -4.3640    0.9010    3.9720 ha        1 006      0.135000
     52 H24        -6.1330    0.6310    2.4270 ha        1 006      0.134750
     53 H25        -5.5940    0.3910    0.1560 ha        1 006      0.134750
     54 H26        -3.3450    0.4150   -0.5860 ha        1 006      0.143000
     55 H27        -1.5970    0.6880    0.9910 ha        1 006      0.145000
     56 H28        -0.3440   -0.0250    1.4160 h1        1 006      0.134000
     57 HN30       -0.7130   -2.8920   -1.0920 hn        1 006      0.232000
     58 HO30        1.3880   -4.9960   -3.1620 ho        1 006      0.209000
     59 H31         0.4000   -4.9980    0.3660 h1        1 006      0.146000
     60 H33        -2.3200   -4.0860    1.4060 ha        1 006      0.149000
     61 H34        -4.4600   -5.1140    1.4250 ha        1 006      0.137000
     62 H35         1.1520   -6.0610   -1.3020 h1        1 006      0.090000
     63 H37        -3.4320   -7.4560   -1.8270 ha        1 006      0.134750
     64 H38        -4.9990   -6.7840   -0.1840 ha        1 006      0.134750
     65 H39        -0.9390   -6.1100   -2.9990 hc        1 006      0.102500
     66 H39A       -0.4370   -7.3190   -2.0480 hc        1 006      0.102500
     67 H40         3.1050    5.4300   -4.0170 ha        1 006      0.134000
     68 H41         4.4880    4.3530   -2.4120 ha        1 006      0.139000
     69 H43         3.7340    4.1940    1.1190 hc        1 006      0.103667
     70 H43A        5.0400    4.4300    0.1360 hc        1 006      0.103667
     71 H43B        4.1590    3.0500    0.0480 hc        1 006      0.103667
     72 H44        -0.5170    6.9290   -1.7220 hc        1 006      0.085667
     73 H44A       -0.5640    6.1030   -0.3850 hc        1 006      0.085667
     74 H44B        0.3020    7.4150   -0.4570 hc        1 006      0.085667
     75 H47         1.0100    6.3680   -3.4030 ha        1 006      0.133000
     76 H49        -0.0240    4.1140    0.2020 h1        1 006      0.110500
     77 H49A       -0.3510    5.1970    1.3860 h1        1 006      0.110500
     78 H50         3.9610    0.4280    0.7740 h2        1 006      0.134000
     79 H50A        3.9590   -1.2030    0.8060 h2        1 006      0.134000
     80 H52         1.3540    1.2000   -1.5850 hc        1 006      0.093500
     81 H52A        0.3830    0.2930   -2.4510 hc        1 006      0.093500
     82 H52B        1.7810    0.7770   -3.0730 hc        1 006      0.093500
     83 H53         2.3910   -2.6930   -2.3620 hc        1 006      0.093500
     84 H53A        1.0760   -2.0810   -3.0190 hc        1 006      0.093500
     85 H53B        2.5200   -1.6040   -3.5130 hc        1 006      0.093500
     86 H54         0.3570   -0.9550   -0.5290 h1        1 006      0.123000
@<TRIPOS>BOND
     1    1    2 1   
     2    1   35 1   
     3    1   46 1   
     4    2    4 1   
     5    2   12 1   
     6    2   47 1   
     7    3   12 1   
     8    3   48 1   
     9    4    6 1   
    10    4   49 1   
    11    4   50 1   
    12    5   13 1   
    13    6    7 1   
    14    6   11 1   
    15    7   51 1   
    16    8    9 1   
    17    8   52 1   
    18    9   53 1   
    19   10   11 1   
    20   10   54 1   
    21   11   55 1   
    22   12   13 1   
    23   12   56 1   
    24   13   38 1   
    25   14   16 1   
    26   14   45 1   
    27   14   57 1   
    28   15   20 1   
    29   15   58 1   
    30   16   17 1   
    31   16   20 1   
    32   16   59 1   
    33   17   18 1   
    34   17   21 1   
    35   18   19 1   
    36   18   60 1   
    37   19   61 1   
    38   20   24 1   
    39   20   62 1   
    40   21   24 1   
    41   22   23 1   
    42   22   63 1   
    43   23   64 1   
    44   24   65 1   
    45   24   66 1   
    46   25   34 1   
    47   25   67 1   
    48   26   35 1   
    49   27   29 1   
    50   27   68 1   
    51   28   32 1   
    52   28   36 1   
    53   29   30 1   
    54   30   69 1   
    55   30   70 1   
    56   30   71 1   
    57   31   33 1   
    58   31   72 1   
    59   31   73 1   
    60   31   74 1   
    61   32   33 1   
    62   33   34 1   
    63   34   75 1   
    64   35   36 1   
    65   36   76 1   
    66   36   77 1   
    67   37   38 1   
    68   37   40 1   
    69   37   78 1   
    70   37   79 1   
    71   38   44 1   
    72   39   45 1   
    73   40   41 1   
    74   41   42 1   
    75   41   43 1   
    76   41   44 1   
    77   42   80 1   
    78   42   81 1   
    79   42   82 1   
    80   43   83 1   
    81   43   84 1   
    82   43   85 1   
    83   44   45 1   
    84   44   86 1   
@<TRIPOS>SUBSTRUCTURE
     1 006         1 TEMP              0 ****  ****    0 ROOT
