@<TRIPOS>MOLECULE
007
   30    31     1     0     0
SMALL
bcc


@<TRIPOS>ATOM
      1 C1         -1.2430   -0.6940    1.4750 c3        1 007     -0.073400
      2 C2         -1.3650   -0.0480    2.8490 c3        1 007     -0.079400
      3 C3          0.0300   -0.1230    0.8200 c3        1 007     -0.010700
      4 C4         -0.4360    1.1590    2.8640 c3        1 007     -0.079400
      5 C5          0.2070    1.2520    1.4870 c3        1 007     -0.073400
      6 C6         -0.0940   -0.0340   -0.6710 ca        1 007     -0.072300
      7 C7         -0.8290   -0.9940   -1.3810 ca        1 007     -0.130500
      8 C8          0.5480    0.9860   -1.3850 ca        1 007     -0.130500
      9 C9         -0.9340   -0.9240   -2.7690 ca        1 007     -0.130500
     10 C10         0.4420    1.0550   -2.7740 ca        1 007     -0.130500
     11 C11        -0.3020    0.1030   -3.4690 ca        1 007     -0.133000
     12 C12         1.2120   -1.0570    1.1760 c3        1 007      0.170800
     13 N13         2.4930   -0.6240    0.6760 n3        1 007     -0.919800
     14 H1C1       -2.1350   -0.4340    0.8510 hc        1 007      0.050450
     15 H1C2       -1.1950   -1.8070    1.5550 hc        1 007      0.050450
     16 H2C1       -2.4230    0.2580    3.0450 hc        1 007      0.041200
     17 H2C2       -1.0740   -0.7740    3.6490 hc        1 007      0.041200
     18 H4C1       -0.9990    2.0960    3.1000 hc        1 007      0.041200
     19 H4C2        0.3490    1.0340    3.6520 hc        1 007      0.041200
     20 H5C1        1.2840    1.5380    1.5630 hc        1 007      0.050450
     21 H5C2       -0.3150    2.0340    0.8780 hc        1 007      0.050450
     22 H7         -1.3260   -1.8140   -0.8400 ha        1 007      0.136000
     23 H8          1.1460    1.7400   -0.8490 ha        1 007      0.136000
     24 H9         -1.5180   -1.6820   -3.3110 ha        1 007      0.130500
     25 H10         0.9480    1.8650   -3.3210 ha        1 007      0.130500
     26 H11        -0.3880    0.1590   -4.5640 ha        1 007      0.131000
     27 H121        0.9380   -2.0920    0.8120 h1        1 007      0.028200
     28 H122        1.2850   -1.1000    2.3000 h1        1 007      0.028200
     29 H131        3.1580   -1.3690    0.7440 hn        1 007      0.351300
     30 H132        2.4290   -0.3250   -0.2780 hn        1 007      0.351300
@<TRIPOS>BOND
     1    1    2 1   
     2    1    3 1   
     3    1   14 1   
     4    1   15 1   
     5    2    4 1   
     6    2   16 1   
     7    2   17 1   
     8    3    5 1   
     9    3    6 1   
    10    3   12 1   
    11    4    5 1   
    12    4   18 1   
    13    4   19 1   
    14    5   20 1   
    15    5   21 1   
    16    6    7 ar  
    17    6    8 ar  
    18    7    9 ar  
    19    7   22 1   
    20    8   10 ar  
    21    8   23 1   
    22    9   11 ar  
    23    9   24 1   
    24   10   11 ar  
    25   10   25 1   
    26   11   26 1   
    27   12   13 1   
    28   12   27 1   
    29   12   28 1   
    30   13   29 1   
    31   13   30 1   
@<TRIPOS>SUBSTRUCTURE
     1 007         1 TEMP              0 ****  ****    0 ROOT
