@<TRIPOS>MOLECULE
007
   31    32     1     0     0
SMALL
bcc


@<TRIPOS>ATOM
      1 C1          0.0380   -0.1040    0.0650 c3        1 007     -0.078900
      2 C2          1.5580   -0.1210   -0.0200 c3        1 007     -0.087900
      3 C3         -0.3340    0.7810    1.2730 c3        1 007     -0.019700
      4 C4          2.0920    0.3790    1.3150 c3        1 007     -0.087900
      5 C5          0.8870    0.6640    2.2020 c3        1 007     -0.078900
      6 C6         -1.6200    0.3750    1.9250 ca        1 007     -0.144300
      7 C7         -2.6580   -0.1780    1.1650 ca        1 007     -0.143500
      8 C8         -1.8060    0.5530    3.3040 ca        1 007     -0.143500
      9 C9         -3.8540   -0.5570    1.7730 ca        1 007     -0.113000
     10 C10        -3.0020    0.1730    3.9100 ca        1 007     -0.113000
     11 C11        -4.0290   -0.3830    3.1460 ca        1 007     -0.102000
     12 C12        -0.4770    2.2270    0.7490 c3        1 007      0.105800
     13 N13        -0.9740    3.1710    1.7910 n4        1 007     -0.838600
     14 H1C1       -0.3490   -1.1410    0.2460 hc        1 007      0.061200
     15 H1C2       -0.4220    0.2710   -0.8810 hc        1 007      0.061200
     16 H2C1        1.9130    0.5340   -0.8550 hc        1 007      0.062450
     17 H2C2        1.9230   -1.1570   -0.2350 hc        1 007      0.062450
     18 H4C1        2.7550   -0.3850    1.7940 hc        1 007      0.062450
     19 H4C2        2.7050    1.3040    1.1710 hc        1 007      0.062450
     20 H5C1        1.0460    1.5850    2.8140 hc        1 007      0.061200
     21 H5C2        0.7270   -0.1900    2.9110 hc        1 007      0.061200
     22 H7         -2.5300   -0.3310    0.0810 ha        1 007      0.137000
     23 H8         -0.9910    0.9500    3.9290 ha        1 007      0.137000
     24 H9         -4.6590   -1.0030    1.1670 ha        1 007      0.156000
     25 H10        -3.1310    0.2980    4.9970 ha        1 007      0.156000
     26 H11        -4.9710   -0.6930    3.6280 ha        1 007      0.160000
     27 H121       -1.2160    2.2470   -0.1030 hx        1 007      0.110200
     28 H122        0.5270    2.5930    0.3870 hx        1 007      0.110200
     29 H131       -1.1760    4.0840    1.3780 hn        1 007      0.460800
     30 H132       -1.8300    2.7850    2.2180 hn        1 007      0.460800
     31 H133       -0.2710    3.2800    2.5290 hn        1 007      0.460800
@<TRIPOS>BOND
     1    1    2 1   
     2    1    3 1   
     3    1   14 1   
     4    1   15 1   
     5    2    4 1   
     6    2   16 1   
     7    2   17 1   
     8    3    5 1   
     9    3    6 1   
    10    3   12 1   
    11    4    5 1   
    12    4   18 1   
    13    4   19 1   
    14    5   20 1   
    15    5   21 1   
    16    6    7 ar  
    17    6    8 ar  
    18    7    9 ar  
    19    7   22 1   
    20    8   10 ar  
    21    8   23 1   
    22    9   11 ar  
    23    9   24 1   
    24   10   11 ar  
    25   10   25 1   
    26   11   26 1   
    27   12   13 1   
    28   12   27 1   
    29   12   28 1   
    30   13   29 1   
    31   13   30 1   
    32   13   31 1   
@<TRIPOS>SUBSTRUCTURE
     1 007         1 TEMP              0 ****  ****    0 ROOT
