@<TRIPOS>MOLECULE
007
   30    29     1     0     0
SMALL
bcc


@<TRIPOS>ATOM
      1 C1          0.7910    0.4630   -1.3190 c3        1 007     -0.152000
      2 C2          2.4190    0.5380   -1.3460 c3        1 007     -0.158000
      3 C3          0.4970   -0.2280   -0.2290 c3        1 007     -0.018000
      4 C4          2.8960    0.0430    0.0960 c3        1 007     -0.158000
      5 C5          1.7720    0.0200    0.8440 c3        1 007     -0.152000
      6 C6         -0.8230    0.2770    0.3860 c2        1 007     -0.065000
      7 C7         -1.0760    0.0780    1.7360 c1        1 007     -0.130000
      8 C8         -1.7570    0.9530   -0.4080 c2        1 007     -0.131000
      9 C9         -2.2600    0.5500    2.3030 c1        1 007     -0.131500
     10 C10        -2.9490    1.4280    0.1620 c1        1 007     -0.131000
     11 C11        -3.1970    1.2270    1.5100 c1        1 007     -0.131500
     12 C12         0.3820   -1.7100   -0.5700 c3        1 007     -0.066000
     13 N13        -0.7960   -1.9230   -1.3730 n3        1 007     -0.352000
     14 H1C1        0.4210    1.3390   -1.2660 hc        1 007      0.089750
     15 H1C2        0.4440   -0.0200   -2.1500 hc        1 007      0.089750
     16 H2C1        2.7650   -0.0420   -2.0270 hc        1 007      0.080500
     17 H2C2        2.7080    1.4460   -1.5010 hc        1 007      0.080500
     18 H4C1        3.2960   -0.8840    0.0340 hc        1 007      0.080500
     19 H4C2        3.5680    0.6910    0.4870 hc        1 007      0.080500
     20 H5C1        1.6550    0.8980    1.3200 hc        1 007      0.089750
     21 H5C2        1.8130   -0.6940    1.4770 hc        1 007      0.089750
     22 H7         -0.4320   -0.3890    2.2850 ha        1 007      0.132000
     23 H8         -1.5860    1.0900   -1.3390 ha        1 007      0.140000
     24 H9         -2.4330    0.4110    3.2380 ha        1 007      0.130500
     25 H10        -3.6130    1.9060   -0.3990 ha        1 007      0.131000
     26 H11        -4.0040    1.5480    1.8970 ha        1 007      0.130500
     27 H121        1.1800   -1.9950   -1.0750 h1        1 007      0.067500
     28 H122        0.3160   -2.2220    0.2370 h1        1 007      0.067500
     29 H131       -1.4280   -2.4210   -0.8830 hn        1 007      0.146500
     30 H132       -0.5710   -2.3790   -2.1300 hn        1 007      0.146500
@<TRIPOS>BOND
     1    1    2 1   
     2    1    3 1   
     3    1   14 1   
     4    1   15 1   
     5    2    4 1   
     6    2   16 1   
     7    2   17 1   
     8    3    5 1   
     9    3    6 1   
    10    3   12 1   
    11    4    5 1   
    12    4   18 1   
    13    4   19 1   
    14    5   20 1   
    15    5   21 1   
    16    6    7 1   
    17    6    8 1   
    18    7   22 1   
    19    8   10 1   
    20    8   23 1   
    21    9   11 1   
    22    9   24 1   
    23   10   25 1   
    24   11   26 1   
    25   12   13 1   
    26   12   27 1   
    27   12   28 1   
    28   13   29 1   
    29   13   30 1   
@<TRIPOS>SUBSTRUCTURE
     1 007         1 TEMP              0 ****  ****    0 ROOT
