@<TRIPOS>MOLECULE
007
   31    32     1     0     0
SMALL
bcc


@<TRIPOS>ATOM
      1 C1          0.0510   -0.1160    0.0770 c3        1 007     -0.078900
      2 C2          1.5710   -0.1250   -0.0020 c3        1 007     -0.087900
      3 C3         -0.3310    0.7780    1.2750 c3        1 007     -0.019700
      4 C4          2.0960    0.3890    1.3320 c3        1 007     -0.087900
      5 C5          0.8860    0.6760    2.2110 c3        1 007     -0.078900
      6 C6         -1.6180    0.3710    1.9250 ca        1 007     -0.144300
      7 C7         -2.6500   -0.1940    1.1650 ca        1 007     -0.143500
      8 C8         -1.8120    0.5600    3.3010 ca        1 007     -0.143500
      9 C9         -3.8470   -0.5740    1.7710 ca        1 007     -0.113000
     10 C10        -3.0090    0.1790    3.9050 ca        1 007     -0.113000
     11 C11        -4.0290   -0.3890    3.1410 ca        1 007     -0.102000
     12 C12        -0.4790    2.2190    0.7380 c3        1 007      0.105800
     13 N13        -0.9860    3.1690    1.7700 nz        1 007     -0.838600
     14 H1C1       -0.4070    0.2480   -0.8750 hc        1 007      0.061200
     15 H1C2       -0.3310   -1.1530    0.2650 hc        1 007      0.061200
     16 H2C1        1.9270    0.5250   -0.8410 hc        1 007      0.062450
     17 H2C2        1.9430   -1.1610   -0.2060 hc        1 007      0.062450
     18 H4C1        2.7050    1.3160    1.1830 hc        1 007      0.062450
     19 H4C2        2.7610   -0.3670    1.8210 hc        1 007      0.062450
     20 H5C1        0.7260   -0.1730    2.9260 hc        1 007      0.061200
     21 H5C2        1.0370    1.6020    2.8160 hc        1 007      0.061200
     22 H7         -2.5160   -0.3570    0.0830 ha        1 007      0.137000
     23 H8         -1.0020    0.9670    3.9260 ha        1 007      0.137000
     24 H9         -4.6460   -1.0300    1.1640 ha        1 007      0.156000
     25 H10        -3.1430    0.3130    4.9900 ha        1 007      0.156000
     26 H11        -4.9710   -0.7000    3.6210 ha        1 007      0.160000
     27 H121        0.5240    2.5870    0.3770 hx        1 007      0.110200
     28 H122       -1.2150    2.2270   -0.1170 hx        1 007      0.110200
     29 H131       -1.1910    4.0770    1.3470 hn        1 007      0.460800
     30 H132       -1.8430    2.7830    2.1960 hn        1 007      0.460800
     31 H133       -0.2870    3.2880    2.5090 hn        1 007      0.460800
@<TRIPOS>BOND
     1    1    2 1   
     2    1    3 1   
     3    1   14 1   
     4    1   15 1   
     5    2    4 1   
     6    2   16 1   
     7    2   17 1   
     8    3    5 1   
     9    3    6 1   
    10    3   12 1   
    11    4    5 1   
    12    4   18 1   
    13    4   19 1   
    14    5   20 1   
    15    5   21 1   
    16    6    7 ar  
    17    6    8 ar  
    18    7    9 ar  
    19    7   22 1   
    20    8   10 ar  
    21    8   23 1   
    22    9   11 ar  
    23    9   24 1   
    24   10   11 ar  
    25   10   25 1   
    26   11   26 1   
    27   12   13 1   
    28   12   27 1   
    29   12   28 1   
    30   13   29 1   
    31   13   30 1   
    32   13   31 1   
@<TRIPOS>SUBSTRUCTURE
     1 007         1 TEMP              0 ****  ****    0 ROOT
