@<TRIPOS>MOLECULE
007
   31    32     1     0     0
SMALL
bcc


@<TRIPOS>ATOM
      1 C1          0.0460   -0.1210    0.0770 c3        1 007     -0.078900
      2 C2          1.5660   -0.1290   -0.0070 c3        1 007     -0.087900
      3 C3         -0.3330    0.7770    1.2730 c3        1 007     -0.019700
      4 C4          2.0960    0.3900    1.3230 c3        1 007     -0.087900
      5 C5          0.8880    0.6800    2.2050 c3        1 007     -0.078900
      6 C6         -1.6170    0.3720    1.9290 ca        1 007     -0.144300
      7 C7         -2.6500   -0.1980    1.1750 ca        1 007     -0.143500
      8 C8         -1.8060    0.5660    3.3050 ca        1 007     -0.143500
      9 C9         -3.8450   -0.5760    1.7870 ca        1 007     -0.113000
     10 C10        -3.0000    0.1860    3.9150 ca        1 007     -0.113000
     11 C11        -4.0230   -0.3860    3.1570 ca        1 007     -0.102000
     12 C12        -0.4840    2.2160    0.7310 c3        1 007      0.105800
     13 N13        -0.9880    3.1700    1.7610 n4        1 007     -0.838600
     14 H1C1       -0.3340   -1.1570    0.2700 hc        1 007      0.061200
     15 H1C2       -0.4160    0.2400   -0.8750 hc        1 007      0.061200
     16 H2C1        1.9380   -1.1640   -0.2100 hc        1 007      0.062450
     17 H2C2        1.9180    0.5190   -0.8490 hc        1 007      0.062450
     18 H4C1        2.7620   -0.3650    1.8120 hc        1 007      0.062450
     19 H4C2        2.7040    1.3170    1.1690 hc        1 007      0.062450
     20 H5C1        0.7310   -0.1670    2.9240 hc        1 007      0.061200
     21 H5C2        1.0400    1.6080    2.8060 hc        1 007      0.061200
     22 H7         -2.5210   -0.3640    0.0930 ha        1 007      0.137000
     23 H8         -0.9950    0.9770    3.9260 ha        1 007      0.137000
     24 H9         -4.6460   -1.0360    1.1850 ha        1 007      0.156000
     25 H10        -3.1310    0.3250    5.0000 ha        1 007      0.156000
     26 H11        -4.9630   -0.6960    3.6410 ha        1 007      0.160000
     27 H121       -1.2220    2.2210   -0.1210 hx        1 007      0.110200
     28 H122        0.5180    2.5840    0.3650 hx        1 007      0.110200
     29 H131       -0.2860    3.2920    2.4980 hn        1 007      0.460800
     30 H132       -1.1950    4.0760    1.3360 hn        1 007      0.460800
     31 H133       -1.8420    2.7840    2.1920 hn        1 007      0.460800
@<TRIPOS>BOND
     1    1    2 1   
     2    1    3 1   
     3    1   14 1   
     4    1   15 1   
     5    2    4 1   
     6    2   16 1   
     7    2   17 1   
     8    3    5 1   
     9    3    6 1   
    10    3   12 1   
    11    4    5 1   
    12    4   18 1   
    13    4   19 1   
    14    5   20 1   
    15    5   21 1   
    16    6    7 ar  
    17    6    8 ar  
    18    7    9 ar  
    19    7   22 1   
    20    8   10 ar  
    21    8   23 1   
    22    9   11 ar  
    23    9   24 1   
    24   10   11 ar  
    25   10   25 1   
    26   11   26 1   
    27   12   13 1   
    28   12   27 1   
    29   12   28 1   
    30   13   29 1   
    31   13   30 1   
    32   13   31 1   
@<TRIPOS>SUBSTRUCTURE
     1 007         1 TEMP              0 ****  ****    0 ROOT
