@<TRIPOS>MOLECULE
008
   48    50     1     0     0
SMALL
bcc


@<TRIPOS>ATOM
      1 F7         -0.0490    1.8570   -4.7430 f         1 008     -0.144900
      2 C1         -0.4310    0.6030   -5.0900 ca        1 008      0.143900
      3 C2         -0.2040    0.1560   -6.4050 ca        1 008     -0.164000
      4 C3         -0.5990   -1.1260   -6.7720 ca        1 008     -0.107000
      5 C4         -1.2170   -1.9650   -5.8450 ca        1 008     -0.144000
      6 C5         -1.4400   -1.5230   -4.5430 ca        1 008     -0.104000
      7 C6         -1.0550   -0.2400   -4.1430 ca        1 008     -0.095300
      8 C8         -1.2990    0.2270   -2.7540 c3        1 008     -0.033100
      9 C9         -0.1120   -0.0710   -1.8160 c3        1 008      0.192500
     10 N10         1.1390    0.4210   -2.3390 n3        1 008     -0.911800
     11 C11        -0.5090    0.4650   -0.4230 c3        1 008     -0.197400
     12 C12         0.5240    0.1140    0.6290 c         1 008      0.656100
     13 O13         1.4130   -0.7280    0.3900 o         1 008     -0.620100
     14 N14         0.5090    0.8240    1.8400 n         1 008     -0.428800
     15 C19        -0.7660    1.2400    2.4050 c3        1 008      0.118300
     16 C18        -1.2540    0.3770    3.5380 ca        1 008     -0.119300
     17 C20        -2.5810    0.5050    3.9580 ca        1 008     -0.121000
     18 C21        -3.0560   -0.2560    5.0240 ca        1 008     -0.127000
     19 C22        -2.2050   -1.1510    5.6750 ca        1 008     -0.121000
     20 C17        -0.3960   -0.5220    4.1910 ca        1 008     -0.070300
     21 C23        -0.8820   -1.2830    5.2610 ca        1 008     -0.123000
     22 C16         1.0170   -0.6900    3.7470 c3        1 008     -0.061100
     23 C15         1.4580    0.5180    2.9090 c3        1 008      0.016700
     24 C24         2.9290    0.4420    2.4600 c         1 008      0.651100
     25 O25         3.6030    1.4900    2.4390 o         1 008     -0.600100
     26 N26         3.5120   -0.7840    2.2260 n         1 008     -0.623000
     27 H2          0.2870    0.8250   -7.1260 ha        1 008      0.147000
     28 H3         -0.4200   -1.4780   -7.7990 ha        1 008      0.136000
     29 H4         -1.5250   -2.9780   -6.1400 ha        1 008      0.134000
     30 H5         -1.9230   -2.1900   -3.8130 ha        1 008      0.133000
     31 H8C1       -2.2060   -0.2840   -2.3370 hc        1 008      0.051200
     32 H8C2       -1.5000    1.3320   -2.7610 hc        1 008      0.051200
     33 H9          0.0010   -1.1940   -1.7260 h1        1 008      0.077700
     34 H101        1.1040    1.4040   -2.5200 hn        1 008      0.365300
     35 H102        1.8920    0.2070   -1.7140 hn        1 008      0.365300
     36 H111       -0.6480    1.5770   -0.4720 hc        1 008      0.072700
     37 H112       -1.4850   -0.0020   -0.1270 hc        1 008      0.072700
     38 H191       -0.6260    2.2920    2.7990 h1        1 008      0.068700
     39 H192       -1.5570    1.2840    1.6050 h1        1 008      0.068700
     40 H20        -3.2500    1.2130    3.4460 ha        1 008      0.132000
     41 H21        -4.1000   -0.1510    5.3510 ha        1 008      0.136000
     42 H22        -2.5790   -1.7520    6.5170 ha        1 008      0.136000
     43 H23        -0.2110   -1.9870    5.7750 ha        1 008      0.137000
     44 H161        1.7000   -0.7860    4.6310 hc        1 008      0.071700
     45 H162        1.0920   -1.6400    3.1510 hc        1 008      0.071700
     46 H15         1.4350    1.4290    3.5920 h1        1 008      0.096700
     47 H261        4.4310   -0.7700    1.8450 hn        1 008      0.306000
     48 H262        2.9210   -1.5140    1.8980 hn        1 008      0.306000
@<TRIPOS>BOND
     1    1    2 1   
     2    2    3 ar  
     3    2    7 ar  
     4    3    4 ar  
     5    3   27 1   
     6    4    5 ar  
     7    4   28 1   
     8    5    6 ar  
     9    5   29 1   
    10    6    7 ar  
    11    6   30 1   
    12    7    8 1   
    13    8    9 1   
    14    8   31 1   
    15    8   32 1   
    16    9   10 1   
    17    9   11 1   
    18    9   33 1   
    19   10   34 1   
    20   10   35 1   
    21   11   12 1   
    22   11   36 1   
    23   11   37 1   
    24   12   13 2   
    25   12   14 1   
    26   14   15 1   
    27   14   23 1   
    28   15   16 1   
    29   15   38 1   
    30   15   39 1   
    31   16   17 ar  
    32   16   20 ar  
    33   17   18 ar  
    34   17   40 1   
    35   18   19 ar  
    36   18   41 1   
    37   19   21 ar  
    38   19   42 1   
    39   20   21 ar  
    40   20   22 1   
    41   21   43 1   
    42   22   23 1   
    43   22   44 1   
    44   22   45 1   
    45   23   24 1   
    46   23   46 1   
    47   24   25 2   
    48   24   26 1   
    49   26   47 1   
    50   26   48 1   
@<TRIPOS>SUBSTRUCTURE
     1 008         1 TEMP              0 ****  ****    0 ROOT
