@<TRIPOS>MOLECULE
008
   48    46     1     0     0
SMALL
bcc


@<TRIPOS>ATOM
      1 F7          0.1240    3.0100    4.4530 f         1 008     -0.106000
      2 C1          0.9000    1.9680    4.8280 c2        1 008      0.082000
      3 C2          1.4130    1.9160    6.1390 c2        1 008     -0.161000
      4 C3          2.3830    0.9830    6.4660 c1        1 008     -0.108000
      5 C4          2.8440    0.1070    5.5110 c1        1 008     -0.123750
      6 C5          2.3380    0.1550    4.2120 c1        1 008     -0.123750
      7 C6          1.3660    1.0880    3.8780 c1        1 008     -0.102000
      8 C8          0.8780    1.1930    2.4340 c3        1 008     -0.173000
      9 C9         -0.1900    0.1880    2.2030 c3        1 008     -0.007000
     10 N10        -1.4760    0.8220    2.2830 n3        1 008     -0.339000
     11 C11        -0.0130   -0.4360    0.8190 c3        1 008     -0.189000
     12 C12        -0.9410    0.2680   -0.1810 c2        1 008      0.292000
     13 O13        -1.5740    1.2700    0.1670 o         1 008     -0.350000
     14 N14        -1.1430   -0.3090   -1.5540 n         1 008     -0.296000
     15 C19        -2.0210    0.2590   -2.4230 c3        1 008     -0.019000
     16 C18        -1.6010    0.2980   -3.9310 c2        1 008     -0.103000
     17 C20        -2.3680    0.9410   -4.8870 c2        1 008     -0.117000
     18 C21        -1.9910    0.9020   -6.2150 c1        1 008     -0.126000
     19 C22        -0.8220    0.2060   -6.5970 c1        1 008     -0.123750
     20 C17        -0.4170   -0.4060   -4.3200 c1        1 008     -0.072000
     21 C23        -0.0470   -0.4430   -5.6340 c1        1 008     -0.123750
     22 C16         0.2900   -1.2820   -3.2590 c3        1 008     -0.138000
     23 C15        -0.4160   -1.4800   -1.9750 c3        1 008     -0.018000
     24 C24         0.5970   -2.0010   -0.8200 c2        1 008      0.299000
     25 O25         1.6320   -1.4200   -0.6250 o         1 008     -0.374000
     26 N26         0.3600   -3.2650   -0.1830 n         1 008     -0.422000
     27 H2          1.0940    2.5230    6.8000 ha        1 008      0.148000
     28 H3          2.7530    0.9450    7.4060 ha        1 008      0.137000
     29 H4          3.5430   -0.5650    5.7480 ha        1 008      0.136250
     30 H5          2.6660   -0.4650    3.5420 ha        1 008      0.136250
     31 H8C1        1.6080    1.0260    1.8380 hc        1 008      0.107000
     32 H8C2        0.5260    2.0890    2.2720 hc        1 008      0.107000
     33 H9         -0.1330   -0.4930    2.8680 h1        1 008      0.101000
     34 H101       -1.4280    1.5270    2.8340 hn        1 008      0.157500
     35 H102       -2.1040    0.2100    2.6130 hn        1 008      0.157500
     36 H111       -0.2300   -1.3570    0.8580 hc        1 008      0.125000
     37 H112        0.9520   -0.3280    0.5210 hc        1 008      0.125000
     38 H191       -2.8390   -0.2390   -2.3680 h1        1 008      0.121500
     39 H192       -2.1570    1.1590   -2.1430 h1        1 008      0.121500
     40 H20        -3.1520    1.4070   -4.6310 ha        1 008      0.136000
     41 H21        -2.5370    1.3590   -6.8950 ha        1 008      0.135000
     42 H22        -0.5690    0.1800   -7.4900 ha        1 008      0.136250
     43 H23         0.7370   -0.9100   -5.8920 ha        1 008      0.136250
     44 H161        1.1290   -0.8880   -3.0710 hc        1 008      0.114500
     45 H162        0.4460   -2.1420   -3.6440 hc        1 008      0.114500
     46 H15        -1.0140   -2.2300   -2.0410 h1        1 008      0.122000
     47 H261       -0.4580   -3.6460   -0.2240 hn        1 008      0.233000
     48 H262        1.0620   -3.6940    0.3070 hn        1 008      0.233000
@<TRIPOS>BOND
     1    1    2 1   
     2    2    3 1   
     3    2    7 1   
     4    3    4 1   
     5    3   27 1   
     6    4   28 1   
     7    5    6 1   
     8    5   29 1   
     9    6   30 1   
    10    7    8 1   
    11    8    9 1   
    12    8   31 1   
    13    8   32 1   
    14    9   10 1   
    15    9   11 1   
    16    9   33 1   
    17   10   34 1   
    18   10   35 1   
    19   11   12 1   
    20   11   36 1   
    21   11   37 1   
    22   12   13 1   
    23   12   14 1   
    24   14   15 1   
    25   14   23 1   
    26   15   16 1   
    27   15   38 1   
    28   15   39 1   
    29   16   17 1   
    30   16   20 1   
    31   17   18 1   
    32   17   40 1   
    33   18   41 1   
    34   19   21 1   
    35   19   42 1   
    36   20   22 1   
    37   21   43 1   
    38   22   23 1   
    39   22   44 1   
    40   22   45 1   
    41   23   24 1   
    42   23   46 1   
    43   24   25 1   
    44   24   26 1   
    45   26   47 1   
    46   26   48 1   
@<TRIPOS>SUBSTRUCTURE
     1 008         1 TEMP              0 ****  ****    0 ROOT
