@<TRIPOS>MOLECULE
008
   50    52     1     0     0
SMALL
bcc


@<TRIPOS>ATOM
      1 F7          0.0950   -0.3230    0.1810 f         1 008     -0.164900
      2 C1          1.4170   -0.0110    0.1040 ca        1 008      0.086900
      3 C2          2.1420    0.2340    1.2810 ca        1 008     -0.132000
      4 C3          3.4980    0.5450    1.1950 ca        1 008     -0.066000
      5 C4          4.1280    0.6100   -0.0490 ca        1 008     -0.116000
      6 C5          3.4040    0.3780   -1.2170 ca        1 008     -0.085000
      7 C6          2.0420    0.0660   -1.1640 ca        1 008     -0.201300
      8 C8          1.2480   -0.0690   -2.4110 c3        1 008     -0.049100
      9 C9          1.0770   -1.5300   -2.8650 c3        1 008      0.138500
     10 N10         0.5640   -2.3840   -1.7420 nz        1 008     -0.843600
     11 C11         0.1610   -1.5650   -4.0910 c3        1 008     -0.176400
     12 C12         0.0320   -2.9500   -4.6920 c         1 008      0.673100
     13 O13         0.5870   -3.9390   -4.1320 o         1 008     -0.732100
     14 N14        -0.7600   -3.1580   -5.7940 n         1 008     -0.419800
     15 C19        -1.2700   -2.0860   -6.6460 c3        1 008      0.127300
     16 C18        -0.8550   -2.2020   -8.0840 ca        1 008     -0.132300
     17 C20        -1.1030   -1.1160   -8.9300 ca        1 008     -0.105000
     18 C21        -0.7720   -1.1940  -10.2820 ca        1 008     -0.090000
     19 C22        -0.1920   -2.3560  -10.7950 ca        1 008     -0.091000
     20 C17        -0.2720   -3.3690   -8.5980 ca        1 008     -0.107300
     21 C23         0.0570   -3.4410   -9.9550 ca        1 008     -0.103000
     22 C16         0.0240   -4.5330   -7.7140 c3        1 008     -0.058100
     23 C15        -0.8450   -4.4600   -6.4480 c3        1 008      0.037700
     24 C24        -0.6230   -5.6160   -5.4740 c         1 008      0.553100
     25 O25        -1.4150   -6.0180   -4.6400 o         1 008     -0.384100
     26 N26         0.6780   -6.3710   -5.5520 nz        1 008     -0.750400
     27 H2          1.6310    0.1950    2.2570 ha        1 008      0.179000
     28 H3          4.0700    0.7490    2.1170 ha        1 008      0.176000
     29 H4          5.2000    0.8630   -0.1100 ha        1 008      0.171000
     30 H5          3.9060    0.4640   -2.1940 ha        1 008      0.149000
     31 H8C1        1.7590    0.4800   -3.2500 hc        1 008      0.097700
     32 H8C2        0.2350    0.4020   -2.2670 hc        1 008      0.097700
     33 H9          2.0880   -1.9610   -3.1430 hx        1 008      0.120700
     34 H101        1.2320   -2.3370   -0.9610 hn        1 008      0.471133
     35 H102        0.4610   -3.3550   -2.0610 hn        1 008      0.471133
     36 H111       -0.8600   -1.1650   -3.8400 hc        1 008      0.123700
     37 H112        0.6200   -0.8720   -4.8540 hc        1 008      0.123700
     38 H191       -2.4000   -2.1270   -6.5880 h1        1 008      0.087700
     39 H192       -0.9380   -1.0870   -6.2430 h1        1 008      0.087700
     40 H20        -1.5680   -0.2010   -8.5320 ha        1 008      0.151000
     41 H21        -0.9730   -0.3380  -10.9470 ha        1 008      0.169000
     42 H22         0.0660   -2.4190  -11.8650 ha        1 008      0.169000
     43 H23         0.5110   -4.3570  -10.3650 ha        1 008      0.149000
     44 H161       -0.2040   -5.4890   -8.2570 hc        1 008      0.068200
     45 H162        1.1180   -4.5130   -7.4610 hc        1 008      0.068200
     46 H15        -1.9370   -4.5760   -6.7730 h1        1 008      0.152700
     47 H261        0.6360   -7.2100   -4.9570 hn        1 008      0.478800
     48 H262        0.8830   -6.6470   -6.5170 hn        1 008      0.478800
     49 H103       -0.3370   -2.0240   -1.4040 hn        1 008      0.471133
     50 H263        1.4260   -5.7520   -5.2060 hn        1 008      0.478800
@<TRIPOS>BOND
     1    1    2 1   
     2    2    3 ar  
     3    2    7 ar  
     4    3    4 ar  
     5    3   27 1   
     6    4    5 ar  
     7    4   28 1   
     8    5    6 ar  
     9    5   29 1   
    10    6    7 ar  
    11    6   30 1   
    12    7    8 1   
    13    8    9 1   
    14    8   31 1   
    15    8   32 1   
    16    9   10 1   
    17    9   11 1   
    18    9   33 1   
    19   10   34 1   
    20   10   35 1   
    21   10   49 1   
    22   11   12 1   
    23   11   36 1   
    24   11   37 1   
    25   12   13 2   
    26   12   14 1   
    27   14   15 1   
    28   14   23 1   
    29   15   16 1   
    30   15   38 1   
    31   15   39 1   
    32   16   17 ar  
    33   16   20 ar  
    34   17   18 ar  
    35   17   40 1   
    36   18   19 ar  
    37   18   41 1   
    38   19   21 ar  
    39   19   42 1   
    40   20   21 ar  
    41   20   22 1   
    42   21   43 1   
    43   22   23 1   
    44   22   44 1   
    45   22   45 1   
    46   23   24 1   
    47   23   46 1   
    48   24   25 2   
    49   24   26 1   
    50   26   47 1   
    51   26   48 1   
    52   26   50 1   
@<TRIPOS>SUBSTRUCTURE
     1 008         1 TEMP              0 ****  ****    0 ROOT
