@<TRIPOS>MOLECULE
008
   50    52     1     0     0
SMALL
bcc


@<TRIPOS>ATOM
      1 F7          0.0840   -0.3240    0.1810 f         1 008     -0.164900
      2 C1          1.4050   -0.0070    0.1050 ca        1 008      0.086900
      3 C2          2.1280    0.2410    1.2830 ca        1 008     -0.132000
      4 C3          3.4840    0.5550    1.1980 ca        1 008     -0.066000
      5 C4          4.1150    0.6220   -0.0450 ca        1 008     -0.116000
      6 C5          3.3920    0.3870   -1.2140 ca        1 008     -0.085000
      7 C6          2.0300    0.0700   -1.1620 ca        1 008     -0.201300
      8 C8          1.2380   -0.0680   -2.4100 c3        1 008     -0.049100
      9 C9          1.0730   -1.5300   -2.8630 c3        1 008      0.138500
     10 N10         0.5610   -2.3840   -1.7400 n4        1 008     -0.843600
     11 C11         0.1590   -1.5680   -4.0900 c3        1 008     -0.176400
     12 C12         0.0350   -2.9530   -4.6910 c         1 008      0.673100
     13 O13         0.5920   -3.9410   -4.1290 o         1 008     -0.732100
     14 N14        -0.7560   -3.1640   -5.7930 n         1 008     -0.419800
     15 C19        -1.2670   -2.0940   -6.6470 c3        1 008      0.127300
     16 C18        -0.8500   -2.2100   -8.0840 ca        1 008     -0.132300
     17 C20        -1.1010   -1.1260   -8.9310 ca        1 008     -0.105000
     18 C21        -0.7670   -1.2040  -10.2830 ca        1 008     -0.090000
     19 C22        -0.1830   -2.3630  -10.7930 ca        1 008     -0.091000
     20 C17        -0.2630   -3.3760   -8.5960 ca        1 008     -0.107300
     21 C23         0.0690   -3.4470   -9.9530 ca        1 008     -0.103000
     22 C16         0.0350   -4.5380   -7.7110 c3        1 008     -0.058100
     23 C15        -0.8350   -4.4680   -6.4470 c3        1 008      0.037700
     24 C24        -0.6110   -5.6220   -5.4720 c         1 008      0.553100
     25 O25        -1.4030   -6.0260   -4.6390 o         1 008     -0.384100
     26 N26         0.6930   -6.3730   -5.5470 n4        1 008     -0.750400
     27 H2          1.6160    0.2000    2.2580 ha        1 008      0.179000
     28 H3          4.0540    0.7620    2.1200 ha        1 008      0.176000
     29 H4          5.1860    0.8790   -0.1050 ha        1 008      0.171000
     30 H5          3.8950    0.4740   -2.1910 ha        1 008      0.149000
     31 H8C1        0.2250    0.4000   -2.2670 hc        1 008      0.097700
     32 H8C2        1.7490    0.4820   -3.2480 hc        1 008      0.097700
     33 H9          2.0860   -1.9580   -3.1400 hx        1 008      0.120700
     34 H101        1.2280   -2.3350   -0.9580 hn        1 008      0.471133
     35 H102        0.4610   -3.3560   -2.0590 hn        1 008      0.471133
     36 H111        0.6160   -0.8730   -4.8530 hc        1 008      0.123700
     37 H112       -0.8640   -1.1710   -3.8410 hc        1 008      0.123700
     38 H191       -2.3980   -2.1390   -6.5900 h1        1 008      0.087700
     39 H192       -0.9400   -1.0950   -6.2440 h1        1 008      0.087700
     40 H20        -1.5690   -0.2110   -8.5340 ha        1 008      0.151000
     41 H21        -0.9700   -0.3480  -10.9480 ha        1 008      0.169000
     42 H22         0.0770   -2.4260  -11.8640 ha        1 008      0.169000
     43 H23         0.5260   -4.3620  -10.3620 ha        1 008      0.149000
     44 H161       -0.1880   -5.4960   -8.2550 hc        1 008      0.068200
     45 H162        1.1290   -4.5140   -7.4570 hc        1 008      0.068200
     46 H15        -1.9260   -4.5870   -6.7730 h1        1 008      0.152700
     47 H261        0.6530   -7.2120   -4.9530 hn        1 008      0.478800
     48 H262        0.9000   -6.6490   -6.5120 hn        1 008      0.478800
     49 H103       -0.3410   -2.0270   -1.4040 hn        1 008      0.471133
     50 H263        1.4380   -5.7520   -5.2010 hn        1 008      0.478800
@<TRIPOS>BOND
     1    1    2 1   
     2    2    3 ar  
     3    2    7 ar  
     4    3    4 ar  
     5    3   27 1   
     6    4    5 ar  
     7    4   28 1   
     8    5    6 ar  
     9    5   29 1   
    10    6    7 ar  
    11    6   30 1   
    12    7    8 1   
    13    8    9 1   
    14    8   31 1   
    15    8   32 1   
    16    9   10 1   
    17    9   11 1   
    18    9   33 1   
    19   10   34 1   
    20   10   35 1   
    21   10   49 1   
    22   11   12 1   
    23   11   36 1   
    24   11   37 1   
    25   12   13 2   
    26   12   14 1   
    27   14   15 1   
    28   14   23 1   
    29   15   16 1   
    30   15   38 1   
    31   15   39 1   
    32   16   17 ar  
    33   16   20 ar  
    34   17   18 ar  
    35   17   40 1   
    36   18   19 ar  
    37   18   41 1   
    38   19   21 ar  
    39   19   42 1   
    40   20   21 ar  
    41   20   22 1   
    42   21   43 1   
    43   22   23 1   
    44   22   44 1   
    45   22   45 1   
    46   23   24 1   
    47   23   46 1   
    48   24   25 2   
    49   24   26 1   
    50   26   47 1   
    51   26   48 1   
    52   26   50 1   
@<TRIPOS>SUBSTRUCTURE
     1 008         1 TEMP              0 ****  ****    0 ROOT
