@<TRIPOS>MOLECULE
008
   50    52     1     0     0
SMALL
bcc


@<TRIPOS>ATOM
      1 F7          0.0880   -0.3110    0.1760 f         1 008     -0.164900
      2 C1          1.4120   -0.0050    0.1040 ca        1 008      0.086900
      3 C2          2.1340    0.2390    1.2830 ca        1 008     -0.132000
      4 C3          3.4920    0.5430    1.2020 ca        1 008     -0.066000
      5 C4          4.1270    0.6030   -0.0390 ca        1 008     -0.116000
      6 C5          3.4060    0.3730   -1.2100 ca        1 008     -0.085000
      7 C6          2.0420    0.0660   -1.1610 ca        1 008     -0.201300
      8 C8          1.2520   -0.0670   -2.4120 c3        1 008     -0.049100
      9 C9          1.0780   -1.5280   -2.8640 c3        1 008      0.138500
     10 N10         0.5560   -2.3780   -1.7420 n4        1 008     -0.843600
     11 C11         0.1660   -1.5610   -4.0940 c3        1 008     -0.176400
     12 C12         0.0330   -2.9460   -4.6930 c         1 008      0.673100
     13 O13         0.5820   -3.9370   -4.1290 o         1 008     -0.732100
     14 N14        -0.7560   -3.1520   -5.7970 n         1 008     -0.419800
     15 C19        -1.2580   -2.0790   -6.6520 c3        1 008      0.127300
     16 C18        -0.8400   -2.2000   -8.0890 ca        1 008     -0.132300
     17 C20        -1.0820   -1.1150   -8.9380 ca        1 008     -0.105000
     18 C21        -0.7480   -1.1980  -10.2890 ca        1 008     -0.090000
     19 C22        -0.1720   -2.3630  -10.7980 ca        1 008     -0.091000
     20 C17        -0.2610   -3.3720   -8.5990 ca        1 008     -0.107300
     21 C23         0.0710   -3.4480   -9.9560 ca        1 008     -0.103000
     22 C16         0.0270   -4.5340   -7.7120 c3        1 008     -0.058100
     23 C15        -0.8450   -4.4560   -6.4490 c3        1 008      0.038700
     24 C24        -0.6310   -5.6100   -5.4720 c         1 008      0.553100
     25 O25        -1.4270   -6.0070   -4.6400 o         1 008     -0.384100
     26 N26         0.6670   -6.3710   -5.5440 n4        1 008     -0.750400
     27 H2          1.6190    0.2030    2.2570 ha        1 008      0.179000
     28 H3          4.0610    0.7460    2.1260 ha        1 008      0.176000
     29 H4          5.2000    0.8520   -0.0970 ha        1 008      0.171000
     30 H5          3.9120    0.4550   -2.1850 ha        1 008      0.149000
     31 H8C1        0.2420    0.4080   -2.2720 hc        1 008      0.097700
     32 H8C2        1.7700    0.4780   -3.2490 hc        1 008      0.097700
     33 H9          2.0870   -1.9640   -3.1380 hx        1 008      0.120700
     34 H101        0.4500   -3.3490   -2.0590 hn        1 008      0.471133
     35 H102        1.2210   -2.3320   -0.9580 hn        1 008      0.471133
     36 H111       -0.8540   -1.1560   -3.8470 hc        1 008      0.123700
     37 H112        0.6310   -0.8710   -4.8560 hc        1 008      0.123700
     38 H191       -2.3890   -2.1150   -6.5970 h1        1 008      0.087700
     39 H192       -0.9230   -1.0820   -6.2510 h1        1 008      0.087700
     40 H20        -1.5440   -0.1970   -8.5430 ha        1 008      0.151000
     41 H21        -0.9430   -0.3410  -10.9560 ha        1 008      0.169000
     42 H22         0.0890   -2.4290  -11.8670 ha        1 008      0.169000
     43 H23         0.5220   -4.3660  -10.3630 ha        1 008      0.149000
     44 H161        1.1210   -4.5190   -7.4560 hc        1 008      0.068200
     45 H162       -0.2030   -5.4910   -8.2540 hc        1 008      0.068200
     46 H15        -1.9360   -4.5670   -6.7770 h1        1 008      0.152700
     47 H261        0.8740   -6.6500   -6.5080 hn        1 008      0.478800
     48 H262        0.6200   -7.2090   -4.9490 hn        1 008      0.478800
     49 H103       -0.3450   -2.0130   -1.4080 hn        1 008      0.471133
     50 H263        1.4170   -5.7550   -5.1970 hn        1 008      0.478800
@<TRIPOS>BOND
     1    1    2 1   
     2    2    3 ar  
     3    2    7 ar  
     4    3    4 ar  
     5    3   27 1   
     6    4    5 ar  
     7    4   28 1   
     8    5    6 ar  
     9    5   29 1   
    10    6    7 ar  
    11    6   30 1   
    12    7    8 1   
    13    8    9 1   
    14    8   31 1   
    15    8   32 1   
    16    9   10 1   
    17    9   11 1   
    18    9   33 1   
    19   10   34 1   
    20   10   35 1   
    21   10   49 1   
    22   11   12 1   
    23   11   36 1   
    24   11   37 1   
    25   12   13 2   
    26   12   14 1   
    27   14   15 1   
    28   14   23 1   
    29   15   16 1   
    30   15   38 1   
    31   15   39 1   
    32   16   17 ar  
    33   16   20 ar  
    34   17   18 ar  
    35   17   40 1   
    36   18   19 ar  
    37   18   41 1   
    38   19   21 ar  
    39   19   42 1   
    40   20   21 ar  
    41   20   22 1   
    42   21   43 1   
    43   22   23 1   
    44   22   44 1   
    45   22   45 1   
    46   23   24 1   
    47   23   46 1   
    48   24   25 2   
    49   24   26 1   
    50   26   47 1   
    51   26   48 1   
    52   26   50 1   
@<TRIPOS>SUBSTRUCTURE
     1 008         1 TEMP              0 ****  ****    0 ROOT
