@<TRIPOS>MOLECULE
009
   90    94     1     0     0
SMALL
bcc


@<TRIPOS>ATOM
      1 C           1.1520   -0.4970    0.3060 c         1 009      0.566100
      2 O           1.9070   -0.5750   -0.6500 o         1 009     -0.453100
      3 N           1.7370   -0.8070    1.6640 n4        1 009     -0.677800
      4 CA          3.2370   -0.7940    1.7230 c3        1 009      0.096500
      5 CB          3.7280   -0.5890    3.1670 c3        1 009     -0.047100
      6 CG          3.0730    0.5740    3.8220 ca        1 009     -0.181300
      7 CD1         2.0150    0.3730    4.7190 ca        1 009     -0.126500
      8 CD2         3.5430    1.8720    3.5870 ca        1 009     -0.126500
      9 CE1         1.4300    1.4600    5.3660 ca        1 009     -0.106500
     10 CE2         2.9560    2.9570    4.2360 ca        1 009     -0.106500
     11 CZ          1.8980    2.7530    5.1240 ca        1 009     -0.078000
     12 C1          3.8250   -2.0760    1.0840 c3        1 009      0.095100
     13 OG          3.3380   -3.2540    1.6850 oh        1 009     -0.588800
     14 C2          5.3640   -2.0400    1.1090 c3        1 009      0.068800
     15 N2          5.9530   -3.1800    0.3610 n4        1 009     -0.768000
     16 C20         7.4590   -3.2410    0.4980 c3        1 009      0.185100
     17 C21         7.9970   -4.3060   -0.3920 ca        1 009     -0.153300
     18 C22         8.1150   -4.0530   -1.7600 ca        1 009     -0.178000
     19 C23         8.6510   -5.0440   -2.5840 ca        1 009     -0.070000
     20 C24         9.0570   -6.2620   -2.0640 ca        1 009     -0.152000
     21 C25         8.9390   -6.5430   -0.6710 ca        1 009      0.213600
     22 C26         8.3940   -5.5260    0.1570 ca        1 009     -0.189000
     23 N27         9.2920   -7.7780   -0.1510 nh        1 009     -0.665000
     24 C28         9.9240   -8.7520   -1.0040 c3        1 009      0.189600
     25 C29         9.4240   -7.9340    1.2730 c3        1 009      0.189600
     26 C30        -0.3580   -0.1790    0.2630 c3        1 009      0.006400
     27 N31        -0.7690    0.5350    1.4680 n         1 009     -0.548900
     28 C32        -1.2060    1.8690    1.0840 c         1 009      0.750500
     29 O33        -1.5660    2.7060    1.9180 o         1 009     -0.546500
     30 N34        -1.1820    2.0200   -0.3270 n         1 009     -0.425800
     31 C35        -0.5980    0.8350   -0.9350 c3        1 009      0.060000
     32 C36        -0.9590    3.3180   -0.9250 c3        1 009      0.124300
     33 C41         0.4650    3.7860   -0.9760 ca        1 009     -0.154300
     34 C42         1.2420    3.5630   -2.1170 ca        1 009     -0.117000
     35 C43         0.9980    4.5090    0.0970 ca        1 009     -0.117000
     36 C44         2.2980    5.0090    0.0240 ca        1 009     -0.132500
     37 C45         2.5410    4.0630   -2.1870 ca        1 009     -0.132500
     38 C46         3.0700    4.7880   -1.1180 ca        1 009     -0.114000
     39 C51        -1.0810   -1.5120   -0.0090 c3        1 009     -0.056100
     40 C52        -0.1680   -4.2910    2.3980 ca        1 009     -0.110500
     41 C53        -1.2150   -4.2140    3.3180 ca        1 009     -0.104000
     42 C54        -2.2080   -3.2480    3.1590 ca        1 009     -0.110500
     43 C55        -2.1540   -2.3570    2.0860 ca        1 009     -0.151500
     44 C56        -1.0990   -2.4220    1.1660 ca        1 009     -0.140300
     45 C57        -0.1080   -3.4000    1.3280 ca        1 009     -0.151500
     46 HN          1.3810   -1.7360    1.9520 hn        1 009      0.491800
     47 HA          3.5760    0.0920    1.1010 hx        1 009      0.127700
     48 HB          4.8370   -0.4110    3.1220 hc        1 009      0.073700
     49 HBA         3.5500   -1.5190    3.7710 hc        1 009      0.073700
     50 HD1         1.6650   -0.6460    4.9450 ha        1 009      0.131000
     51 HD2         4.3890    2.0390    2.9030 ha        1 009      0.131000
     52 HE1         0.6040    1.2980    6.0770 ha        1 009      0.162500
     53 HE2         3.3350    3.9760    4.0550 ha        1 009      0.162500
     54 HZ          1.4370    3.6120    5.6410 ha        1 009      0.170000
     55 H1          3.4590   -2.1490    0.0110 h1        1 009      0.125700
     56 HOG         3.5790   -3.2560    2.6230 ho        1 009      0.431000
     57 H2          5.7380   -2.0980    2.1720 hx        1 009      0.117700
     58 H2A         5.7290   -1.0770    0.6480 hx        1 009      0.117700
     59 HN2         5.5450   -4.0610    0.7040 hn        1 009      0.460300
     60 H20         7.6970   -3.4400    1.5810 hx        1 009      0.106200
     61 H20A        7.8640   -2.2300    0.2060 hx        1 009      0.106200
     62 H22         7.8290   -3.0800   -2.1840 ha        1 009      0.129000
     63 H23         8.7630   -4.8510   -3.6640 ha        1 009      0.160000
     64 H24         9.4870   -7.0120   -2.7490 ha        1 009      0.165000
     65 H26         8.3020   -5.6840    1.2420 ha        1 009      0.138000
     66 H28        10.9010   -8.3710   -1.4090 h1        1 009      0.053533
     67 H28A        9.2420   -8.9970   -1.8620 h1        1 009      0.053533
     68 H28B       10.1160   -9.6950   -0.4270 h1        1 009      0.053533
     69 H29         8.4100   -7.8600    1.7530 h1        1 009      0.053533
     70 H29A       10.0930   -7.1450    1.7130 h1        1 009      0.053533
     71 H29B        9.8550   -8.9410    1.5140 h1        1 009      0.053533
     72 HN31       -1.4160    0.0450    2.0550 hn        1 009      0.323500
     73 H35         0.3570    1.0660   -1.4810 h1        1 009      0.093200
     74 H35A       -1.3370    0.3930   -1.6580 h1        1 009      0.093200
     75 H36        -1.5790    4.0570   -0.3340 h1        1 009      0.097700
     76 H36A       -1.3770    3.2610   -1.9730 h1        1 009      0.097700
     77 H42         0.8170    3.0210   -2.9760 ha        1 009      0.143000
     78 H43         0.3790    4.7030    0.9880 ha        1 009      0.143000
     79 H44         2.7050    5.6020    0.8570 ha        1 009      0.144500
     80 H45         3.1410    3.9080   -3.0970 ha        1 009      0.144500
     81 H46         4.0870    5.2050   -1.1850 ha        1 009      0.146000
     82 H51        -2.1400   -1.2700   -0.3120 hc        1 009      0.099700
     83 H51A       -0.5930   -2.0100   -0.8900 hc        1 009      0.099700
     84 H54        -3.0500   -3.1990    3.8700 ha        1 009      0.157000
     85 H55        -2.9680   -1.6270    1.9470 ha        1 009      0.138000
     86 H57         0.6860   -3.5130    0.5730 ha        1 009      0.138000
     87 H52         0.5960   -5.0770    2.5000 ha        1 009      0.157000
     88 H21         1.3900   -0.1010    2.3450 hn        1 009      0.491800
     89 H221        5.7240   -3.1060   -0.6400 hn        1 009      0.460300
     90 H53        -1.2700   -4.9300    4.1540 ha        1 009      0.164000
@<TRIPOS>BOND
     1    1    2 2   
     2    1    3 1   
     3    1   26 1   
     4    3    4 1   
     5    3   46 1   
     6    3   88 1   
     7    4    5 1   
     8    4   12 1   
     9    4   47 1   
    10    5    6 1   
    11    5   48 1   
    12    5   49 1   
    13    6    7 ar  
    14    6    8 ar  
    15    7    9 ar  
    16    7   50 1   
    17    8   10 ar  
    18    8   51 1   
    19    9   11 ar  
    20    9   52 1   
    21   10   11 ar  
    22   10   53 1   
    23   11   54 1   
    24   12   13 1   
    25   12   14 1   
    26   12   55 1   
    27   13   56 1   
    28   14   15 1   
    29   14   57 1   
    30   14   58 1   
    31   15   16 1   
    32   15   59 1   
    33   15   89 1   
    34   16   17 1   
    35   16   60 1   
    36   16   61 1   
    37   17   18 ar  
    38   17   22 ar  
    39   18   19 ar  
    40   18   62 1   
    41   19   20 ar  
    42   19   63 1   
    43   20   21 ar  
    44   20   64 1   
    45   21   22 ar  
    46   21   23 1   
    47   22   65 1   
    48   23   24 1   
    49   23   25 1   
    50   24   66 1   
    51   24   67 1   
    52   24   68 1   
    53   25   69 1   
    54   25   70 1   
    55   25   71 1   
    56   26   27 1   
    57   26   31 1   
    58   26   39 1   
    59   27   28 1   
    60   27   72 1   
    61   28   29 2   
    62   28   30 1   
    63   30   31 1   
    64   30   32 1   
    65   31   73 1   
    66   31   74 1   
    67   32   33 1   
    68   32   75 1   
    69   32   76 1   
    70   33   34 ar  
    71   33   35 ar  
    72   34   37 ar  
    73   34   77 1   
    74   35   36 ar  
    75   35   78 1   
    76   36   38 ar  
    77   36   79 1   
    78   37   38 ar  
    79   37   80 1   
    80   38   81 1   
    81   39   44 1   
    82   39   82 1   
    83   39   83 1   
    84   40   41 ar  
    85   40   45 ar  
    86   40   87 1   
    87   41   42 ar  
    88   41   90 1   
    89   42   43 ar  
    90   42   84 1   
    91   43   44 ar  
    92   43   85 1   
    93   44   45 ar  
    94   45   86 1   
@<TRIPOS>SUBSTRUCTURE
     1 009         1 TEMP              0 ****  ****    0 ROOT
