@<TRIPOS>MOLECULE
009
   90    94     1     0     0
SMALL
bcc


@<TRIPOS>ATOM
      1 C           1.1500   -0.5100    0.2870 c         1 009      0.566100
      2 O           1.9150   -0.5820   -0.6630 o         1 009     -0.453100
      3 N           1.7240   -0.8240    1.6490 ny        1 009     -0.677800
      4 CA          3.2240   -0.8060    1.7220 c3        1 009      0.096500
      5 CB          3.7000   -0.6060    3.1710 c3        1 009     -0.047100
      6 CG          3.0360    0.5520    3.8250 ca        1 009     -0.181300
      7 CD1         1.9700    0.3430    4.7110 ca        1 009     -0.126500
      8 CD2         3.5040    1.8530    3.6010 ca        1 009     -0.126500
      9 CE1         1.3750    1.4250    5.3580 ca        1 009     -0.106500
     10 CE2         2.9060    2.9320    4.2490 ca        1 009     -0.106500
     11 CZ          1.8410    2.7210    5.1270 ca        1 009     -0.078000
     12 C1          3.8210   -2.0840    1.0830 c3        1 009      0.095100
     13 OG          3.3330   -3.2650    1.6740 oh        1 009     -0.588800
     14 C2          5.3600   -2.0430    1.1210 c3        1 009      0.068800
     15 N2          5.9600   -3.1790    0.3750 ny        1 009     -0.768000
     16 C20         7.4640   -3.2350    0.5240 c3        1 009      0.185100
     17 C21         8.0130   -4.2960   -0.3630 ca        1 009     -0.153300
     18 C22         8.1420   -4.0380   -1.7300 ca        1 009     -0.178000
     19 C23         8.6880   -5.0260   -2.5520 ca        1 009     -0.070000
     20 C24         9.0940   -6.2440   -2.0310 ca        1 009     -0.152000
     21 C25         8.9650   -6.5290   -0.6400 ca        1 009      0.213600
     22 C26         8.4090   -5.5160    0.1860 ca        1 009     -0.189000
     23 N27         9.3170   -7.7640   -0.1210 nh        1 009     -0.665000
     24 C28         9.9600   -8.7330   -0.9700 c3        1 009      0.189600
     25 C29         9.4360   -7.9240    1.3040 c3        1 009      0.189600
     26 C30        -0.3600   -0.1970    0.2310 c3        1 009      0.006400
     27 N31        -0.7840    0.5110    1.4350 ns        1 009     -0.548900
     28 C32        -1.2230    1.8450    1.0520 c         1 009      0.750500
     29 O33        -1.5940    2.6780    1.8850 o         1 009     -0.546500
     30 N34        -1.1860    2.0010   -0.3580 n         1 009     -0.425800
     31 C35        -0.5930    0.8210   -0.9650 c3        1 009      0.060000
     32 C36        -0.9630    3.3020   -0.9500 c3        1 009      0.124300
     33 C41         0.4600    3.7760   -0.9850 ca        1 009     -0.154300
     34 C42         1.2480    3.5610   -2.1190 ca        1 009     -0.117000
     35 C43         0.9810    4.4960    0.0960 ca        1 009     -0.117000
     36 C44         2.2790    5.0010    0.0380 ca        1 009     -0.132500
     37 C45         2.5470    4.0660   -2.1740 ca        1 009     -0.132500
     38 C46         3.0620    4.7880   -1.0970 ca        1 009     -0.114000
     39 C51        -1.0760   -1.5320   -0.0520 c3        1 009     -0.056100
     40 C52        -0.1750   -4.3160    2.3530 ca        1 009     -0.110500
     41 C53        -1.2310   -4.2470    3.2640 ca        1 009     -0.104000
     42 C54        -2.2260   -3.2830    3.0990 ca        1 009     -0.110500
     43 C55        -2.1640   -2.3880    2.0300 ca        1 009     -0.151500
     44 C56        -1.1020   -2.4460    1.1200 ca        1 009     -0.140300
     45 C57        -0.1080   -3.4210    1.2870 ca        1 009     -0.151500
     46 HN          1.3690   -1.7550    1.9300 hn        1 009      0.491800
     47 HA          3.5660    0.0830    1.1060 hx        1 009      0.127700
     48 HB          4.8090   -0.4240    3.1370 hc        1 009      0.073700
     49 HBA         3.5210   -1.5400    3.7690 hc        1 009      0.073700
     50 HD1         1.6210   -0.6780    4.9300 ha        1 009      0.131000
     51 HD2         4.3550    2.0250    2.9250 ha        1 009      0.131000
     52 HE1         0.5430    1.2570    6.0610 ha        1 009      0.162500
     53 HE2         3.2840    3.9540    4.0770 ha        1 009      0.162500
     54 HZ          1.3730    3.5760    5.6430 ha        1 009      0.170000
     55 H1          3.4660   -2.1530    0.0060 h1        1 009      0.125700
     56 HOG         3.5650   -3.2710    2.6150 ho        1 009      0.431000
     57 H2          5.7240   -2.1040    2.1880 hx        1 009      0.117700
     58 H2A         5.7270   -1.0770    0.6680 hx        1 009      0.117700
     59 HN2         5.5520   -4.0620    0.7100 hn        1 009      0.460300
     60 H20         7.6940   -3.4370    1.6090 hx        1 009      0.106200
     61 H20A        7.8690   -2.2220    0.2390 hx        1 009      0.106200
     62 H22         7.8570   -3.0660   -2.1540 ha        1 009      0.129000
     63 H23         8.8090   -4.8300   -3.6310 ha        1 009      0.161000
     64 H24         9.5320   -6.9910   -2.7150 ha        1 009      0.165000
     65 H26         8.3090   -5.6770    1.2700 ha        1 009      0.138000
     66 H28        10.9390   -8.3480   -1.3660 h1        1 009      0.053533
     67 H28A       10.1510   -9.6780   -0.3950 h1        1 009      0.053533
     68 H28B        9.2870   -8.9790   -1.8350 h1        1 009      0.053533
     69 H29         9.8670   -8.9310    1.5460 h1        1 009      0.053533
     70 H29A        8.4180   -7.8540    1.7750 h1        1 009      0.053533
     71 H29B       10.0990   -7.1340    1.7520 h1        1 009      0.053533
     72 HN31       -1.4350    0.0160    2.0140 hn        1 009      0.323500
     73 H35         0.3660    1.0570   -1.5020 h1        1 009      0.093200
     74 H35A       -1.3230    0.3780   -1.6960 h1        1 009      0.093200
     75 H36        -1.3700    3.2470   -2.0020 h1        1 009      0.097700
     76 H36A       -1.5910    4.0370   -0.3620 h1        1 009      0.097700
     77 H42         0.8350    3.0210   -2.9850 ha        1 009      0.143000
     78 H43         0.3520    4.6830    0.9820 ha        1 009      0.143000
     79 H44         2.6760    5.5910    0.8780 ha        1 009      0.144500
     80 H45         3.1560    3.9170   -3.0790 ha        1 009      0.144500
     81 H46         4.0780    5.2090   -1.1520 ha        1 009      0.146000
     82 H51        -0.5780   -2.0240   -0.9300 hc        1 009      0.099700
     83 H51A       -2.1320   -1.2920   -0.3640 hc        1 009      0.099700
     84 H54        -3.0750   -3.2390    3.8020 ha        1 009      0.157000
     85 H55        -2.9800   -1.6600    1.8860 ha        1 009      0.138000
     86 H57         0.6930   -3.5290    0.5390 ha        1 009      0.138000
     87 H52         0.5910   -5.1000    2.4590 ha        1 009      0.157000
     88 H21         1.3690   -0.1210    2.3290 hn        1 009      0.491800
     89 H221        5.7390   -3.1010   -0.6270 hn        1 009      0.460300
     90 H53        -1.2920   -4.9660    4.0970 ha        1 009      0.164000
@<TRIPOS>BOND
     1    1    2 2   
     2    1    3 1   
     3    1   26 1   
     4    3    4 1   
     5    3   46 1   
     6    3   88 1   
     7    4    5 1   
     8    4   12 1   
     9    4   47 1   
    10    5    6 1   
    11    5   48 1   
    12    5   49 1   
    13    6    7 ar  
    14    6    8 ar  
    15    7    9 ar  
    16    7   50 1   
    17    8   10 ar  
    18    8   51 1   
    19    9   11 ar  
    20    9   52 1   
    21   10   11 ar  
    22   10   53 1   
    23   11   54 1   
    24   12   13 1   
    25   12   14 1   
    26   12   55 1   
    27   13   56 1   
    28   14   15 1   
    29   14   57 1   
    30   14   58 1   
    31   15   16 1   
    32   15   59 1   
    33   15   89 1   
    34   16   17 1   
    35   16   60 1   
    36   16   61 1   
    37   17   18 ar  
    38   17   22 ar  
    39   18   19 ar  
    40   18   62 1   
    41   19   20 ar  
    42   19   63 1   
    43   20   21 ar  
    44   20   64 1   
    45   21   22 ar  
    46   21   23 1   
    47   22   65 1   
    48   23   24 1   
    49   23   25 1   
    50   24   66 1   
    51   24   67 1   
    52   24   68 1   
    53   25   69 1   
    54   25   70 1   
    55   25   71 1   
    56   26   27 1   
    57   26   31 1   
    58   26   39 1   
    59   27   28 1   
    60   27   72 1   
    61   28   29 2   
    62   28   30 1   
    63   30   31 1   
    64   30   32 1   
    65   31   73 1   
    66   31   74 1   
    67   32   33 1   
    68   32   75 1   
    69   32   76 1   
    70   33   34 ar  
    71   33   35 ar  
    72   34   37 ar  
    73   34   77 1   
    74   35   36 ar  
    75   35   78 1   
    76   36   38 ar  
    77   36   79 1   
    78   37   38 ar  
    79   37   80 1   
    80   38   81 1   
    81   39   44 1   
    82   39   82 1   
    83   39   83 1   
    84   40   41 ar  
    85   40   45 ar  
    86   40   87 1   
    87   41   42 ar  
    88   41   90 1   
    89   42   43 ar  
    90   42   84 1   
    91   43   44 ar  
    92   43   85 1   
    93   44   45 ar  
    94   45   86 1   
@<TRIPOS>SUBSTRUCTURE
     1 009         1 TEMP              0 ****  ****    0 ROOT
