@<TRIPOS>MOLECULE
009
   88    92     1     0     0
SMALL
bcc


@<TRIPOS>ATOM
      1 C          -1.6930    0.6500    1.0170 c         1 009      0.670100
      2 O          -1.6630    0.2700    2.2080 o         1 009     -0.622100
      3 N          -1.0150   -0.0180    0.0270 n         1 009     -0.534900
      4 CA         -0.0120   -1.0170    0.3270 c3        1 009      0.072700
      5 CB         -0.2130   -2.3000   -0.5050 c3        1 009     -0.048100
      6 CG         -1.3470   -3.1190   -0.0020 ca        1 009     -0.081300
      7 CD1        -2.6290   -2.9660   -0.5420 ca        1 009     -0.120000
      8 CD2        -1.1380   -4.0620    1.0120 ca        1 009     -0.120000
      9 CE1        -3.6870   -3.7430   -0.0720 ca        1 009     -0.128500
     10 CE2        -2.1960   -4.8410    1.4770 ca        1 009     -0.128500
     11 CZ         -3.4710   -4.6830    0.9360 ca        1 009     -0.129000
     12 C1          1.4170   -0.4440    0.1030 c3        1 009      0.100100
     13 OG          1.7200   -0.3000   -1.2710 oh        1 009     -0.595800
     14 C2          2.4690   -1.3090    0.8210 c3        1 009      0.136800
     15 N2          3.7630   -0.6630    0.8690 n3        1 009     -0.822200
     16 C20         4.8330   -1.5570    1.2670 c3        1 009      0.210100
     17 C21         6.2020   -1.0020    0.9920 ca        1 009     -0.054300
     18 C22         7.0530   -0.6880    2.0530 ca        1 009     -0.155000
     19 C23         8.3320   -0.2080    1.7800 ca        1 009     -0.097000
     20 C24         8.7670   -0.0300    0.4730 ca        1 009     -0.183000
     21 C25         7.9120   -0.3260   -0.6180 ca        1 009      0.161600
     22 C26         6.6210   -0.8280   -0.3270 ca        1 009     -0.187000
     23 N27         8.3090   -0.0580   -1.9440 nh        1 009     -0.654000
     24 C28         9.7240    0.0660   -2.1900 c3        1 009      0.184100
     25 C29         7.5350   -0.6590   -2.9990 c3        1 009      0.184100
     26 C30        -2.5300    1.9070    0.6790 c3        1 009      0.004400
     27 N31        -2.6090    2.2280   -0.7520 n         1 009     -0.517900
     28 C32        -3.9810    2.4070   -1.1120 c         1 009      0.758500
     29 O33        -4.3600    2.7760   -2.2390 o         1 009     -0.626500
     30 N34        -4.8350    2.1270   -0.0050 n         1 009     -0.441800
     31 C35        -4.0280    1.6220    1.0990 c3        1 009      0.064000
     32 C36        -6.1680    1.6270   -0.2140 c3        1 009      0.134300
     33 C41        -6.3050    0.2160   -0.7100 ca        1 009     -0.133300
     34 C42        -6.7350   -0.8000    0.1490 ca        1 009     -0.112000
     35 C43        -6.0490   -0.0740   -2.0550 ca        1 009     -0.112000
     36 C44        -6.2300   -1.3690   -2.5370 ca        1 009     -0.134500
     37 C45        -6.9160   -2.0950   -0.3370 ca        1 009     -0.134500
     38 C46        -6.6650   -2.3800   -1.6790 ca        1 009     -0.127000
     39 C51        -1.9750    3.0610    1.5420 c3        1 009     -0.054100
     40 C52         1.7790    3.3180    1.1440 ca        1 009     -0.125000
     41 C53         1.8930    4.3970    0.2670 ca        1 009     -0.122000
     42 C54         0.7460    5.0430   -0.1930 ca        1 009     -0.125000
     43 C55        -0.5150    4.6090    0.2170 ca        1 009     -0.131500
     44 C56        -0.6350    3.5250    1.0930 ca        1 009     -0.103300
     45 C57         0.5210    2.8850    1.5590 ca        1 009     -0.131500
     46 HN         -1.0130    0.3320   -0.9030 hn        1 009      0.331500
     47 HA         -0.1040   -1.2880    1.4230 h1        1 009      0.102700
     48 HB         -0.3780   -2.0370   -1.5850 hc        1 009      0.052200
     49 HBA         0.7320   -2.9040   -0.4470 hc        1 009      0.052200
     50 HD1        -2.8030   -2.2230   -1.3350 ha        1 009      0.131500
     51 HD2        -0.1340   -4.1850    1.4450 ha        1 009      0.131500
     52 HE1        -4.6960   -3.6030   -0.4930 ha        1 009      0.134000
     53 HE2        -2.0230   -5.5790    2.2730 ha        1 009      0.134000
     54 HZ         -4.3060   -5.2960    1.3050 ha        1 009      0.129000
     55 H1          1.4650    0.6170    0.4990 h1        1 009      0.103700
     56 HOG         1.7420   -1.1820   -1.6620 ho        1 009      0.396000
     57 H2          2.1350   -1.4780    1.8840 h1        1 009      0.035200
     58 H2A         2.5160   -2.3190    0.3150 h1        1 009      0.035200
     59 HN2         3.9690   -0.2130   -0.0050 hn        1 009      0.373800
     60 H20         4.7120   -1.7440    2.3730 h1        1 009      0.036200
     61 H20A        4.7610   -2.5650    0.7520 h1        1 009      0.036200
     62 H22         6.7170   -0.8160    3.0920 ha        1 009      0.135000
     63 H23         9.0100    0.0370    2.6120 ha        1 009      0.130000
     64 H24         9.7840    0.3530    0.3040 ha        1 009      0.133000
     65 H26         5.9250   -1.0910   -1.1370 ha        1 009      0.130000
     66 H28        10.3100   -0.8060   -1.7900 h1        1 009      0.037533
     67 H28A        9.9150    0.1490   -3.2920 h1        1 009      0.037533
     68 H28B       10.0960    1.0050   -1.7000 h1        1 009      0.037533
     69 H29         6.5030   -0.2180   -2.9900 h1        1 009      0.037533
     70 H29A        8.0030   -0.4290   -3.9930 h1        1 009      0.037533
     71 H29B        7.4520   -1.7760   -2.8940 h1        1 009      0.037533
     72 HN31       -1.9730    2.9220   -1.0810 hn        1 009      0.317500
     73 H35        -4.1820    0.5240    1.2790 h1        1 009      0.073200
     74 H35A       -4.2880    2.1860    2.0330 h1        1 009      0.073200
     75 H36        -6.7100    1.7320    0.7710 h1        1 009      0.073200
     76 H36A       -6.6540    2.3160   -0.9680 h1        1 009      0.073200
     77 H42        -6.9340   -0.5790    1.2080 ha        1 009      0.144500
     78 H43        -5.7020    0.7300   -2.7260 ha        1 009      0.144500
     79 H44        -6.0320   -1.5930   -3.5950 ha        1 009      0.134000
     80 H45        -7.2560   -2.8910    0.3410 ha        1 009      0.134000
     81 H46        -6.8110   -3.4010   -2.0610 ha        1 009      0.132000
     82 H51        -2.7050    3.9140    1.5120 hc        1 009      0.077200
     83 H51A       -1.9200    2.6930    2.6040 hc        1 009      0.077200
     84 H53         2.8860    4.7380   -0.0600 ha        1 009      0.136000
     85 H54         0.8330    5.8970   -0.8810 ha        1 009      0.139500
     86 H55        -1.4150    5.1300   -0.1410 ha        1 009      0.139000
     87 H57         0.4260    2.0350    2.2540 ha        1 009      0.139000
     88 H52         2.6820    2.8040    1.5070 ha        1 009      0.139500
@<TRIPOS>BOND
     1    1    2 2   
     2    1    3 1   
     3    1   26 1   
     4    3    4 1   
     5    3   46 1   
     6    4    5 1   
     7    4   12 1   
     8    4   47 1   
     9    5    6 1   
    10    5   48 1   
    11    5   49 1   
    12    6    7 ar  
    13    6    8 ar  
    14    7    9 ar  
    15    7   50 1   
    16    8   10 ar  
    17    8   51 1   
    18    9   11 ar  
    19    9   52 1   
    20   10   11 ar  
    21   10   53 1   
    22   11   54 1   
    23   12   13 1   
    24   12   14 1   
    25   12   55 1   
    26   13   56 1   
    27   14   15 1   
    28   14   57 1   
    29   14   58 1   
    30   15   16 1   
    31   15   59 1   
    32   16   17 1   
    33   16   60 1   
    34   16   61 1   
    35   17   18 ar  
    36   17   22 ar  
    37   18   19 ar  
    38   18   62 1   
    39   19   20 ar  
    40   19   63 1   
    41   20   21 ar  
    42   20   64 1   
    43   21   22 ar  
    44   21   23 1   
    45   22   65 1   
    46   23   24 1   
    47   23   25 1   
    48   24   66 1   
    49   24   67 1   
    50   24   68 1   
    51   25   69 1   
    52   25   70 1   
    53   25   71 1   
    54   26   27 1   
    55   26   31 1   
    56   26   39 1   
    57   27   28 1   
    58   27   72 1   
    59   28   29 2   
    60   28   30 1   
    61   30   31 1   
    62   30   32 1   
    63   31   73 1   
    64   31   74 1   
    65   32   33 1   
    66   32   75 1   
    67   32   76 1   
    68   33   34 ar  
    69   33   35 ar  
    70   34   37 ar  
    71   34   77 1   
    72   35   36 ar  
    73   35   78 1   
    74   36   38 ar  
    75   36   79 1   
    76   37   38 ar  
    77   37   80 1   
    78   38   81 1   
    79   39   44 1   
    80   39   82 1   
    81   39   83 1   
    82   40   41 ar  
    83   40   45 ar  
    84   40   88 1   
    85   41   42 ar  
    86   41   84 1   
    87   42   43 ar  
    88   42   85 1   
    89   43   44 ar  
    90   43   86 1   
    91   44   45 ar  
    92   45   87 1   
@<TRIPOS>SUBSTRUCTURE
     1 009         1 TEMP              0 ****  ****    0 ROOT
