@<TRIPOS>MOLECULE
009
   91    95     1     0     0
SMALL
bcc


@<TRIPOS>ATOM
      1 C           1.2760   -0.4830    0.4370 c         1 009      0.577100
      2 O           2.1560   -0.5950   -0.4040 o         1 009     -0.467100
      3 N           1.5530   -1.1260    1.7810 n4        1 009     -0.680800
      4 CA          3.0090   -1.2690    2.1150 c3        1 009      0.097500
      5 CB          3.2190   -1.3420    3.6400 c3        1 009     -0.043100
      6 CG          2.5430   -0.2210    4.3430 ca        1 009     -0.193300
      7 CD1         1.3550   -0.4490    5.0530 ca        1 009     -0.125500
      8 CD2         3.1170    1.0570    4.3480 ca        1 009     -0.125500
      9 CE1         0.7470    0.5930    5.7510 ca        1 009     -0.103000
     10 CE2         2.5050    2.0960    5.0450 ca        1 009     -0.103000
     11 CZ          1.3190    1.8670    5.7470 ca        1 009     -0.067000
     12 C1          3.6400   -2.4730    1.3760 c3        1 009      0.097100
     13 OG          3.0510   -3.7100    1.6980 oh        1 009     -0.591800
     14 C2          5.1620   -2.5270    1.6350 c3        1 009      0.070800
     15 N2          5.8110   -3.6090    0.8320 n4        1 009     -0.762000
     16 C20         7.2640   -3.7630    1.1770 c3        1 009      0.165100
     17 C21         7.9990   -4.6730    0.2440 ca        1 009     -0.153300
     18 C22         8.1130   -4.3450   -1.1140 ca        1 009     -0.077000
     19 C23         8.8790   -5.1400   -1.9640 ca        1 009     -0.079000
     20 C24         9.5610   -6.2530   -1.4720 ca        1 009     -0.053000
     21 C25         9.4620   -6.5760   -0.1060 ca        1 009     -0.023400
     22 C26         8.6670   -5.7930    0.7530 ca        1 009     -0.074000
     23 N27        10.2080   -7.7280    0.4350 n4        1 009     -0.556800
     24 C28         9.7870   -9.0050   -0.2120 c3        1 009      0.084600
     25 C29        11.6820   -7.5260    0.3000 c3        1 009      0.084600
     26 C30        -0.1040    0.1890    0.2530 c3        1 009      0.013400
     27 N31        -0.6090    0.6840    1.5270 n         1 009     -0.559900
     28 C32        -0.6060    2.1420    1.4840 c         1 009      0.746500
     29 O33        -0.9630    2.8240    2.4490 o         1 009     -0.538500
     30 N34        -0.0290    2.6010    0.2710 n         1 009     -0.438800
     31 C35         0.1290    1.4800   -0.6420 c3        1 009      0.062000
     32 C36        -0.4220    3.8990   -0.2540 c3        1 009      0.131300
     33 C41         0.6140    4.5080   -1.1490 ca        1 009     -0.131300
     34 C42         0.3790    4.6090   -2.5240 ca        1 009     -0.113500
     35 C43         1.7860    5.0390   -0.6020 ca        1 009     -0.113500
     36 C44         2.7160    5.6710   -1.4270 ca        1 009     -0.127000
     37 C45         1.3100    5.2440   -3.3450 ca        1 009     -0.127000
     38 C46         2.4780    5.7750   -2.7980 ca        1 009     -0.103000
     39 C51        -0.9930   -0.8390   -0.4680 c3        1 009     -0.055100
     40 C52        -0.8950   -4.2260    1.2230 ca        1 009     -0.109500
     41 C53        -2.0760   -4.1980    1.9670 ca        1 009     -0.102000
     42 C54        -2.8960   -3.0700    1.9260 ca        1 009     -0.109500
     43 C55        -2.5360   -1.9700    1.1470 ca        1 009     -0.154000
     44 C56        -1.3490   -1.9900    0.4030 ca        1 009     -0.136300
     45 C57        -0.5310   -3.1280    0.4450 ca        1 009     -0.154000
     46 HN          1.1190   -0.5380    2.5260 hn        1 009      0.494300
     47 HA          3.5160   -0.3270    1.7370 hx        1 009      0.127700
     48 HB          4.3250   -1.2830    3.8300 hc        1 009      0.069200
     49 HBA         2.8480   -2.3240    4.0390 hc        1 009      0.069200
     50 HD1         0.9150   -1.4570    5.0910 ha        1 009      0.128500
     51 HD2         4.0610    1.2410    3.8140 ha        1 009      0.128500
     52 HE1        -0.1820    0.4080    6.3160 ha        1 009      0.167500
     53 HE2         2.9610    3.1000    5.0500 ha        1 009      0.167500
     54 HZ          0.8370    2.6900    6.3020 ha        1 009      0.176000
     55 H1          3.4490   -2.3600    0.2610 h1        1 009      0.128700
     56 HOG         2.9840   -3.7970    2.6610 ho        1 009      0.437000
     57 H2          5.3640   -2.7420    2.7240 hx        1 009      0.124200
     58 H2A         5.6310   -1.5390    1.3600 hx        1 009      0.124200
     59 HN2         5.3090   -4.4920    1.0050 hn        1 009      0.464300
     60 H20         7.3240   -4.1380    2.2400 hx        1 009      0.123200
     61 H20A        7.7360   -2.7330    1.1350 hx        1 009      0.123200
     62 H22         7.6240   -3.4440   -1.5220 ha        1 009      0.159000
     63 H23         8.9650   -4.8810   -3.0370 ha        1 009      0.201000
     64 H24        10.1760   -6.8560   -2.1650 ha        1 009      0.187000
     65 H26         8.5810   -6.0370    1.8260 ha        1 009      0.162000
     66 H28        10.3320   -9.8570    0.2820 hx        1 009      0.116700
     67 H28A       10.0470   -8.9820   -1.3040 hx        1 009      0.116700
     68 H28B        8.6790   -9.1390   -0.0900 hx        1 009      0.116700
     69 H29        12.2100   -8.3960    0.7820 hx        1 009      0.116700
     70 H29A       11.9600   -7.4750   -0.7860 hx        1 009      0.116700
     71 H29B       11.9770   -6.5710    0.8110 hx        1 009      0.116700
     72 HN31       -1.4720    0.2810    1.8360 hn        1 009      0.329500
     73 H35         1.1600    1.4990   -1.0840 h1        1 009      0.092700
     74 H35A       -0.6240    1.4940   -1.4780 h1        1 009      0.092700
     75 H36        -1.3990    3.8060   -0.8160 h1        1 009      0.080200
     76 H36A       -0.5900    4.5750    0.6370 h1        1 009      0.080200
     77 H42        -0.5510    4.2120   -2.9590 ha        1 009      0.134000
     78 H43         1.9620    4.9790    0.4820 ha        1 009      0.134000
     79 H44         3.6290    6.1070   -0.9930 ha        1 009      0.148000
     80 H45         1.1130    5.3400   -4.4250 ha        1 009      0.148000
     81 H46         3.2050    6.2890   -3.4460 ha        1 009      0.151000
     82 H51        -0.4600   -1.1880   -1.3930 hc        1 009      0.101200
     83 H51A       -1.9300   -0.3120   -0.8060 hc        1 009      0.101200
     84 H54        -3.8420   -3.0540    2.4940 ha        1 009      0.157500
     85 H55        -3.2110   -1.1000    1.0910 ha        1 009      0.135500
     86 H57         0.3590   -3.1870   -0.1990 ha        1 009      0.135500
     87 H52        -0.2700   -5.1320    1.2230 ha        1 009      0.157500
     88 H21         1.0870   -2.0490    1.7870 hn        1 009      0.494300
     89 H221        5.7190   -3.3930   -0.1700 hn        1 009      0.464300
     90 H271        9.9930   -7.8000    1.4420 hn        1 009      0.457800
     91 H53        -2.3730   -5.0740    2.5670 ha        1 009      0.166000
@<TRIPOS>BOND
     1    1    2 2   
     2    1    3 1   
     3    1   26 1   
     4    3    4 1   
     5    3   46 1   
     6    3   88 1   
     7    4    5 1   
     8    4   12 1   
     9    4   47 1   
    10    5    6 1   
    11    5   48 1   
    12    5   49 1   
    13    6    7 ar  
    14    6    8 ar  
    15    7    9 ar  
    16    7   50 1   
    17    8   10 ar  
    18    8   51 1   
    19    9   11 ar  
    20    9   52 1   
    21   10   11 ar  
    22   10   53 1   
    23   11   54 1   
    24   12   13 1   
    25   12   14 1   
    26   12   55 1   
    27   13   56 1   
    28   14   15 1   
    29   14   57 1   
    30   14   58 1   
    31   15   16 1   
    32   15   59 1   
    33   15   89 1   
    34   16   17 1   
    35   16   60 1   
    36   16   61 1   
    37   17   18 ar  
    38   17   22 ar  
    39   18   19 ar  
    40   18   62 1   
    41   19   20 ar  
    42   19   63 1   
    43   20   21 ar  
    44   20   64 1   
    45   21   22 ar  
    46   21   23 1   
    47   22   65 1   
    48   23   24 1   
    49   23   25 1   
    50   23   90 1   
    51   24   66 1   
    52   24   67 1   
    53   24   68 1   
    54   25   69 1   
    55   25   70 1   
    56   25   71 1   
    57   26   27 1   
    58   26   31 1   
    59   26   39 1   
    60   27   28 1   
    61   27   72 1   
    62   28   29 2   
    63   28   30 1   
    64   30   31 1   
    65   30   32 1   
    66   31   73 1   
    67   31   74 1   
    68   32   33 1   
    69   32   75 1   
    70   32   76 1   
    71   33   34 ar  
    72   33   35 ar  
    73   34   37 ar  
    74   34   77 1   
    75   35   36 ar  
    76   35   78 1   
    77   36   38 ar  
    78   36   79 1   
    79   37   38 ar  
    80   37   80 1   
    81   38   81 1   
    82   39   44 1   
    83   39   82 1   
    84   39   83 1   
    85   40   41 ar  
    86   40   45 ar  
    87   40   87 1   
    88   41   42 ar  
    89   41   91 1   
    90   42   43 ar  
    91   42   84 1   
    92   43   44 ar  
    93   43   85 1   
    94   44   45 ar  
    95   45   86 1   
@<TRIPOS>SUBSTRUCTURE
     1 009         1 TEMP              0 ****  ****    0 ROOT
