@<TRIPOS>MOLECULE
009
   88    83     1     0     0
SMALL
bcc


@<TRIPOS>ATOM
      1 C          -1.0280    0.1760    0.6630 c1        1 009      0.280000
      2 O          -0.3480   -0.8050    0.3090 o         1 009     -0.386000
      3 N          -0.4630    1.1560    1.5780 n2        1 009     -0.352000
      4 CA          0.9790    1.3720    1.6170 c3        1 009     -0.002000
      5 CB          1.3500    2.0750    2.9020 c3        1 009     -0.148000
      6 CG          1.7450    3.5380    2.5890 c2        1 009     -0.082000
      7 CD1         1.1500    4.5890    3.2960 c1        1 009     -0.134000
      8 CD2         2.8030    3.7890    1.7430 c2        1 009     -0.133000
      9 CE1         1.6230    5.8790    3.1460 c1        1 009     -0.128833
     10 CE2         3.2850    5.0950    1.5880 c1        1 009     -0.127000
     11 CZ          2.6990    6.1340    2.2850 c1        1 009     -0.128833
     12 C1          1.6880    0.0570    1.5450 c3        1 009      0.032000
     13 OG          1.7820   -0.4880    2.8140 oh        1 009     -0.343000
     14 C2          3.1160    0.2690    0.9650 c3        1 009     -0.069000
     15 N2          3.6080   -0.9850    0.4260 n3        1 009     -0.296000
     16 C20         5.0220   -0.8890    0.1890 c3        1 009     -0.035000
     17 C21         5.5410   -2.2360   -0.4040 c2        1 009     -0.057000
     18 C22         5.6120   -3.3680    0.4060 c2        1 009     -0.152000
     19 C23         6.2350   -4.5430   -0.0730 c1        1 009     -0.109000
     20 C24         6.7820   -4.5710   -1.3650 c1        1 009     -0.150000
     21 C25         6.7110   -3.4340   -2.1810 c1        1 009      0.048000
     22 C26         6.0920   -2.2650   -1.7040 c1        1 009     -0.163000
     23 N27         7.2920   -3.4580   -3.5400 n3        1 009     -0.244000
     24 C28         6.5390   -2.9250   -4.6490 c3        1 009     -0.103500
     25 C29         8.6710   -3.9360   -3.7470 c3        1 009     -0.103500
     26 C30        -2.4950    0.2620    0.2680 c3        1 009      0.018000
     27 N31        -3.1370   -0.9250    0.6230 n         1 009     -0.291000
     28 C32        -4.4370   -0.5910    1.1370 c2        1 009      0.349000
     29 O33        -5.3450   -1.3910    1.3860 o         1 009     -0.343000
     30 N34        -4.4410    0.7650    1.4420 n         1 009     -0.302000
     31 C35        -3.1780    1.2870    1.1070 c3        1 009     -0.064000
     32 C36        -5.5930    1.5400    1.9510 c3        1 009      0.012000
     33 C41        -6.8960    0.9310    1.4200 c2        1 009     -0.126000
     34 C42        -7.5760   -0.0180    2.1690 c2        1 009     -0.105000
     35 C43        -7.3780    1.3100    0.1800 c1        1 009     -0.121000
     36 C44        -8.5410    0.7400   -0.3160 c1        1 009     -0.128833
     37 C45        -8.7370   -0.5860    1.6740 c1        1 009     -0.127000
     38 C46        -9.2200   -0.2070    0.4300 c1        1 009     -0.128833
     39 C51        -2.3720    0.5640   -1.2380 c3        1 009     -0.106000
     40 C52        -5.8660    0.0720   -2.7240 c1        1 009     -0.128000
     41 C53        -5.6660   -1.0000   -3.5600 c1        1 009     -0.128833
     42 C54        -4.4170   -1.6150   -3.6190 c1        1 009     -0.128833
     43 C55        -3.3780   -1.1470   -2.8370 c1        1 009     -0.097000
     44 C56        -3.5790   -0.0670   -1.9940 c2        1 009     -0.078000
     45 C57        -4.8240    0.5430   -1.9370 c2        1 009     -0.128000
     46 HN         -1.0000    1.6170    2.1280 hn        1 009      0.225000
     47 HA          1.2480    1.9320    0.8470 h1        1 009      0.101000
     48 HB          0.5780    2.0650    3.5200 hc        1 009      0.114500
     49 HBA         2.1010    1.6190    3.3160 hc        1 009      0.114500
     50 HD1         0.3990    4.4110    3.8970 ha        1 009      0.140000
     51 HD2         3.2150    3.0590    1.2540 ha        1 009      0.132000
     52 HE1         1.2070    6.6110    3.6390 ha        1 009      0.132167
     53 HE2         4.0230    5.2680    0.9970 ha        1 009      0.134000
     54 HZ          3.0310    7.0370    2.1790 ha        1 009      0.132167
     55 H1          1.1940   -0.5440    0.9720 h1        1 009      0.108000
     56 HOG         1.8250   -1.3590    2.7530 ho        1 009      0.236000
     57 H2          3.0810    0.9580    0.2340 h1        1 009      0.073000
     58 H2A         3.7170    0.5790    1.6780 h1        1 009      0.073000
     59 HN2         3.4420   -1.6620    1.0240 hn        1 009      0.174000
     60 H20         5.4890   -0.7030    1.0430 h1        1 009      0.074000
     61 H20A        5.1990   -0.1590   -0.4490 h1        1 009      0.074000
     62 H22         5.2230   -3.3480    1.3260 ha        1 009      0.134000
     63 H23         6.2840   -5.3330    0.4930 ha        1 009      0.131000
     64 H24         7.2110   -5.3830   -1.6950 ha        1 009      0.137000
     65 H26         6.0430   -1.4920   -2.2600 ha        1 009      0.135000
     66 H28         6.1110   -3.6790   -5.1560 h1        1 009      0.075500
     67 H28A        5.8390   -2.3180   -4.3080 h1        1 009      0.075500
     68 H28B        7.1550   -2.4160   -5.2610 h1        1 009      0.075500
     69 H29         9.3020   -3.1710   -3.6780 h1        1 009      0.075500
     70 H29A        8.8950   -4.6130   -3.0570 h1        1 009      0.075500
     71 H29B        8.7460   -4.3470   -4.6510 h1        1 009      0.075500
     72 HN31       -2.7760   -1.7490    0.5930 hn        1 009      0.238000
     73 H35        -3.3350    2.0320    0.5470 h1        1 009      0.105500
     74 H35A       -2.6850    1.3470    1.9180 h1        1 009      0.105500
     75 H36        -5.5960    1.5150    2.9520 h1        1 009      0.111500
     76 H36A       -5.5190    2.4900    1.6410 h1        1 009      0.111500
     77 H42        -7.2460   -0.2780    3.0200 ha        1 009      0.157000
     78 H43        -6.9110    1.9620   -0.3340 ha        1 009      0.126000
     79 H44        -8.8750    1.0030   -1.1770 ha        1 009      0.132167
     80 H45        -9.2180   -1.2580    2.2030 ha        1 009      0.135000
     81 H46       -10.0110   -0.5940    0.0930 ha        1 009      0.132167
     82 H51        -2.3700    1.5230   -1.3760 hc        1 009      0.099000
     83 H51A       -1.5260    0.1780   -1.5850 hc        1 009      0.099000
     84 H52        -6.7600    0.5110   -2.6820 ha        1 009      0.131000
     85 H53        -6.3950   -1.3290   -4.1100 ha        1 009      0.132167
     86 H54        -4.2720   -2.3920   -4.2260 ha        1 009      0.132167
     87 H55        -2.5080   -1.5760   -2.8780 ha        1 009      0.141000
     88 H57        -4.9650    1.2950   -1.3500 ha        1 009      0.123000
@<TRIPOS>BOND
     1    1    2 1   
     2    1   26 1   
     3    3    4 1   
     4    3   46 1   
     5    4    5 1   
     6    4   12 1   
     7    4   47 1   
     8    5    6 1   
     9    5   48 1   
    10    5   49 1   
    11    6    7 1   
    12    6    8 1   
    13    7   50 1   
    14    8   10 1   
    15    8   51 1   
    16    9   11 1   
    17    9   52 1   
    18   10   53 1   
    19   11   54 1   
    20   12   13 1   
    21   12   14 1   
    22   12   55 1   
    23   13   56 1   
    24   14   15 1   
    25   14   57 1   
    26   14   58 1   
    27   15   16 1   
    28   15   59 1   
    29   16   17 1   
    30   16   60 1   
    31   16   61 1   
    32   17   18 1   
    33   17   22 1   
    34   18   19 1   
    35   18   62 1   
    36   19   63 1   
    37   20   21 1   
    38   20   64 1   
    39   21   23 1   
    40   22   65 1   
    41   23   24 1   
    42   23   25 1   
    43   24   66 1   
    44   24   67 1   
    45   24   68 1   
    46   25   69 1   
    47   25   70 1   
    48   25   71 1   
    49   26   27 1   
    50   26   31 1   
    51   26   39 1   
    52   27   28 1   
    53   27   72 1   
    54   28   29 1   
    55   28   30 1   
    56   30   31 1   
    57   30   32 1   
    58   31   73 1   
    59   31   74 1   
    60   32   33 1   
    61   32   75 1   
    62   32   76 1   
    63   33   34 1   
    64   33   35 1   
    65   34   37 1   
    66   34   77 1   
    67   35   78 1   
    68   36   38 1   
    69   36   79 1   
    70   37   80 1   
    71   38   81 1   
    72   39   44 1   
    73   39   82 1   
    74   39   83 1   
    75   40   45 1   
    76   40   84 1   
    77   41   42 1   
    78   41   85 1   
    79   42   86 1   
    80   43   44 1   
    81   43   87 1   
    82   44   45 1   
    83   45   88 1   
@<TRIPOS>SUBSTRUCTURE
     1 009         1 TEMP              0 ****  ****    0 ROOT
