@<TRIPOS>MOLECULE
00A
   48    51     1     0     0
SMALL
bcc


@<TRIPOS>ATOM
      1 O2P        -1.9410   -3.7260    0.3460 o         1 00A     -0.806500
      2 P          -1.0380   -2.5810    0.2280 p5        1 00A      1.454800
      3 O1P         0.1060   -2.1620    1.0630 o         1 00A     -0.806500
      4 O3P        -1.9200   -1.1750   -0.1310 os        1 00A     -0.536500
      5 CC         -2.6560   -0.7200    0.8830 c         1 00A      0.683700
      6 C1C        -3.4740    0.4850    0.6630 ca        1 00A     -0.109600
      7 C2C        -4.2350    0.9960    1.7210 ca        1 00A     -0.066500
      8 C3C        -5.0160    2.1350    1.5330 ca        1 00A     -0.150000
      9 C4C        -5.0300    2.7580    0.2820 ca        1 00A      0.034400
     10 CL4A       -5.9850    4.1510    0.0480 cl        1 00A     -0.118400
     11 C5C        -4.2730    2.2550   -0.7800 ca        1 00A     -0.150000
     12 C6C        -3.4940    1.1150   -0.5850 ca        1 00A     -0.066500
     13 O2         -2.5630   -1.3870    1.9280 o         1 00A     -0.580000
     14 O5'        -0.3830   -2.6540   -1.2900 os        1 00A     -0.571200
     15 C5'         0.5500   -1.6760   -1.6230 c3        1 00A      0.183400
     16 C4'         1.9270   -2.3130   -1.8670 c3        1 00A      0.076100
     17 C3'         2.3700   -3.2540   -0.7300 c3        1 00A      0.070100
     18 O3'         2.6710   -4.5450   -1.2320 oh        1 00A     -0.614800
     19 C2'         3.6610   -2.6470   -0.1510 c3        1 00A      0.127100
     20 O2'         4.8250   -3.3970   -0.4010 oh        1 00A     -0.586800
     21 C1'         3.7840   -1.2540   -0.8570 c3        1 00A      0.214800
     22 O4'         2.9110   -1.2750   -1.9930 os        1 00A     -0.419600
     23 N9          3.4980   -0.1380    0.0140 na        1 00A     -0.281000
     24 C4          4.1510    1.1050   -0.0290 ca        1 00A      0.449800
     25 C5          3.4580    1.9390    0.9490 ca        1 00A     -0.212200
     26 N7          2.4080    1.2140    1.5360 nc        1 00A     -0.570100
     27 C8          2.4450    0.0040    0.9600 cd        1 00A      0.436700
     28 C6          3.9350    3.2750    1.1310 ca        1 00A      0.720200
     29 N6          3.3760    4.0830    2.1080 nh        1 00A     -0.940500
     30 N1          4.9870    3.7160    0.3670 nb        1 00A     -0.798000
     31 C2          5.5430    2.8270   -0.5020 ca        1 00A      0.659900
     32 N3          5.2160    1.5430   -0.7670 nb        1 00A     -0.723000
     33 H2C        -4.2070    0.4870    2.6990 ha        1 00A      0.166500
     34 H3C        -5.6140    2.5370    2.3640 ha        1 00A      0.142500
     35 H5C        -4.2880    2.7510   -1.7610 ha        1 00A      0.142500
     36 H6C        -2.8870    0.6990   -1.4070 ha        1 00A      0.166500
     37 H5'         0.2210   -1.1790   -2.5790 h1        1 00A      0.038700
     38 H5'A        0.6280   -0.9020   -0.8090 h1        1 00A      0.038700
     39 H4'         1.9340   -2.8520   -2.8530 h1        1 00A      0.070700
     40 H3'         1.5690   -3.3050    0.0670 h1        1 00A      0.125700
     41 HO3'        1.8210   -4.9680   -1.4030 ho        1 00A      0.425000
     42 H2'         3.6030   -2.5600    0.9680 h1        1 00A      0.106700
     43 HO2'        4.7340   -3.8110   -1.2700 ho        1 00A      0.419000
     44 H1'         4.8210   -1.1080   -1.2850 h2        1 00A      0.112700
     45 H8          1.7380   -0.8300    1.1800 h5        1 00A      0.154800
     46 HN6         2.4840    3.8000    2.4440 hn        1 00A      0.423800
     47 HN6A        3.5440    5.0590    2.0550 hn        1 00A      0.423800
     48 H2          6.3960    3.2280   -1.0880 h5        1 00A      0.037100
@<TRIPOS>BOND
     1    1    2 1   
     2    2    3 1   
     3    2    4 1   
     4    2   14 1   
     5    4    5 1   
     6    5    6 1   
     7    5   13 2   
     8    6    7 ar  
     9    6   12 ar  
    10    7    8 ar  
    11    7   33 1   
    12    8    9 ar  
    13    8   34 1   
    14    9   10 1   
    15    9   11 ar  
    16   11   12 ar  
    17   11   35 1   
    18   12   36 1   
    19   14   15 1   
    20   15   16 1   
    21   15   37 1   
    22   15   38 1   
    23   16   17 1   
    24   16   22 1   
    25   16   39 1   
    26   17   18 1   
    27   17   19 1   
    28   17   40 1   
    29   18   41 1   
    30   19   20 1   
    31   19   21 1   
    32   19   42 1   
    33   20   43 1   
    34   21   22 1   
    35   21   23 1   
    36   21   44 1   
    37   23   24 1   
    38   23   27 1   
    39   24   25 ar  
    40   24   32 ar  
    41   25   26 1   
    42   25   28 ar  
    43   26   27 2   
    44   27   45 1   
    45   28   29 1   
    46   28   30 ar  
    47   29   46 1   
    48   29   47 1   
    49   30   31 ar  
    50   31   32 ar  
    51   31   48 1   
@<TRIPOS>SUBSTRUCTURE
     1 00A         1 TEMP              0 ****  ****    0 ROOT
