@<TRIPOS>MOLECULE
00A
   48    44     1     0     0
SMALL
bcc


@<TRIPOS>ATOM
      1 O2P        -0.4270   -1.6550    2.0650 o         1 00A     -0.785500
      2 P          -1.7500   -1.8650    1.3630 p5        1 00A      1.903000
      3 O1P        -2.3730   -3.1600    1.8360 o         1 00A     -0.785500
      4 O3P        -2.7210   -0.6600    1.6950 os        1 00A     -0.692000
      5 CC         -3.3340   -0.6210    2.9600 c2        1 00A      0.379000
      6 C1C        -3.5450    0.7210    3.6620 c2        1 00A     -0.092000
      7 C2C        -2.6390    1.1510    4.6220 c2        1 00A     -0.073000
      8 C3C        -2.7690    2.4120    5.1830 c1        1 00A     -0.148000
      9 C4C        -3.8050    3.2440    4.7860 c1        1 00A     -0.046000
     10 CL4A       -3.9860    4.8200    5.5140 cl        1 00A     -0.039000
     11 C5C        -4.7110    2.8150    3.8280 c1        1 00A     -0.145000
     12 C6C        -4.5800    1.5530    3.2650 c1        1 00A     -0.071000
     13 O2         -3.7990   -1.6400    3.4440 o         1 00A     -0.389000
     14 O5'        -1.5130   -1.9340   -0.1890 os        1 00A     -0.736000
     15 C5'        -0.3470   -1.3550   -0.7140 c3        1 00A      0.019000
     16 C4'        -0.6620   -0.0070   -1.2490 c3        1 00A     -0.047000
     17 C3'        -1.1630   -0.1080   -2.4680 c3        1 00A     -0.019000
     18 O3'        -2.1170    0.9920   -2.7210 oh        1 00A     -0.351000
     19 C2'         0.0540    0.0140   -3.4110 c3        1 00A      0.006000
     20 O2'        -0.1940    0.8990   -4.3750 oh        1 00A     -0.311000
     21 C1'         1.2490    0.5110   -2.5020 c3        1 00A      0.120000
     22 O4'         0.7010    0.8730   -1.3880 os        1 00A     -0.269000
     23 N9          2.1820   -0.5570   -2.2740 n3        1 00A     -0.190000
     24 C4          3.2180   -0.5790   -1.3800 c1        1 00A      0.019500
     25 C5          4.3290   -0.9570   -2.0420 c1        1 00A     -0.229000
     26 N7          3.9920   -1.1690   -3.3430 n1        1 00A     -0.163500
     27 C8          2.6640   -0.9200   -3.4790 c1        1 00A      0.019500
     28 C6          5.5400   -1.0630   -1.3640 c1        1 00A      0.212000
     29 N6          6.7120   -1.5170   -2.0050 n3        1 00A     -0.341000
     30 N1          5.6000   -0.7900   -0.0530 n1        1 00A     -0.272000
     31 C2          4.4720   -0.4060    0.6190 c1        1 00A      0.007000
     32 N3          3.2820   -0.3010   -0.0450 n1        1 00A     -0.163500
     33 H2C        -1.9030    0.5610    4.9030 ha        1 00A      0.163000
     34 H3C        -2.1300    2.7150    5.8600 ha        1 00A      0.142000
     35 H5C        -5.4410    3.4010    3.5480 ha        1 00A      0.145000
     36 H6C        -5.2220    1.2490    2.5850 ha        1 00A      0.165000
     37 H5'         0.3260   -1.2760   -0.0070 h1        1 00A      0.092000
     38 H5'A        0.0030   -1.9210   -1.4380 h1        1 00A      0.092000
     39 H4'        -1.2980    0.4480   -0.6610 h1        1 00A      0.118000
     40 H3'        -1.5990   -0.9730   -2.5860 h1        1 00A      0.137000
     41 HO3'       -2.8930    0.6530   -3.0120 ho        1 00A      0.249000
     42 H2'         0.2670   -0.8560   -3.7990 h1        1 00A      0.131000
     43 HO2'       -0.2190    0.4830   -5.1580 ho        1 00A      0.223000
     44 H1'         1.7000    1.2730   -2.9210 h2        1 00A      0.161000
     45 H8          2.1540   -0.9660   -4.3110 DU        1 00A      0.226000
     46 HN6         7.3970   -1.8590   -1.5110 hn        1 00A      0.224500
     47 HN6A        6.7830   -1.4690   -2.9090 hn        1 00A      0.224500
     48 H2          4.5170   -0.2070    1.5750 ha        1 00A      0.180000
@<TRIPOS>BOND
     1    1    2 1   
     2    2    3 1   
     3    2    4 1   
     4    2   14 1   
     5    4    5 1   
     6    5    6 1   
     7    5   13 1   
     8    6    7 1   
     9    6   12 1   
    10    7    8 1   
    11    7   33 1   
    12    8   34 1   
    13    9   10 1   
    14    9   11 1   
    15   11   35 1   
    16   12   36 1   
    17   14   15 1   
    18   15   16 1   
    19   15   37 1   
    20   15   38 1   
    21   16   17 1   
    22   16   22 1   
    23   16   39 1   
    24   17   18 1   
    25   17   19 1   
    26   17   40 1   
    27   18   41 1   
    28   19   20 1   
    29   19   21 1   
    30   19   42 1   
    31   20   43 1   
    32   21   22 1   
    33   21   23 1   
    34   21   44 1   
    35   23   24 1   
    36   23   27 1   
    37   24   32 1   
    38   25   28 1   
    39   26   27 1   
    40   28   29 1   
    41   29   46 1   
    42   29   47 1   
    43   30   31 1   
    44   31   48 1   
@<TRIPOS>SUBSTRUCTURE
     1 00A         1 TEMP              0 ****  ****    0 ROOT
