@<TRIPOS>MOLECULE
00A
   48    51     1     0     0
SMALL
bcc


@<TRIPOS>ATOM
      1 O2P        -0.0250   -0.7990    0.0420 o         1 00A     -0.812000
      2 P           1.2830   -1.2600   -0.4220 p5        1 00A      1.458800
      3 O1P         2.2530   -2.1880    0.2000 o         1 00A     -0.812000
      4 O3P         2.1880    0.0580   -1.0000 os        1 00A     -0.536500
      5 CC          2.6000    0.8950   -0.0490 c         1 00A      0.683700
      6 C1C         3.3570    2.0910   -0.4570 ca        1 00A     -0.110600
      7 C2C         3.8330    2.9680    0.5260 ca        1 00A     -0.066500
      8 C3C         4.5500    4.1050    0.1610 ca        1 00A     -0.150000
      9 C4C         4.7890    4.3590   -1.1930 ca        1 00A      0.034400
     10 Cl4A        5.6660    5.7500   -1.6440 cl        1 00A     -0.118400
     11 C5C         4.3180    3.4900   -2.1810 ca        1 00A     -0.150000
     12 C6C         3.6010    2.3540   -1.8090 ca        1 00A     -0.066500
     13 O2          2.2900    0.5590    1.1070 o         1 00A     -0.582000
     14 O5'         1.0820   -1.8820   -1.9390 os        1 00A     -0.563200
     15 C5'         2.1940   -2.4630   -2.5390 c3        1 00A      0.185400
     16 C4'         2.0520   -3.9900   -2.6720 c3        1 00A      0.113100
     17 C3'         1.4130   -4.6570   -1.4420 c3        1 00A      0.136100
     18 O3'         0.5770   -5.7030   -1.8960 oh        1 00A     -0.596800
     19 C2'         2.6130   -5.1510   -0.6080 c3        1 00A      0.064100
     20 O2'         2.3450   -6.4580   -0.1400 oh        1 00A     -0.600800
     21 C1'         3.8070   -5.1830   -1.6160 c3        1 00A      0.223800
     22 O4'         3.3650   -4.5610   -2.8310 os        1 00A     -0.420600
     23 N9          5.0100   -4.5580   -1.1130 na        1 00A     -0.279000
     24 C4          6.3190   -4.9370   -1.4580 ca        1 00A      0.447800
     25 C5          7.1840   -3.9150   -0.8760 ca        1 00A     -0.212200
     26 N7          6.4050   -2.9410   -0.2310 nc        1 00A     -0.577100
     27 C8          5.1340   -3.3330   -0.4010 cd        1 00A      0.435700
     28 C6          8.5950   -4.0690   -1.0510 ca        1 00A      0.717200
     29 N6          9.4700   -3.1810   -0.4430 nv        1 00A     -0.938500
     30 N1          9.0640   -5.1380   -1.7740 nb        1 00A     -0.797000
     31 C2          8.1430   -6.0200   -2.2520 ca        1 00A      0.658900
     32 N3          6.7950   -6.0160   -2.1510 nb        1 00A     -0.719000
     33 H2C         3.6310    2.7450    1.5870 ha        1 00A      0.166000
     34 H3C         4.9240    4.7930    0.9330 ha        1 00A      0.142500
     35 H5C         4.5110    3.6960   -3.2440 ha        1 00A      0.142500
     36 H6C         3.2190    1.6520   -2.5700 ha        1 00A      0.166000
     37 H5'         3.1280   -2.2290   -1.9540 h1        1 00A      0.034700
     38 H5'A        2.2920   -2.0360   -3.5770 h1        1 00A      0.034700
     39 H4'         1.4970   -4.2640   -3.6080 h1        1 00A      0.087700
     40 H3'         0.8160   -3.9080   -0.8480 h1        1 00A      0.088700
     41 HO3'        0.3730   -6.2500   -1.1270 ho        1 00A      0.413000
     42 H2'         2.7860   -4.4330    0.2440 h1        1 00A      0.124700
     43 HO2'        2.9500   -6.6160    0.5940 ho        1 00A      0.408000
     44 H1'         4.0670   -6.2480   -1.8980 h2        1 00A      0.104700
     45 H8          4.2360   -2.7990   -0.0140 h5        1 00A      0.154800
     46 HN6         9.0750   -2.3140   -0.1610 hn        1 00A      0.422300
     47 HN6A       10.4050   -3.1560   -0.7730 hn        1 00A      0.422300
     48 H2          8.5720   -6.8720   -2.8190 h5        1 00A      0.038100
@<TRIPOS>BOND
     1    1    2 1   
     2    2    3 1   
     3    2    4 1   
     4    2   14 1   
     5    4    5 1   
     6    5    6 1   
     7    5   13 2   
     8    6    7 ar  
     9    6   12 ar  
    10    7    8 ar  
    11    7   33 1   
    12    8    9 ar  
    13    8   34 1   
    14    9   10 1   
    15    9   11 ar  
    16   11   12 ar  
    17   11   35 1   
    18   12   36 1   
    19   14   15 1   
    20   15   16 1   
    21   15   37 1   
    22   15   38 1   
    23   16   17 1   
    24   16   22 1   
    25   16   39 1   
    26   17   18 1   
    27   17   19 1   
    28   17   40 1   
    29   18   41 1   
    30   19   20 1   
    31   19   21 1   
    32   19   42 1   
    33   20   43 1   
    34   21   22 1   
    35   21   23 1   
    36   21   44 1   
    37   23   24 1   
    38   23   27 1   
    39   24   25 ar  
    40   24   32 ar  
    41   25   26 1   
    42   25   28 ar  
    43   26   27 2   
    44   27   45 1   
    45   28   29 1   
    46   28   30 ar  
    47   29   46 1   
    48   29   47 1   
    49   30   31 ar  
    50   31   32 ar  
    51   31   48 1   
@<TRIPOS>SUBSTRUCTURE
     1 00A         1 TEMP              0 ****  ****    0 ROOT
