@<TRIPOS>MOLECULE
00A
   48    51     1     0     0
SMALL
bcc


@<TRIPOS>ATOM
      1 O2P         1.2260   -0.5810    1.8210 o         1 00A     -0.796500
      2 P           2.4380   -0.5810    0.9980 p5        1 00A      1.437800
      3 O1P         3.8590   -0.7320    1.3430 o         1 00A     -0.796500
      4 O3P         2.3460    0.7050   -0.1230 os        1 00A     -0.529500
      5 CC          2.4820    1.9080    0.4250 c         1 00A      0.680700
      6 C1C         2.3900    3.0880   -0.4550 ca        1 00A     -0.108600
      7 C2C         2.5890    4.3640    0.0860 ca        1 00A     -0.069500
      8 C3C         2.5060    5.4900   -0.7290 ca        1 00A     -0.150500
      9 C4C         2.2220    5.3320   -2.0890 ca        1 00A      0.031400
     10 CL4A        2.1200    6.7090   -3.0910 cl        1 00A     -0.121400
     11 C5C         2.0210    4.0630   -2.6390 ca        1 00A     -0.150500
     12 C6C         2.1060    2.9400   -1.8170 ca        1 00A     -0.069500
     13 O2          2.6770    1.9080    1.6530 o         1 00A     -0.584000
     14 O5'         2.1790   -1.7010   -0.1960 os        1 00A     -0.560200
     15 C5'         3.3310   -2.0230   -0.9080 c3        1 00A      0.169400
     16 C4'         2.9510   -2.8760   -2.1200 c3        1 00A      0.126100
     17 C3'         2.1560   -4.1310   -1.7180 c3        1 00A      0.130100
     18 O3'         1.2240   -4.3980   -2.7490 oh        1 00A     -0.589800
     19 C2'         3.2340   -5.2340   -1.6030 c3        1 00A      0.072100
     20 O2'         2.7380   -6.4180   -2.1870 oh        1 00A     -0.599800
     21 C1'         4.4490   -4.6780   -2.4190 c3        1 00A      0.226800
     22 O4'         4.1580   -3.3270   -2.7720 os        1 00A     -0.414600
     23 N9          5.7120   -4.7520   -1.7120 na        1 00A     -0.282000
     24 C4          6.4810   -5.9160   -1.5740 ca        1 00A      0.437800
     25 C5          7.6970   -5.4940   -0.8870 ca        1 00A     -0.212200
     26 N7          7.6470   -4.1160   -0.6280 nc        1 00A     -0.560100
     27 C8          6.4670   -3.7080   -1.1230 cd        1 00A      0.452700
     28 C6          8.6720   -6.5050   -0.6040 ca        1 00A      0.737200
     29 N6          9.8760   -6.1600   -0.0220 nh        1 00A     -0.944500
     30 N1          8.4080   -7.8040   -0.9660 nb        1 00A     -0.799000
     31 C2          7.2300   -8.0510   -1.6030 ca        1 00A      0.671900
     32 N3          6.2290   -7.2100   -1.9430 nb        1 00A     -0.745000
     33 H2C         2.8090    4.4620    1.1620 ha        1 00A      0.166500
     34 H3C         2.6620    6.4920   -0.3040 ha        1 00A      0.141000
     35 H5C         1.7980    3.9470   -3.7090 ha        1 00A      0.141000
     36 H6C         1.9510    1.9270   -2.2250 ha        1 00A      0.166500
     37 H5'         4.0350   -2.5890   -0.2380 h1        1 00A      0.035700
     38 H5'A        3.8420   -1.0810   -1.2490 h1        1 00A      0.035700
     39 H4'         2.4050   -2.2760   -2.8950 h1        1 00A      0.102700
     40 H3'         1.6220   -3.9730   -0.7430 h1        1 00A      0.101700
     41 HO3'        0.8560   -5.2730   -2.5720 ho        1 00A      0.413000
     42 H2'         3.4980   -5.4110   -0.5260 h1        1 00A      0.069700
     43 HO2'        3.4410   -7.0780   -2.1200 ho        1 00A      0.424000
     44 H1'         4.5640   -5.2460   -3.3910 h2        1 00A      0.095700
     45 H8          6.0710   -2.6800   -1.0880 h5        1 00A      0.107800
     46 HN6        10.4480   -6.8780    0.3500 hn        1 00A      0.432800
     47 HN6A        9.9220   -5.2650    0.4050 hn        1 00A      0.432800
     48 H2          7.0720   -9.1150   -1.8790 h5        1 00A      0.041100
@<TRIPOS>BOND
     1    1    2 1   
     2    2    3 1   
     3    2    4 1   
     4    2   14 1   
     5    4    5 1   
     6    5    6 1   
     7    5   13 2   
     8    6    7 ar  
     9    6   12 ar  
    10    7    8 ar  
    11    7   33 1   
    12    8    9 ar  
    13    8   34 1   
    14    9   10 1   
    15    9   11 ar  
    16   11   12 ar  
    17   11   35 1   
    18   12   36 1   
    19   14   15 1   
    20   15   16 1   
    21   15   37 1   
    22   15   38 1   
    23   16   17 1   
    24   16   22 1   
    25   16   39 1   
    26   17   18 1   
    27   17   19 1   
    28   17   40 1   
    29   18   41 1   
    30   19   20 1   
    31   19   21 1   
    32   19   42 1   
    33   20   43 1   
    34   21   22 1   
    35   21   23 1   
    36   21   44 1   
    37   23   24 1   
    38   23   27 1   
    39   24   25 ar  
    40   24   32 ar  
    41   25   26 1   
    42   25   28 ar  
    43   26   27 2   
    44   27   45 1   
    45   28   29 1   
    46   28   30 ar  
    47   29   46 1   
    48   29   47 1   
    49   30   31 ar  
    50   31   32 ar  
    51   31   48 1   
@<TRIPOS>SUBSTRUCTURE
     1 00A         1 TEMP              0 ****  ****    0 ROOT
