@<TRIPOS>MOLECULE
00A
   49    52     1     0     0
SMALL
bcc


@<TRIPOS>ATOM
      1 O2P         4.3610   -1.2180    1.5630 o         1 00A     -0.776300
      2 P           4.8630   -0.2110    0.6510 p5        1 00A      1.655500
      3 O1P         6.0080    0.8200    1.0250 oh        1 00A     -0.740400
      4 O3P         3.7640    0.7230   -0.1200 os        1 00A     -0.566500
      5 CC          3.0770    1.5880    0.6760 c         1 00A      0.706700
      6 C1C         2.0290    2.4000    0.0700 ca        1 00A     -0.140600
      7 C2C         1.7090    2.2660   -1.2870 ca        1 00A     -0.052500
      8 C3C         0.7030    3.0510   -1.8430 ca        1 00A     -0.146000
      9 C4C         0.0180    3.9700   -1.0390 ca        1 00A      0.055400
     10 CL4A       -1.2080    4.9280   -1.7160 cl        1 00A     -0.074400
     11 C5C         0.3330    4.1060    0.3180 ca        1 00A     -0.146000
     12 C6C         1.3390    3.3200    0.8730 ca        1 00A     -0.052500
     13 O2          3.4900    1.5360    1.8440 o         1 00A     -0.558000
     14 O5'         5.5900   -0.8000   -0.6520 os        1 00A     -0.600200
     15 C5'         5.4980   -2.1790   -0.9330 c3        1 00A      0.157400
     16 C4'         4.7070   -2.3850   -2.2310 c3        1 00A      0.114100
     17 C3'         3.4120   -3.1960   -2.0380 c3        1 00A      0.081100
     18 O3'         2.3480   -2.4020   -2.5360 oh        1 00A     -0.599800
     19 C2'         3.5750   -4.4700   -2.8970 c3        1 00A      0.090100
     20 O2'         2.6900   -4.4780   -3.9930 oh        1 00A     -0.585800
     21 C1'         5.0510   -4.4220   -3.4010 c3        1 00A      0.221800
     22 O4'         5.5250   -3.0860   -3.1790 os        1 00A     -0.415600
     23 N9          5.9210   -5.4020   -2.8050 na        1 00A     -0.286000
     24 C4          6.0120   -5.7990   -1.4590 ca        1 00A      0.463800
     25 C5          7.1680   -6.6850   -1.3940 ca        1 00A     -0.236200
     26 N7          7.7680   -6.7860   -2.6590 nc        1 00A     -0.539100
     27 C8          7.0290   -6.0100   -3.4590 cd        1 00A      0.417700
     28 C6          7.4780   -7.2710   -0.1210 ca        1 00A      0.767200
     29 N6          8.5370   -8.1260    0.0070 nh        1 00A     -0.958500
     30 N1          6.6840   -6.9590    0.9620 nb        1 00A     -0.793000
     31 C2          5.6440   -6.1130    0.7550 ca        1 00A      0.695900
     32 N3          5.2300   -5.4970   -0.3800 nb        1 00A     -0.761000
     33 H2C         2.2570    1.5360   -1.9060 ha        1 00A      0.166000
     34 H3C         0.4500    2.9470   -2.9100 ha        1 00A      0.157500
     35 H5C        -0.2100    4.8290    0.9470 ha        1 00A      0.157500
     36 H6C         1.5990    3.4130    1.9410 ha        1 00A      0.166000
     37 H5'         6.5510   -2.5520   -1.0870 h1        1 00A      0.082200
     38 H5'A        5.0250   -2.7090   -0.0590 h1        1 00A      0.082200
     39 H4'         4.4910   -1.3890   -2.7130 h1        1 00A      0.107700
     40 H3'         3.2330   -3.4600   -0.9620 h1        1 00A      0.092700
     41 HO3'        1.5390   -2.9180   -2.4210 ho        1 00A      0.420000
     42 H2'         3.3340   -5.4060   -2.3260 h1        1 00A      0.122700
     43 HO2'        2.7360   -3.6080   -4.4180 ho        1 00A      0.418000
     44 H1'         5.1000   -4.5660   -4.5230 h2        1 00A      0.100700
     45 H8          7.2100   -5.8440   -4.5280 h5        1 00A      0.075800
     46 HN6         6.6560    1.0020    0.3450 ho        1 00A      0.490000
     47 HN6A        9.1040   -8.3090   -0.7820 hn        1 00A      0.451300
     48 H2          5.0400   -5.8880    1.6620 h5        1 00A      0.059100
     49 H63         8.7700   -8.5190    0.8850 hn        1 00A      0.451300
@<TRIPOS>BOND
     1    1    2 2   
     2    2    3 1   
     3    2    4 1   
     4    2   14 1   
     5    3   46 1   
     6    4    5 1   
     7    5    6 1   
     8    5   13 2   
     9    6    7 ar  
    10    6   12 ar  
    11    7    8 ar  
    12    7   33 1   
    13    8    9 ar  
    14    8   34 1   
    15    9   10 1   
    16    9   11 ar  
    17   11   12 ar  
    18   11   35 1   
    19   12   36 1   
    20   14   15 1   
    21   15   16 1   
    22   15   37 1   
    23   15   38 1   
    24   16   17 1   
    25   16   22 1   
    26   16   39 1   
    27   17   18 1   
    28   17   19 1   
    29   17   40 1   
    30   18   41 1   
    31   19   20 1   
    32   19   21 1   
    33   19   42 1   
    34   20   43 1   
    35   21   22 1   
    36   21   23 1   
    37   21   44 1   
    38   23   24 1   
    39   23   27 1   
    40   24   25 ar  
    41   24   32 ar  
    42   25   26 1   
    43   25   28 ar  
    44   26   27 2   
    45   27   45 1   
    46   28   29 1   
    47   28   30 ar  
    48   29   47 1   
    49   29   49 1   
    50   30   31 ar  
    51   31   32 ar  
    52   31   48 1   
@<TRIPOS>SUBSTRUCTURE
     1 00A         1 TEMP              0 ****  ****    0 ROOT
