@<TRIPOS>MOLECULE
00B
   20    20     1     0     0
SMALL
bcc


@<TRIPOS>ATOM
      1 C           1.8690    0.2670    0.5290 c         1 00B      0.940600
      2 N          -0.2770    1.5100    0.0620 n3        1 00B     -0.807200
      3 O           2.4890    1.3520    0.6930 o         1 00B     -0.829300
      4 CA          0.3090    0.3220    0.6840 c3        1 00B      0.035500
      5 CB         -0.4670   -0.9080    0.1820 c3        1 00B      0.145100
      6 CD         -1.7150    1.4620    0.1740 c3        1 00B      0.287900
      7 CG1        -0.0780   -1.3360   -1.2070 c3        1 00B     -0.083600
      8 CG2        -0.3720   -2.0510    1.1560 c3        1 00B     -0.083600
      9 SG3        -2.2090   -0.2790    0.1450 ss        1 00B     -0.505200
     10 OXT         2.4100   -0.8570    0.3460 o         1 00B     -0.829300
     11 HN          0.1290    2.3410    0.4450 hn        1 00B      0.387800
     12 HA          0.1620    0.3570    1.8110 h1        1 00B      0.011700
     13 HD         -2.1310    1.9140    1.1130 h2        1 00B      0.029700
     14 HDA        -2.1680    1.9850   -0.7050 h2        1 00B      0.029700
     15 HG1         1.0020   -1.6410   -1.2020 hc        1 00B      0.045033
     16 HG1A       -0.7050   -2.1970   -1.5420 hc        1 00B      0.045033
     17 HG1B       -0.2050   -0.4950   -1.9300 hc        1 00B      0.045033
     18 HG2        -0.7920   -1.7690    2.1510 hc        1 00B      0.045033
     19 HG2A       -0.9260   -2.9430    0.7760 hc        1 00B      0.045033
     20 HG2B        0.7120   -2.3140    1.2790 hc        1 00B      0.045033
@<TRIPOS>BOND
     1    1    3 1   
     2    1    4 1   
     3    1   10 1   
     4    2    4 1   
     5    2    6 1   
     6    2   11 1   
     7    4    5 1   
     8    4   12 1   
     9    5    7 1   
    10    5    8 1   
    11    5    9 1   
    12    6    9 1   
    13    6   13 1   
    14    6   14 1   
    15    7   15 1   
    16    7   16 1   
    17    7   17 1   
    18    8   18 1   
    19    8   19 1   
    20    8   20 1   
@<TRIPOS>SUBSTRUCTURE
     1 00B         1 TEMP              0 ****  ****    0 ROOT
