@<TRIPOS>MOLECULE
00C
   15    14     1     0     0
SMALL
bcc


@<TRIPOS>ATOM
      1 N          -0.9350    1.6470    0.6810 n3        1 00C     -0.920800
      2 CA         -1.0270    0.2170    0.4430 c3        1 00C      0.095500
      3 C          -2.4240   -0.1820   -0.1260 c         1 00C      0.914600
      4 O          -2.9510    0.5330   -1.0310 o         1 00C     -0.873800
      5 CB          0.0400   -0.3610   -0.4940 c3        1 00C     -0.327600
      6 SG          1.7240   -0.1500   -0.0870 s6        1 00C      1.407800
      7 OD2         1.9770    1.2570   -0.0450 o         1 00C     -0.769533
      8 O3          1.9740   -0.7910    1.1590 o         1 00C     -0.769533
      9 O4         -2.9850   -1.2180    0.3410 o         1 00C     -0.873800
     10 OD1         2.4360   -0.7810   -1.1580 o         1 00C     -0.769533
     11 HN          0.0260    1.9410    0.6490 hn        1 00C      0.341800
     12 HNA        -1.4310    2.1270   -0.0500 hn        1 00C      0.341800
     13 HA         -0.9060   -0.2860    1.4470 h1        1 00C      0.046700
     14 HB         -0.1770   -1.4580   -0.5710 h1        1 00C      0.077200
     15 HBA        -0.1420    0.0600   -1.5160 h1        1 00C      0.077200
@<TRIPOS>BOND
     1    1    2 1   
     2    1   11 1   
     3    1   12 1   
     4    2    3 1   
     5    2    5 1   
     6    2   13 1   
     7    3    4 1   
     8    3    9 1   
     9    5    6 1   
    10    5   14 1   
    11    5   15 1   
    12    6    7 1   
    13    6    8 1   
    14    6   10 1   
@<TRIPOS>SUBSTRUCTURE
     1 00C         1 TEMP              0 ****  ****    0 ROOT
