@<TRIPOS>MOLECULE
00C
   15    13     1     0     0
SMALL
bcc


@<TRIPOS>ATOM
      1 N          -1.9570    0.5230    0.1740 n3        1 00C     -0.914800
      2 CA         -0.5380    0.4490    0.2400 c3        1 00C      0.111500
      3 C          -0.1050    0.3640    1.6860 c         1 00C      0.911600
      4 O          -0.5000   -0.5910    2.4060 o         1 00C     -0.873300
      5 CB         -0.0630   -0.7800   -0.5010 c3        1 00C     -0.331100
      6 SG          1.6000   -0.5270   -1.0600 s4        1 00C      1.621500
      7 OD2         1.9950   -1.5570   -2.0910 o         1 00C     -0.702900
      8 O3          1.7220    0.7490   -1.8590 o         1 00C     -0.702900
      9 O4          0.6490    1.2470    2.1700 o         1 00C     -0.873300
     10 OD1         2.5520   -0.5320    0.1120 os        1 00C     -1.097000
     11 HN         -2.2560    1.1720    0.7470 hn        1 00C      0.338800
     12 HNA        -2.2120    0.7300   -0.6810 hn        1 00C      0.338800
     13 HA         -0.1500    1.2470   -0.1700 h1        1 00C     -0.007300
     14 HB         -0.6450   -0.9420   -1.2710 h1        1 00C      0.090200
     15 HBA        -0.0920   -1.5530    0.0970 h1        1 00C      0.090200
@<TRIPOS>BOND
     1    1    2 1   
     2    1   11 1   
     3    1   12 1   
     4    2    3 1   
     5    2    5 1   
     6    2   13 1   
     7    3    4 1   
     8    3    9 1   
     9    5    6 1   
    10    5   14 1   
    11    5   15 1   
    12    6    7 1   
    13    6    8 1   
@<TRIPOS>SUBSTRUCTURE
     1 00C         1 TEMP              0 ****  ****    0 ROOT
