@<TRIPOS>MOLECULE
00D
   22    21     1     0     0
SMALL
bcc


@<TRIPOS>ATOM
      1 N          -1.7260    0.2160   -0.9340 n3        1 00D     -0.914800
      2 CA         -0.3040    0.2160   -0.9340 c3        1 00D      0.182500
      3 CB1         0.2000    0.2160    0.4910 c3        1 00D     -0.048000
      4 CB2         0.2000   -1.0180   -1.6460 c3        1 00D     -0.093100
      5 CD1         1.7130    0.2320    0.4910 c3        1 00D     -0.086433
      6 CD2        -0.3180    1.4430    1.2090 c3        1 00D     -0.086433
      7 CD3        -0.2910   -1.0270    1.2000 c3        1 00D     -0.086433
      8 HN         -2.0300    1.0350   -1.1950 hn        1 00D      0.348800
      9 HNA        -2.0300   -0.4200   -1.5120 hn        1 00D      0.348800
     10 HA          0.0220    1.0130   -1.3940 h1        1 00D      0.001700
     11 HB2         1.1720   -1.0650   -1.5670 hc        1 00D      0.039033
     12 HB2A       -0.1980   -1.8120   -1.2420 hc        1 00D      0.039033
     13 HB2B       -0.0480   -0.9730   -2.5890 hc        1 00D      0.039033
     14 HD1         2.0480   -0.6640    0.3010 hc        1 00D      0.035367
     15 HD1A        2.0350    0.5220    1.3660 hc        1 00D      0.035367
     16 HD1B        2.0320    0.8510   -0.1940 hc        1 00D      0.035367
     17 HD2        -0.1030    2.2400    0.6880 hc        1 00D      0.035367
     18 HD2A       -1.2860    1.3740    1.3150 hc        1 00D      0.035367
     19 HD2B        0.1020    1.5070    2.0880 hc        1 00D      0.035367
     20 HD3        -0.1300   -0.9400    2.1590 hc        1 00D      0.035367
     21 HD3A        0.1880   -1.8070    0.8590 hc        1 00D      0.035367
     22 HD3B       -1.2470   -1.1370    1.0390 hc        1 00D      0.035367
@<TRIPOS>BOND
     1    1    2 1   
     2    1    8 1   
     3    1    9 1   
     4    2    3 1   
     5    2    4 1   
     6    2   10 1   
     7    3    5 1   
     8    3    6 1   
     9    3    7 1   
    10    4   11 1   
    11    4   12 1   
    12    4   13 1   
    13    5   14 1   
    14    5   15 1   
    15    5   16 1   
    16    6   17 1   
    17    6   18 1   
    18    6   19 1   
    19    7   20 1   
    20    7   21 1   
    21    7   22 1   
@<TRIPOS>SUBSTRUCTURE
     1 00D         1 TEMP              0 ****  ****    0 ROOT
