@<TRIPOS>MOLECULE
00D
   22    21     1     0     0
SMALL
bcc


@<TRIPOS>ATOM
      1 N           1.5740    1.2040   -0.0000 n3        1 00D     -0.902800
      2 CA          0.8370    0.0400    0.4620 c3        1 00D      0.169500
      3 CB1        -0.6280    0.0260   -0.0600 c3        1 00D     -0.046000
      4 CB2         1.5390   -1.2920    0.1840 c3        1 00D     -0.133100
      5 CD1        -1.3160   -1.2530    0.4000 c3        1 00D     -0.086767
      6 CD2        -1.3750    1.2150    0.5320 c3        1 00D     -0.086767
      7 CD3        -0.6920    0.1060   -1.5770 c3        1 00D     -0.086767
      8 HN          2.5190    1.1590    0.3290 hn        1 00D      0.344300
      9 HNA         1.5840    1.2430   -1.0010 hn        1 00D      0.344300
     10 HA          0.7710    0.1480    1.5890 h1        1 00D      0.055700
     11 HB2         1.4860   -1.5620   -0.8970 hc        1 00D      0.036367
     12 HB2A        2.6150   -1.2380    0.4810 hc        1 00D      0.036367
     13 HB2B        1.0630   -2.1080    0.7780 hc        1 00D      0.036367
     14 HD1        -1.1420   -1.4210    1.4900 hc        1 00D      0.035478
     15 HD1A       -2.4170   -1.1770    0.2250 hc        1 00D      0.035478
     16 HD1B       -0.9330   -2.1350   -0.1680 hc        1 00D      0.035478
     17 HD2        -0.9020    2.1770    0.2240 hc        1 00D      0.035478
     18 HD2A       -2.4350    1.2120    0.1790 hc        1 00D      0.035478
     19 HD2B       -1.3710    1.1570    1.6470 hc        1 00D      0.035478
     20 HD3         0.0020   -0.6320   -2.0450 hc        1 00D      0.035478
     21 HD3A       -1.7300   -0.1190   -1.9230 hc        1 00D      0.035478
     22 HD3B       -0.4250    1.1290   -1.9360 hc        1 00D      0.035478
@<TRIPOS>BOND
     1    1    2 1   
     2    1    8 1   
     3    1    9 1   
     4    2    3 1   
     5    2    4 1   
     6    2   10 1   
     7    3    5 1   
     8    3    6 1   
     9    3    7 1   
    10    4   11 1   
    11    4   12 1   
    12    4   13 1   
    13    5   14 1   
    14    5   15 1   
    15    5   16 1   
    16    6   17 1   
    17    6   18 1   
    18    6   19 1   
    19    7   20 1   
    20    7   21 1   
    21    7   22 1   
@<TRIPOS>SUBSTRUCTURE
     1 00D         1 TEMP              0 ****  ****    0 ROOT
