@<TRIPOS>MOLECULE
00D
   23    22     1     0     0
SMALL
bcc


@<TRIPOS>ATOM
      1 N          -0.0300   -0.0450   -0.0780 n4        1 00D     -0.845600
      2 CA          1.4770   -0.0390    0.0050 c3        1 00D      0.131500
      3 CB1         1.9470   -0.0290    1.4840 c3        1 00D     -0.069000
      4 CB2         2.0490   -1.1900   -0.8090 c3        1 00D     -0.138100
      5 CD1         3.4700   -0.1090    1.4930 c3        1 00D     -0.110433
      6 CD2         1.5220    1.2800    2.1370 c3        1 00D     -0.110433
      7 CD3         1.3760   -1.1970    2.2710 c3        1 00D     -0.110433
      8 HN         -0.4050    0.7650    0.4250 hn        1 00D      0.458467
      9 HNA        -0.3260   -0.0110   -1.0560 hn        1 00D      0.458467
     10 HA          1.8060    0.9380   -0.4690 hx        1 00D      0.107700
     11 HB2         1.8500   -2.1800   -0.3310 hc        1 00D      0.081367
     12 HB2A        1.6410   -1.2000   -1.8500 hc        1 00D      0.081367
     13 HB2B        3.1590   -1.0540   -0.8830 hc        1 00D      0.081367
     14 HD1         3.8140   -1.1280    1.1940 hc        1 00D      0.058367
     15 HD1A        3.8480    0.0960    2.5250 hc        1 00D      0.058367
     16 HD1B        3.9110    0.6470    0.8000 hc        1 00D      0.058367
     17 HD2         2.0020    1.3660    3.1450 hc        1 00D      0.058367
     18 HD2A        0.4180    1.3290    2.2920 hc        1 00D      0.058367
     19 HD2B        1.8480    2.1560    1.5250 hc        1 00D      0.058367
     20 HD3         1.5400   -2.1650    1.7380 hc        1 00D      0.058367
     21 HD3A        0.2850   -1.0670    2.4720 hc        1 00D      0.058367
     22 HD3B        1.8930   -1.2600    3.2620 hc        1 00D      0.058367
     23 HN3        -0.3920   -0.9010    0.3540 hn        1 00D      0.458467
@<TRIPOS>BOND
     1    1    2 1   
     2    1    8 1   
     3    1    9 1   
     4    1   23 1   
     5    2    3 1   
     6    2    4 1   
     7    2   10 1   
     8    3    5 1   
     9    3    6 1   
    10    3    7 1   
    11    4   11 1   
    12    4   12 1   
    13    4   13 1   
    14    5   14 1   
    15    5   15 1   
    16    5   16 1   
    17    6   17 1   
    18    6   18 1   
    19    6   19 1   
    20    7   20 1   
    21    7   21 1   
    22    7   22 1   
@<TRIPOS>SUBSTRUCTURE
     1 00D         1 TEMP              0 ****  ****    0 ROOT
