@<TRIPOS>MOLECULE
00D
   23    22     1     0     0
SMALL
bcc


@<TRIPOS>ATOM
      1 N          -0.0420   -0.0560   -0.0600 n4        1 00D     -0.845600
      2 CA          1.4670   -0.0400    0.0070 c3        1 00D      0.131500
      3 CB1         1.9510   -0.0280    1.4810 c3        1 00D     -0.069000
      4 CB2         2.0390   -1.1850   -0.8130 c3        1 00D     -0.138100
      5 CD1         3.4740   -0.0990    1.4760 c3        1 00D     -0.110433
      6 CD2         1.5250    1.2790    2.1400 c3        1 00D     -0.110433
      7 CD3         1.3950   -1.2000    2.2730 c3        1 00D     -0.110433
      8 HN         -0.4170    0.7510    0.4480 hn        1 00D      0.458467
      9 HNA        -0.3470   -0.0220   -1.0360 hn        1 00D      0.458467
     10 HA          1.7840    0.9410   -0.4680 hx        1 00D      0.107700
     11 HB2         3.1470   -1.0400   -0.9000 hc        1 00D      0.081700
     12 HB2A        1.8530   -2.1770   -0.3340 hc        1 00D      0.081700
     13 HB2B        1.6200   -1.1970   -1.8500 hc        1 00D      0.081700
     14 HD1         3.8220   -1.1160    1.1730 hc        1 00D      0.058256
     15 HD1A        3.9040    0.6610    0.7790 hc        1 00D      0.058256
     16 HD1B        3.8610    0.1070    2.5040 hc        1 00D      0.058256
     17 HD2         2.0130    1.3660    3.1440 hc        1 00D      0.058256
     18 HD2A        0.4220    1.3220    2.3050 hc        1 00D      0.058256
     19 HD2B        1.8410    2.1560    1.5270 hc        1 00D      0.058256
     20 HD3         0.3050   -1.0750    2.4860 hc        1 00D      0.058256
     21 HD3A        1.5580   -2.1660    1.7370 hc        1 00D      0.058256
     22 HD3B        1.9220   -1.2620    3.2580 hc        1 00D      0.058256
     23 HN3        -0.3930   -0.9160    0.3730 hn        1 00D      0.458467
@<TRIPOS>BOND
     1    1    2 1   
     2    1    8 1   
     3    1    9 1   
     4    1   23 1   
     5    2    3 1   
     6    2    4 1   
     7    2   10 1   
     8    3    5 1   
     9    3    6 1   
    10    3    7 1   
    11    4   11 1   
    12    4   12 1   
    13    4   13 1   
    14    5   14 1   
    15    5   15 1   
    16    5   16 1   
    17    6   17 1   
    18    6   18 1   
    19    6   19 1   
    20    7   20 1   
    21    7   21 1   
    22    7   22 1   
@<TRIPOS>SUBSTRUCTURE
     1 00D         1 TEMP              0 ****  ****    0 ROOT
