@<TRIPOS>MOLECULE
00D
   23    22     1     0     0
SMALL
bcc


@<TRIPOS>ATOM
      1 N          -0.0410   -0.0610   -0.0620 nz        1 00D     -0.845600
      2 CA          1.4680   -0.0430    0.0060 c3        1 00D      0.131500
      3 CB1         1.9500   -0.0260    1.4810 c3        1 00D     -0.069000
      4 CB2         2.0420   -1.1900   -0.8100 c3        1 00D     -0.138100
      5 CD1         3.4740   -0.0930    1.4770 c3        1 00D     -0.110433
      6 CD2         1.5210    1.2820    2.1360 c3        1 00D     -0.110433
      7 CD3         1.3960   -1.1970    2.2750 c3        1 00D     -0.110433
      8 HN         -0.4180    0.7470    0.4430 hn        1 00D      0.458467
      9 HNA        -0.3460   -0.0320   -1.0380 hn        1 00D      0.458467
     10 HA          1.7830    0.9370   -0.4720 hx        1 00D      0.107700
     11 HB2         3.1500   -1.0440   -0.8960 hc        1 00D      0.081367
     12 HB2A        1.8560   -2.1810   -0.3290 hc        1 00D      0.081367
     13 HB2B        1.6240   -1.2050   -1.8470 hc        1 00D      0.081367
     14 HD1         3.8240   -1.1110    1.1770 hc        1 00D      0.058367
     15 HD1A        3.9020    0.6650    0.7790 hc        1 00D      0.058367
     16 HD1B        3.8600    0.1160    2.5050 hc        1 00D      0.058367
     17 HD2         2.0090    1.3730    3.1390 hc        1 00D      0.058367
     18 HD2A        0.4180    1.3230    2.3000 hc        1 00D      0.058367
     19 HD2B        1.8350    2.1580    1.5200 hc        1 00D      0.058367
     20 HD3         0.3060   -1.0740    2.4870 hc        1 00D      0.058367
     21 HD3A        1.5620   -2.1640    1.7430 hc        1 00D      0.058367
     22 HD3B        1.9220   -1.2540    3.2620 hc        1 00D      0.058367
     23 HN3        -0.3920   -0.9200    0.3740 hn        1 00D      0.458467
@<TRIPOS>BOND
     1    1    2 1   
     2    1    8 1   
     3    1    9 1   
     4    1   23 1   
     5    2    3 1   
     6    2    4 1   
     7    2   10 1   
     8    3    5 1   
     9    3    6 1   
    10    3    7 1   
    11    4   11 1   
    12    4   12 1   
    13    4   13 1   
    14    5   14 1   
    15    5   15 1   
    16    5   16 1   
    17    6   17 1   
    18    6   18 1   
    19    6   19 1   
    20    7   20 1   
    21    7   21 1   
    22    7   22 1   
@<TRIPOS>SUBSTRUCTURE
     1 00D         1 TEMP              0 ****  ****    0 ROOT
