@<TRIPOS>MOLECULE
00E
   20    19     1     0     0
SMALL
bcc


@<TRIPOS>ATOM
      1 C          -0.6430    2.2540    0.3130 c1        1 00E      0.775000
      2 O          -0.1940    2.8740    1.3160 o         1 00E     -0.814500
      3 CA          0.3160    1.7060   -0.7340 c2        1 00E      0.162100
      4 NB          0.4870    0.2780   -0.5360 nh        1 00E     -0.254100
      5 OZ         -0.3070   -2.1390    0.7140 os        1 00E     -0.432600
      6 CD1        -0.6830   -0.4020   -0.9520 c3        1 00E     -0.056700
      7 CD2         0.8120    0.0240    0.8180 c3        1 00E     -0.056700
      8 CE1        -0.6310   -1.8860   -0.6380 c3        1 00E      0.133400
      9 CE2         0.8620   -1.4600    1.1310 c3        1 00E      0.133400
     10 OXT        -1.8840    2.1840    0.1240 o         1 00E     -0.814500
     11 HAA         1.1830    2.1530   -0.6480 h4        1 00E     -0.055200
     12 HAB        -0.0460    1.8690   -1.6240 h4        1 00E     -0.055200
     13 HD1        -1.4500   -0.0120   -0.5020 h1        1 00E      0.057200
     14 HD1A       -0.7900   -0.2860   -1.9210 h1        1 00E      0.057200
     15 HD2         0.1340    0.4480    1.3940 h1        1 00E      0.057200
     16 HD2A        1.6880    0.4190    1.0140 h1        1 00E      0.057200
     17 HE1        -1.5050   -2.2810   -0.8320 h1        1 00E      0.026200
     18 HE1A        0.0480   -2.3120   -1.2150 h1        1 00E      0.026200
     19 HE2         0.9670   -1.5770    2.0990 h1        1 00E      0.026200
     20 HE2A        1.6360   -1.8530    0.6780 h1        1 00E      0.026200
@<TRIPOS>BOND
     1    1    2 2   
     2    1   10 2   
     3    3    4 2   
     4    3   11 1   
     5    3   12 1   
     6    4    6 1   
     7    4    7 1   
     8    5    8 1   
     9    5    9 1   
    10    6    8 1   
    11    6   13 1   
    12    6   14 1   
    13    7    9 1   
    14    7   15 1   
    15    7   16 1   
    16    8   17 1   
    17    8   18 1   
    18    9   19 1   
    19    9   20 1   
@<TRIPOS>SUBSTRUCTURE
     1 00E         1 TEMP              0 ****  ****    0 ROOT
