@<TRIPOS>MOLECULE
00E
   20    20     1     0     0
SMALL
bcc


@<TRIPOS>ATOM
      1 C           2.3560    0.0230   -0.0630 c         1 00E      0.922600
      2 O           2.3420    1.2080   -0.5000 o         1 00E     -0.841300
      3 CA          1.1290   -0.8990   -0.3180 c3        1 00E      0.042800
      4 NB         -0.1510   -0.3950    0.1510 n3        1 00E     -0.699600
      5 OZ         -2.9110    0.4050   -0.1270 os        1 00E     -0.442600
      6 CD1        -1.2170   -1.3730   -0.0410 c3        1 00E      0.126800
      7 CD2        -0.5200    0.8860   -0.4350 c3        1 00E      0.126800
      8 CE1        -2.5750   -0.8540    0.4430 c3        1 00E      0.129400
      9 CE2        -1.8820    1.3770    0.0590 c3        1 00E      0.129400
     10 OXT         3.3380   -0.5110    0.5220 o         1 00E     -0.841300
     11 HAA         1.1070   -1.1120   -1.4270 h1        1 00E      0.014700
     12 HAB         1.3190   -1.8700    0.2180 h1        1 00E      0.014700
     13 HD1        -1.3220   -1.6810   -1.1230 h1        1 00E      0.045200
     14 HD1A       -0.9550   -2.2920    0.5510 h1        1 00E      0.045200
     15 HD2         0.2810    1.6290   -0.1510 h1        1 00E      0.045200
     16 HD2A       -0.5510    0.8320   -1.5630 h1        1 00E      0.045200
     17 HE1        -2.5860   -0.7660    1.5620 h1        1 00E      0.033700
     18 HE1A       -3.3950   -1.5400    0.1070 h1        1 00E      0.033700
     19 HE2        -2.2220    2.2550   -0.5500 h1        1 00E      0.033700
     20 HE2A       -1.8380    1.6580    1.1440 h1        1 00E      0.033700
@<TRIPOS>BOND
     1    1    2 1   
     2    1    3 1   
     3    1   10 1   
     4    3    4 1   
     5    3   11 1   
     6    3   12 1   
     7    4    6 1   
     8    4    7 1   
     9    5    8 1   
    10    5    9 1   
    11    6    8 1   
    12    6   13 1   
    13    6   14 1   
    14    7    9 1   
    15    7   15 1   
    16    7   16 1   
    17    8   17 1   
    18    8   18 1   
    19    9   19 1   
    20    9   20 1   
@<TRIPOS>SUBSTRUCTURE
     1 00E         1 TEMP              0 ****  ****    0 ROOT
