@<TRIPOS>MOLECULE
00F
   35    35     1     0     0
SMALL
bcc


@<TRIPOS>ATOM
      1 N13        -0.6110    1.2020    1.3970 n3        1 00F     -0.881800
      2 C15        -0.5800    0.3360    0.2430 c3        1 00F     -0.114700
      3 C16        -1.8350    0.3100   -0.6270 c3        1 00F     -0.087100
      4 C17        -3.0570   -0.0970    0.1120 ca        1 00F     -0.057300
      5 C18        -3.2070   -1.4200    0.5490 ca        1 00F     -0.130000
      6 C19        -4.3560   -1.8090    1.2360 ca        1 00F     -0.134000
      7 C20        -5.3670   -0.8820    1.4920 ca        1 00F     -0.145000
      8 C21        -5.2250    0.4350    1.0580 ca        1 00F     -0.134000
      9 C22        -4.0760    0.8270    0.3710 ca        1 00F     -0.130000
     10 P33         0.6670    0.8650   -0.7840 p5        1 00F      1.515100
     11 O36         0.5540   -0.1360   -2.0280 oh        1 00F     -0.831400
     12 C37         2.0600    0.5260    0.0010 c3        1 00F     -0.430600
     13 C39         3.2340    0.4440   -0.9610 c3        1 00F     -0.174700
     14 C40         4.4010    1.2740   -0.4830 c3        1 00F     -0.062100
     15 C45         3.6760   -1.0320   -1.1850 c         1 00F      0.912600
     16 O46         2.7700   -1.8640   -1.5070 o         1 00F     -0.837300
     17 OP3         0.4210    2.2490   -1.2010 o         1 00F     -0.884300
     18 HN13       -0.7580    2.1470    1.0870 hn        1 00F      0.349300
     19 HN1A       -1.3570    0.9480    2.0170 hn        1 00F      0.349300
     20 H15        -0.4040   -0.7120    0.6200 h1        1 00F      0.094700
     21 H16        -1.9630    1.3310   -1.0830 hc        1 00F      0.083700
     22 H16A       -1.6430   -0.4090   -1.4720 hc        1 00F      0.083700
     23 H18        -2.4100   -2.1510    0.3460 ha        1 00F      0.137500
     24 H19        -4.4640   -2.8490    1.5760 ha        1 00F      0.122500
     25 H20        -6.2720   -1.1900    2.0330 ha        1 00F      0.120000
     26 H21        -6.0200    1.1680    1.2560 ha        1 00F      0.122500
     27 H22        -3.9690    1.8660    0.0270 ha        1 00F      0.137500
     28 HO36        1.2190   -0.8360   -2.1190 ho        1 00F      0.520000
     29 H37         2.2790    1.2960    0.7870 hc        1 00F      0.106700
     30 H37A        2.0190   -0.4490    0.5600 hc        1 00F      0.106700
     31 H39         2.9050    0.8350   -1.9660 hc        1 00F      0.032700
     32 H40         4.1220    2.3520   -0.4040 hc        1 00F      0.026033
     33 H40A        4.7440    0.9120    0.5160 hc        1 00F      0.026033
     34 H40B        5.2530    1.1640   -1.1970 hc        1 00F      0.026033
     35 OXT         4.8880   -1.3350   -1.0580 o         1 00F     -0.837300
@<TRIPOS>BOND
     1    1    2 1   
     2    1   18 1   
     3    1   19 1   
     4    2    3 1   
     5    2   10 1   
     6    2   20 1   
     7    3    4 1   
     8    3   21 1   
     9    3   22 1   
    10    4    5 ar  
    11    4    9 ar  
    12    5    6 ar  
    13    5   23 1   
    14    6    7 ar  
    15    6   24 1   
    16    7    8 ar  
    17    7   25 1   
    18    8    9 ar  
    19    8   26 1   
    20    9   27 1   
    21   10   11 1   
    22   10   12 1   
    23   10   17 2   
    24   11   28 1   
    25   12   13 1   
    26   12   29 1   
    27   12   30 1   
    28   13   14 1   
    29   13   15 1   
    30   13   31 1   
    31   14   32 1   
    32   14   33 1   
    33   14   34 1   
    34   15   16 1   
    35   15   35 1   
@<TRIPOS>SUBSTRUCTURE
     1 00F         1 TEMP              0 ****  ****    0 ROOT
