@<TRIPOS>MOLECULE
00F
   35    33     1     0     0
SMALL
bcc


@<TRIPOS>ATOM
      1 N13        -1.7340    0.4070    0.4150 n3        1 00F     -0.303000
      2 C15        -0.2900    0.3900    0.3530 c3        1 00F     -0.748000
      3 C16         0.2770    0.4300    1.7570 c3        1 00F     -0.126000
      4 C17         0.7030    1.8920    2.1100 c2        1 00F     -0.035000
      5 C18        -0.2520    2.8950    2.1740 c2        1 00F     -0.107000
      6 C19         0.1130    4.1840    2.5660 c1        1 00F     -0.138000
      7 C20         1.4290    4.4620    2.8900 c1        1 00F     -0.145000
      8 C21         2.3870    3.4600    2.8270 c1        1 00F     -0.137000
      9 C22         2.0220    2.1710    2.4350 c2        1 00F     -0.128000
     10 P33         0.2670   -1.1290   -0.4840 p5        1 00F      2.796000
     11 O36         1.7590   -0.9260   -1.0150 oh        1 00F     -0.855000
     12 C37        -0.8460   -1.4890   -1.9000 c3        1 00F     -0.918000
     13 C39        -0.5940   -2.9210   -2.4030 c3        1 00F     -0.165000
     14 C40        -1.9080   -3.6630   -2.5060 c3        1 00F     -0.180000
     15 C45         0.0690   -2.8690   -3.7690 c2        1 00F      0.332000
     16 O46        -0.4390   -2.1780   -4.6880 o         1 00F     -0.568500
     17 OP3         0.2350   -2.2610    0.4710 o         1 00F     -1.148000
     18 HN13       -2.0700    0.6570   -0.3930 hn        1 00F      0.137000
     19 HN1A       -2.0470   -0.4460    0.6330 hn        1 00F      0.137000
     20 H15         0.0240    1.1750   -0.1510 h1        1 00F      0.143000
     21 H16        -0.4100    0.1250    2.3980 hc        1 00F      0.114000
     22 H16A        1.0590   -0.1600    1.8090 hc        1 00F      0.114000
     23 H18        -1.1930    2.6970    1.9420 ha        1 00F      0.136000
     24 H19        -0.5710    4.9010    2.6110 ha        1 00F      0.119000
     25 H20         1.6900    5.3850    3.1710 ha        1 00F      0.116000
     26 H21         3.3350    3.6610    3.0610 DU        1 00F      0.120000
     27 H22         2.7130    1.4470    2.3900 ha        1 00F      0.135000
     28 HO36        2.1400   -1.7240   -1.1460 ho        1 00F      0.324000
     29 H37        -0.6670   -0.8450   -2.6320 hc        1 00F      0.138500
     30 H37A       -1.7870   -1.4030   -1.6070 hc        1 00F      0.138500
     31 H39        -0.0080   -3.3870   -1.7760 hc        1 00F      0.074000
     32 H40        -1.8650   -4.4760   -1.9610 hc        1 00F      0.066333
     33 H40A       -2.0740   -3.9030   -3.4370 hc        1 00F      0.066333
     34 H40B       -2.6260   -3.0960   -2.1840 hc        1 00F      0.066333
     35 OXT         1.1570   -3.4650   -3.9600 o         1 00F     -0.568500
@<TRIPOS>BOND
     1    1    2 1   
     2    1   18 1   
     3    1   19 1   
     4    2    3 1   
     5    2   10 1   
     6    2   20 1   
     7    3    4 1   
     8    3   21 1   
     9    3   22 1   
    10    4    5 1   
    11    4    9 1   
    12    5    6 1   
    13    5   23 1   
    14    6   24 1   
    15    7    8 1   
    16    7   25 1   
    17    8    9 1   
    18    9   27 1   
    19   10   11 1   
    20   10   12 1   
    21   10   17 1   
    22   11   28 1   
    23   12   13 1   
    24   12   29 1   
    25   12   30 1   
    26   13   14 1   
    27   13   15 1   
    28   13   31 1   
    29   14   32 1   
    30   14   33 1   
    31   14   34 1   
    32   15   16 1   
    33   15   35 1   
@<TRIPOS>SUBSTRUCTURE
     1 00F         1 TEMP              0 ****  ****    0 ROOT
