@<TRIPOS>MOLECULE
00G
   31    22     1     0     0
SMALL
bcc


@<TRIPOS>ATOM
      1 C17         3.1190   -2.1190   -2.3160 c1        1 00G     -0.138500
      2 C16         4.4960   -2.1190   -2.3160 c1        1 00G     -0.195500
      3 C15         4.9150   -2.1190   -1.0250 c1        1 00G     -0.195500
      4 C14         3.7990   -2.1190   -0.2160 c1        1 00G     -0.138500
      5 N13         2.6970   -2.1190   -1.0190 n2        1 00G     -0.139000
      6 C12         1.3440   -2.1630   -0.5810 c2        1 00G     -0.028000
      7 C11         0.8450   -0.7550   -0.3400 c3        1 00G     -0.043000
      8 O10        -0.5460   -0.7810   -0.1200 os        1 00G     -0.223000
      9 C3         -1.1080    0.4850    0.1150 c2        1 00G      0.040000
     10 C2         -0.8080    1.8050   -0.1950 c1        1 00G     -0.167000
     11 C4         -2.2440    0.1880    0.8540 c2        1 00G     -0.106000
     12 C5         -3.0910    1.2220    1.2890 c1        1 00G     -0.057000
     13 C9         -4.2580    1.2140    2.0200 c1        1 00G     -0.205000
     14 C8         -4.6800    2.5210    2.1640 c1        1 00G     -0.072000
     15 N7         -3.7810    3.3280    1.5260 n2        1 00G     -0.218000
     16 C6         -2.7940    2.5250    0.9820 c1        1 00G     -0.023000
     17 C1         -1.6430    2.8260    0.2330 c1        1 00G     -0.117000
     18 H17         2.5450   -2.1190   -3.1060 DU        1 00G      0.171857
     19 H16         5.0700   -2.1190   -3.1060 DU        1 00G      0.171857
     20 H15         5.8430   -2.1190   -0.7220 DU        1 00G      0.171857
     21 H14         3.7980   -2.1190    0.7600 DU        1 00G      0.171857
     22 H12         0.7940   -2.5900   -1.2650 ha        1 00G      0.112500
     23 H12A        1.2870   -2.6750    0.2480 ha        1 00G      0.112500
     24 H11         1.0410   -0.2020   -1.1210 h1        1 00G      0.088500
     25 H11A        1.2920   -0.3810    0.4430 h1        1 00G      0.088500
     26 H2         -0.0230    2.0110   -0.7380 ha        1 00G      0.138000
     27 H4         -2.4650   -0.7410    1.0560 ha        1 00G      0.151000
     28 H9         -4.7080    0.4240    2.3750 DU        1 00G      0.171857
     29 H8         -5.4810    2.8160    2.6380 DU        1 00G      0.171857
     30 H1         -1.4310    3.7540    0.0150 ha        1 00G      0.134000
     31 HN7        -3.8240    4.2370    1.4680 DU        1 00G      0.171857
@<TRIPOS>BOND
     1    1    2 1   
     2    1    5 1   
     3    2    3 1   
     4    3    4 1   
     5    4    5 1   
     6    6    7 1   
     7    6   22 1   
     8    6   23 1   
     9    7    8 1   
    10    7   24 1   
    11    7   25 1   
    12    8    9 1   
    13    9   10 1   
    14    9   11 1   
    15   10   26 1   
    16   11   12 1   
    17   11   27 1   
    18   13   14 1   
    19   14   15 1   
    20   15   16 1   
    21   16   17 1   
    22   17   30 1   
@<TRIPOS>SUBSTRUCTURE
     1 00G         1 TEMP              0 ****  ****    0 ROOT
