@<TRIPOS>MOLECULE
00G
   31    33     1     0     0
SMALL
bcc


@<TRIPOS>ATOM
      1 C17        -0.0080   -0.1140   -0.0250 cc        1 00G     -0.162800
      2 C16         1.3860   -0.2370   -0.0340 cd        1 00G     -0.195500
      3 C15         1.8240   -0.2370    1.3340 cd        1 00G     -0.195500
      4 C14         0.6830   -0.1130    2.1350 cc        1 00G     -0.162800
      5 N13        -0.4380   -0.0540    1.3030 na        1 00G     -0.071100
      6 C12        -1.7870    0.1430    1.7350 c3        1 00G      0.031300
      7 C11        -2.1830    1.6270    1.8620 c3        1 00G      0.107400
      8 O10        -3.5400    1.5920    2.3070 os        1 00G     -0.339900
      9 C3         -4.1500    2.8250    2.4900 ca        1 00G      0.086100
     10 C2         -3.5000    4.0600    2.2820 ca        1 00G     -0.167000
     11 C4         -5.4830    2.7450    2.9080 ca        1 00G     -0.106000
     12 C5         -6.1730    3.9340    3.1210 ca        1 00G     -0.068800
     13 C9         -7.5210    4.2450    3.5420 cc        1 00G     -0.194200
     14 C8         -7.6310    5.6330    3.5710 cd        1 00G     -0.099100
     15 N7         -6.4230    6.2220    3.1900 na        1 00G     -0.195400
     16 C6         -5.5080    5.2030    2.9070 ca        1 00G     -0.069200
     17 C1         -4.1720    5.2560    2.4880 ca        1 00G     -0.117000
     18 H17        -0.7170   -0.0800   -0.8510 h4        1 00G      0.164000
     19 H16         2.0190   -0.3230   -0.9110 ha        1 00G      0.151000
     20 H15         2.8480   -0.3220    1.6800 ha        1 00G      0.151000
     21 H14         0.5850   -0.0780    3.2200 h4        1 00G      0.164000
     22 H12        -1.9270   -0.3500    2.7380 h1        1 00G      0.073200
     23 H12A       -2.4840   -0.3490    0.9980 h1        1 00G      0.073200
     24 H11        -2.1160    2.1520    0.8740 h1        1 00G      0.049200
     25 H11A       -1.5460    2.1540    2.6190 h1        1 00G      0.049200
     26 H2         -2.4520    4.0900    1.9540 ha        1 00G      0.138000
     27 H4         -5.9610    1.7690    3.0620 ha        1 00G      0.151000
     28 H9         -8.2930    3.5230    3.7870 ha        1 00G      0.159000
     29 H8         -8.4880    6.2540    3.8380 h4        1 00G      0.165000
     30 H1         -3.6650    6.2160    2.3250 ha        1 00G      0.134000
     31 HN7        -6.2400    7.1860    3.1300 hn        1 00G      0.298700
@<TRIPOS>BOND
     1    1    2 2   
     2    1    5 1   
     3    1   18 1   
     4    2    3 1   
     5    2   19 1   
     6    3    4 2   
     7    3   20 1   
     8    4    5 1   
     9    4   21 1   
    10    5    6 1   
    11    6    7 1   
    12    6   22 1   
    13    6   23 1   
    14    7    8 1   
    15    7   24 1   
    16    7   25 1   
    17    8    9 1   
    18    9   10 ar  
    19    9   11 ar  
    20   10   17 ar  
    21   10   26 1   
    22   11   12 ar  
    23   11   27 1   
    24   12   13 1   
    25   12   16 ar  
    26   13   14 2   
    27   13   28 1   
    28   14   15 1   
    29   14   29 1   
    30   15   16 1   
    31   15   31 1   
    32   16   17 ar  
    33   17   30 1   
@<TRIPOS>SUBSTRUCTURE
     1 00G         1 TEMP              0 ****  ****    0 ROOT
