@<TRIPOS>MOLECULE
00G
   31    33     1     0     0
SMALL
bcc


@<TRIPOS>ATOM
      1 C17        -4.6650    0.0160    0.9920 cc        1 00G     -0.162800
      2 C16        -5.7640    0.6280    0.3780 cd        1 00G     -0.195500
      3 C15        -5.5510    0.5620   -1.0410 cd        1 00G     -0.195500
      4 C14        -4.3290   -0.0880   -1.2490 cc        1 00G     -0.162800
      5 N13        -3.7960   -0.4360   -0.0050 na        1 00G     -0.071100
      6 C12        -2.5250   -1.0530    0.2150 c3        1 00G      0.031300
      7 C11        -1.3640   -0.0480    0.3460 c3        1 00G      0.107400
      8 O10        -0.2200   -0.8590    0.6310 os        1 00G     -0.339900
      9 C3          1.0060   -0.2540    0.3810 ca        1 00G      0.086100
     10 C2          1.1960    1.1420    0.4620 ca        1 00G     -0.167000
     11 C4          2.0540   -1.1360    0.1050 ca        1 00G     -0.106000
     12 C5          3.3240   -0.5990   -0.0860 ca        1 00G     -0.068800
     13 C9          4.6180   -1.1730   -0.3780 cc        1 00G     -0.193200
     14 C8          5.5240   -0.1190   -0.4660 cd        1 00G     -0.099100
     15 N7          4.8720    1.0970   -0.2490 na        1 00G     -0.195400
     16 C6          3.5200    0.8350   -0.0080 ca        1 00G     -0.069200
     17 C1          2.4500    1.6980    0.2660 ca        1 00G     -0.117000
     18 H17        -4.4470   -0.1430    2.0470 h4        1 00G      0.164000
     19 H16        -6.6200    1.0670    0.8790 ha        1 00G      0.151000
     20 H15        -6.2170    0.9420   -1.8090 ha        1 00G      0.151000
     21 H14        -3.8130   -0.3390   -2.1750 h4        1 00G      0.164000
     22 H12        -2.5730   -1.6660    1.1600 h1        1 00G      0.073200
     23 H12A       -2.3010   -1.7470   -0.6440 h1        1 00G      0.073200
     24 H11        -1.2170    0.5300   -0.6020 h1        1 00G      0.049200
     25 H11A       -1.5320    0.6570    1.2010 h1        1 00G      0.049200
     26 H2          0.3430    1.7990    0.6890 ha        1 00G      0.138000
     27 H4          1.8760   -2.2180    0.0520 ha        1 00G      0.151000
     28 H9          4.8320   -2.2290   -0.5040 ha        1 00G      0.159000
     29 H8          6.5960   -0.1420   -0.6710 h4        1 00G      0.165000
     30 H1          2.5980    2.7840    0.3270 ha        1 00G      0.134000
     31 HN7         5.2920    1.9870   -0.2360 hn        1 00G      0.298700
@<TRIPOS>BOND
     1    1    2 2   
     2    1    5 1   
     3    1   18 1   
     4    2    3 1   
     5    2   19 1   
     6    3    4 2   
     7    3   20 1   
     8    4    5 1   
     9    4   21 1   
    10    5    6 1   
    11    6    7 1   
    12    6   22 1   
    13    6   23 1   
    14    7    8 1   
    15    7   24 1   
    16    7   25 1   
    17    8    9 1   
    18    9   10 ar  
    19    9   11 ar  
    20   10   17 ar  
    21   10   26 1   
    22   11   12 ar  
    23   11   27 1   
    24   12   13 1   
    25   12   16 ar  
    26   13   14 2   
    27   13   28 1   
    28   14   15 1   
    29   14   29 1   
    30   15   16 1   
    31   15   31 1   
    32   16   17 ar  
    33   17   30 1   
@<TRIPOS>SUBSTRUCTURE
     1 00G         1 TEMP              0 ****  ****    0 ROOT
