@<TRIPOS>MOLECULE
00G
   31    33     1     0     0
SMALL
bcc


@<TRIPOS>ATOM
      1 C17        -0.0090   -0.1170   -0.0240 cc        1 00G     -0.162300
      2 C16         1.3850   -0.2430   -0.0310 cd        1 00G     -0.195000
      3 C15         1.8200   -0.2430    1.3380 cd        1 00G     -0.195000
      4 C14         0.6790   -0.1180    2.1380 cc        1 00G     -0.162300
      5 N13        -0.4410   -0.0580    1.3040 na        1 00G     -0.071100
      6 C12        -1.7900    0.1410    1.7330 c3        1 00G      0.033300
      7 C11        -2.1860    1.6260    1.8570 c3        1 00G      0.107400
      8 O10        -3.5460    1.5920    2.2900 os        1 00G     -0.337900
      9 C3         -4.1520    2.8260    2.4810 ca        1 00G      0.095100
     10 C2         -3.5020    4.0600    2.2720 ca        1 00G     -0.177000
     11 C4         -5.4830    2.7480    2.9050 ca        1 00G     -0.113000
     12 C5         -6.1710    3.9380    3.1220 ca        1 00G     -0.063800
     13 C9         -7.5160    4.2510    3.5500 cc        1 00G     -0.196200
     14 C8         -7.6230    5.6390    3.5820 cd        1 00G     -0.097100
     15 N7         -6.4160    6.2260    3.1970 na        1 00G     -0.197400
     16 C6         -5.5040    5.2060    2.9080 ca        1 00G     -0.073200
     17 C1         -4.1700    5.2570    2.4830 ca        1 00G     -0.113000
     18 H17        -0.7170   -0.0820   -0.8510 h4        1 00G      0.164000
     19 H16         2.0200   -0.3290   -0.9060 ha        1 00G      0.151000
     20 H15         2.8440   -0.3300    1.6860 ha        1 00G      0.151000
     21 H14         0.5790   -0.0830    3.2220 h4        1 00G      0.164000
     22 H12        -1.9330   -0.3500    2.7370 h1        1 00G      0.073700
     23 H12A       -2.4870   -0.3520    0.9970 h1        1 00G      0.073700
     24 H11        -1.5540    2.1520    2.6190 h1        1 00G      0.048700
     25 H11A       -2.1100    2.1500    0.8690 h1        1 00G      0.048700
     26 H2         -2.4540    4.0890    1.9390 ha        1 00G      0.137000
     27 H4         -5.9630    1.7720    3.0590 ha        1 00G      0.152000
     28 H9         -8.2890    3.5300    3.7970 ha        1 00G      0.159000
     29 H8         -8.4790    6.2610    3.8530 h4        1 00G      0.164000
     30 H1         -3.6620    6.2170    2.3200 ha        1 00G      0.134000
     31 HN7        -6.2320    7.1900    3.1370 hn        1 00G      0.298700
@<TRIPOS>BOND
     1    1    2 2   
     2    1    5 1   
     3    1   18 1   
     4    2    3 1   
     5    2   19 1   
     6    3    4 2   
     7    3   20 1   
     8    4    5 1   
     9    4   21 1   
    10    5    6 1   
    11    6    7 1   
    12    6   22 1   
    13    6   23 1   
    14    7    8 1   
    15    7   24 1   
    16    7   25 1   
    17    8    9 1   
    18    9   10 ar  
    19    9   11 ar  
    20   10   17 ar  
    21   10   26 1   
    22   11   12 ar  
    23   11   27 1   
    24   12   13 1   
    25   12   16 ar  
    26   13   14 2   
    27   13   28 1   
    28   14   15 1   
    29   14   29 1   
    30   15   16 1   
    31   15   31 1   
    32   16   17 ar  
    33   17   30 1   
@<TRIPOS>SUBSTRUCTURE
     1 00G         1 TEMP              0 ****  ****    0 ROOT
