@<TRIPOS>MOLECULE
00G
   31    33     1     0     0
SMALL
bcc


@<TRIPOS>ATOM
      1 C17         0.1470   -0.1780    0.0800 cc        1 00G     -0.162800
      2 C16         1.5260   -0.3070    0.2850 cd        1 00G     -0.195500
      3 C15         1.7540   -0.2340    1.7010 cd        1 00G     -0.195500
      4 C14         0.5080   -0.0630    2.3160 cc        1 00G     -0.162800
      5 N13        -0.4760   -0.0460    1.3230 na        1 00G     -0.071100
      6 C12        -1.8710    0.1790    1.5370 c3        1 00G      0.031300
      7 C11        -2.2680    1.6680    1.5210 c3        1 00G      0.107400
      8 O10        -3.6900    1.6620    1.6750 os        1 00G     -0.339900
      9 C3         -4.2400    2.8610    2.1080 ca        1 00G      0.085100
     10 C2         -3.6490    4.1130    1.8300 ca        1 00G     -0.167000
     11 C4         -5.4550    2.7430    2.7870 ca        1 00G     -0.106000
     12 C5         -6.0950    3.9140    3.1880 ca        1 00G     -0.068800
     13 C9         -7.3290    4.1880    3.8870 cc        1 00G     -0.193200
     14 C8         -7.4330    5.5720    4.0080 cd        1 00G     -0.099100
     15 N7         -6.3260    6.1920    3.4240 na        1 00G     -0.195400
     16 C6         -5.4880    5.1990    2.9080 ca        1 00G     -0.068200
     17 C1         -4.2640    5.2890    2.2290 ca        1 00G     -0.117000
     18 H17        -0.4310   -0.1860   -0.8440 h4        1 00G      0.164000
     19 H16         2.2810   -0.4420   -0.4810 ha        1 00G      0.151000
     20 H15         2.7150   -0.3040    2.2010 ha        1 00G      0.151000
     21 H14         0.2500    0.0310    3.3700 h4        1 00G      0.164000
     22 H12        -2.1650   -0.2570    2.5340 h1        1 00G      0.073200
     23 H12A       -2.4560   -0.3530    0.7330 h1        1 00G      0.073200
     24 H11        -1.7780    2.2290    2.3570 h1        1 00G      0.049200
     25 H11A       -2.0110    2.1460    0.5400 h1        1 00G      0.049200
     26 H2         -2.6940    4.1600    1.2880 ha        1 00G      0.138000
     27 H4         -5.8920    1.7560    2.9860 ha        1 00G      0.151000
     28 H9         -8.0350    3.4470    4.2470 ha        1 00G      0.159000
     29 H8         -8.2200    6.1700    4.4720 h4        1 00G      0.165000
     30 H1         -3.8040    6.2630    2.0150 ha        1 00G      0.134000
     31 HN7        -6.1710    7.1610    3.3580 hn        1 00G      0.298700
@<TRIPOS>BOND
     1    1    2 2   
     2    1    5 1   
     3    1   18 1   
     4    2    3 1   
     5    2   19 1   
     6    3    4 2   
     7    3   20 1   
     8    4    5 1   
     9    4   21 1   
    10    5    6 1   
    11    6    7 1   
    12    6   22 1   
    13    6   23 1   
    14    7    8 1   
    15    7   24 1   
    16    7   25 1   
    17    8    9 1   
    18    9   10 ar  
    19    9   11 ar  
    20   10   17 ar  
    21   10   26 1   
    22   11   12 ar  
    23   11   27 1   
    24   12   13 1   
    25   12   16 ar  
    26   13   14 2   
    27   13   28 1   
    28   14   15 1   
    29   14   29 1   
    30   15   16 1   
    31   15   31 1   
    32   16   17 ar  
    33   17   30 1   
@<TRIPOS>SUBSTRUCTURE
     1 00G         1 TEMP              0 ****  ****    0 ROOT
