@<TRIPOS>MOLECULE
00H
   32    30     1     0     0
SMALL
bcc


@<TRIPOS>ATOM
      1 N12        -1.7430   -0.1500    0.1850 n3        1 00H     -0.338000
      2 C13        -0.2980   -0.1040    0.1340 c3        1 00H     -0.728000
      3 C14         0.2450   -0.0530    1.5240 c3        1 00H     -0.132000
      4 C15         0.1070    1.3610    2.0750 c2        1 00H     -0.049000
      5 C16        -1.0110    1.7050    2.8270 c2        1 00H     -0.128000
      6 C17        -1.1290    2.9750    3.3420 c1        1 00H     -0.137000
      7 C18        -0.1300    3.9160    3.1110 c1        1 00H     -0.143000
      8 C19         0.9780    3.5750    2.3660 c1        1 00H     -0.132000
      9 C20         1.0970    2.2920    1.8460 c2        1 00H     -0.119000
     10 P21         0.3210   -1.5890   -0.7080 p5        1 00H      2.838000
     11 O22        -0.4470   -2.8680   -0.1560 oh        1 00H     -0.828000
     12 O23         1.7740   -1.7360   -0.4510 o         1 00H     -1.185000
     13 C24         0.0250   -1.4360   -2.5390 c3        1 00H     -0.914000
     14 C25         0.8960   -2.5100   -3.3070 c3        1 00H     -0.224000
     15 C26         0.3150   -2.7270   -4.7180 c2        1 00H      0.325000
     16 O27         0.7260   -2.0240   -5.6840 o         1 00H     -0.576000
     17 HN12       -2.0220   -1.0280    0.2290 hn        1 00H      0.170000
     18 HN1A       -2.0880    0.2420   -0.5700 hn        1 00H      0.170000
     19 H13        -0.0120    0.6940   -0.3560 h1        1 00H      0.133000
     20 H14        -0.2540   -0.6730    2.0900 hc        1 00H      0.110000
     21 H14A        1.1850   -0.3080    1.5130 hc        1 00H      0.110000
     22 H16        -1.6590    1.0260    3.0670 ha        1 00H      0.138000
     23 H17        -1.9030    3.2120    3.8630 ha        1 00H      0.120000
     24 H18        -0.2140    4.8160    3.4770 ha        1 00H      0.118000
     25 H19         1.6730    4.2290    2.2050 DU        1 00H      0.123000
     26 H20         1.8830    2.0440    1.3540 ha        1 00H      0.140000
     27 HO22        0.1290   -3.5340   -0.0360 ho        1 00H      0.251000
     28 H24        -0.9210   -1.5900   -2.7280 hc        1 00H      0.151000
     29 H24A        0.2730   -0.5450   -2.8360 hc        1 00H      0.151000
     30 H25         0.8820   -3.3550   -2.8140 hc        1 00H      0.080500
     31 H25A        1.8180   -2.1920   -3.3810 hc        1 00H      0.080500
     32 OXT        -0.4960   -3.6650   -4.9260 o         1 00H     -0.576000
@<TRIPOS>BOND
     1    1    2 1   
     2    1   17 1   
     3    1   18 1   
     4    2    3 1   
     5    2   10 1   
     6    2   19 1   
     7    3    4 1   
     8    3   20 1   
     9    3   21 1   
    10    4    5 1   
    11    4    9 1   
    12    5    6 1   
    13    5   22 1   
    14    6   23 1   
    15    7    8 1   
    16    7   24 1   
    17    8    9 1   
    18    9   26 1   
    19   10   11 1   
    20   10   12 1   
    21   10   13 1   
    22   11   27 1   
    23   13   14 1   
    24   13   28 1   
    25   13   29 1   
    26   14   15 1   
    27   14   30 1   
    28   14   31 1   
    29   15   16 1   
    30   15   32 1   
@<TRIPOS>SUBSTRUCTURE
     1 00H         1 TEMP              0 ****  ****    0 ROOT
