@<TRIPOS>MOLECULE
00H
   32    32     1     0     0
SMALL
bcc


@<TRIPOS>ATOM
      1 N12        -0.5130    1.6590   -0.7740 n3        1 00H     -0.916800
      2 C13         0.1390    0.5950   -0.0400 c3        1 00H     -0.107700
      3 C14         1.4890    1.0220    0.5540 c3        1 00H     -0.023100
      4 C15         2.6380    0.3130   -0.0750 ca        1 00H     -0.068300
      5 C16         3.5220    0.9970   -0.9180 ca        1 00H     -0.126000
      6 C17         4.6050    0.3330   -1.4920 ca        1 00H     -0.136000
      7 C18         4.8160   -1.0200   -1.2290 ca        1 00H     -0.143000
      8 C19         3.9380   -1.7080   -0.3910 ca        1 00H     -0.136000
      9 C20         2.8550   -1.0480    0.1840 ca        1 00H     -0.126000
     10 P21        -0.8780    0.1320    1.2160 p5        1 00H      1.518100
     11 O22        -0.0520   -1.1360    1.8460 oh        1 00H     -0.819400
     12 O23        -0.9660    0.9960    2.3940 o         1 00H     -0.888300
     13 C24        -2.2000   -0.5760    0.5930 c3        1 00H     -0.440600
     14 C25        -3.3070    0.4110    0.3050 c3        1 00H     -0.188400
     15 C26        -3.6690    0.4820   -1.1940 c         1 00H      0.909600
     16 O27        -2.7790    0.1610   -2.0430 o         1 00H     -0.842300
     17 HN12        0.1100    2.0610   -1.4470 hn        1 00H      0.380800
     18 HN1A       -1.3200    1.2870   -1.2580 hn        1 00H      0.380800
     19 H13         0.3450   -0.3000   -0.7060 h1        1 00H      0.068700
     20 H14         1.6470    2.1330    0.4530 hc        1 00H      0.063200
     21 H14A        1.4820    0.7980    1.6570 hc        1 00H      0.063200
     22 H16         3.3570    2.0630   -1.1320 ha        1 00H      0.144000
     23 H17         5.2910    0.8780   -2.1560 ha        1 00H      0.121500
     24 H18         5.6690   -1.5430   -1.6840 ha        1 00H      0.119000
     25 H19         4.0990   -2.7760   -0.1860 ha        1 00H      0.121500
     26 H20         2.1550   -1.5910    0.8410 ha        1 00H      0.144000
     27 HO22        0.1530   -1.0320    2.7700 ho        1 00H      0.452000
     28 H24        -1.9880   -1.1120   -0.3800 hc        1 00H      0.114700
     29 H24A       -2.5930   -1.3760    1.2730 hc        1 00H      0.114700
     30 H25        -4.2420    0.1340    0.8570 hc        1 00H      0.046200
     31 H25A       -3.0100    1.4370    0.6430 hc        1 00H      0.046200
     32 OXT        -4.8280    0.8640   -1.5010 o         1 00H     -0.842300
@<TRIPOS>BOND
     1    1    2 1   
     2    1   17 1   
     3    1   18 1   
     4    2    3 1   
     5    2   10 1   
     6    2   19 1   
     7    3    4 1   
     8    3   20 1   
     9    3   21 1   
    10    4    5 ar  
    11    4    9 ar  
    12    5    6 ar  
    13    5   22 1   
    14    6    7 ar  
    15    6   23 1   
    16    7    8 ar  
    17    7   24 1   
    18    8    9 ar  
    19    8   25 1   
    20    9   26 1   
    21   10   11 1   
    22   10   12 2   
    23   10   13 1   
    24   11   27 1   
    25   13   14 1   
    26   13   28 1   
    27   13   29 1   
    28   14   15 1   
    29   14   30 1   
    30   14   31 1   
    31   15   16 1   
    32   15   32 1   
@<TRIPOS>SUBSTRUCTURE
     1 00H         1 TEMP              0 ****  ****    0 ROOT
