@<TRIPOS>MOLECULE
00I
   76    68     1     0     0
SMALL
bcc


@<TRIPOS>ATOM
      1 C           2.1390    1.7790   -1.2390 c1        1 00I      0.290000
      2 N           1.7420    1.7640    1.1420 n3        1 00I     -0.879000
      3 O           1.6790    2.7170   -1.8590 o         1 00I     -0.440000
      4 S           1.7910    2.6100    2.5980 s4        1 00I      2.075800
      5 C1          0.0720    1.1400    4.3350 c1        1 00I      0.013000
      6 N1          2.2000    0.4890   -1.8440 n3        1 00I     -0.345000
      7 O1          2.0100    0.4410   -4.6370 o         1 00I     -0.377000
      8 C2          0.2970    2.2760    3.5700 c1        1 00I     -0.809000
      9 N2         -0.2160    1.1470   -4.4350 n         1 00I     -0.314000
     10 C3         -0.6290    3.3190    3.5800 c2        1 00I     -0.027000
     11 C4         -1.7800    3.2200    4.3580 c1        1 00I     -0.149000
     12 C5         -3.1740    1.9670    5.9210 c1        1 00I     -0.133000
     13 C6         -3.3980    0.8320    6.6850 c1        1 00I     -0.113000
     14 C7         -2.4740   -0.2080    6.6750 c1        1 00I     -0.148000
     15 C8         -1.3240   -0.1090    5.8980 c2        1 00I     -0.096000
     16 C9         -1.0950    1.0400    5.1240 c1        1 00I     -0.078000
     17 CA          2.7400    2.0020    0.1400 c2        1 00I      0.037000
     18 CB          3.8880    1.0590    0.3450 c3        1 00I     -0.164000
     19 CD          4.6590   -0.8050    1.7950 c1        1 00I      0.324000
     20 CF         -1.6960   -5.2260    0.4690 c1        1 00I      0.122000
     21 CG          3.7940    0.4450    1.7330 c2        1 00I     -0.240000
     22 CZ         -0.8350   -3.9900    0.2900 c2        1 00I     -0.137000
     23 C10        -2.0090    2.0680    5.1340 c1        1 00I      0.010000
     24 O1S         2.9810    2.2970    3.3460 o         1 00I     -0.555400
     25 C21         1.0310    0.5280   -3.9180 c2        1 00I      0.293000
     26 C22        -1.4300    1.2870   -3.6340 c3        1 00I     -0.038000
     27 O2S         1.9650    4.0240    2.3760 o         1 00I     -0.555400
     28 C32        -2.6540    0.7300   -4.3430 c3        1 00I     -0.179500
     29 C42        -2.7990    1.2690   -5.7150 c3        1 00I     -0.155000
     30 C52        -1.5500    1.1170   -6.5100 c3        1 00I     -0.179500
     31 C62        -0.3360    1.6690   -5.7840 c3        1 00I     -0.038000
     32 CA1         1.0750   -0.0250   -2.5160 c3        1 00I      0.025000
     33 CB1         1.1710   -1.5690   -2.5690 c3        1 00I     -0.160000
     34 CD1         1.1400   -3.2980   -0.8940 c1        1 00I     -0.113000
     35 CD2        -0.8460   -1.9430   -0.9830 c1        1 00I     -0.146000
     36 CE1         0.4840   -4.2100   -0.0750 c2        1 00I     -0.111000
     37 OE1         5.7990   -0.7570    2.3380 o         1 00I     -0.578000
     38 CE2        -1.5030   -2.8560   -0.1630 c1        1 00I     -0.112000
     39 CG1         0.4720   -2.1640   -1.3480 c2        1 00I     -0.053000
     40 NG1        -1.8080   -6.0950   -0.5100 n1        1 00I     -0.323000
     41 NG2        -2.3810   -5.4450    1.6950 n2        1 00I     -0.333000
     42 HN          1.0950    1.1410    1.0000 hn        1 00I      0.254000
     43 H1          0.6910    0.3950    4.2890 ha        1 00I      0.160000
     44 HN1         2.9940    0.0360   -1.8710 hn        1 00I      0.295000
     45 H3         -0.4380    4.1440    3.0970 ha        1 00I      0.184000
     46 H4         -2.4270    3.9480    4.3660 ha        1 00I      0.138000
     47 H5         -3.8190    2.6940    5.9290 ha        1 00I      0.134000
     48 H6         -4.2170    0.7530    7.2120 ha        1 00I      0.127000
     49 H7         -2.6330   -1.0090    7.2150 DU        1 00I      0.163000
     50 H8         -0.6780   -0.8360    5.8910 ha        1 00I      0.134000
     51 HA          3.0600    2.9240    0.2100 h4        1 00I      0.122000
     52 HB          4.7320    1.5480    0.2610 hc        1 00I      0.103000
     53 HBA         3.8530    0.3520   -0.3270 hc        1 00I      0.103000
     54 OE2         4.2460   -1.8840    1.2880 o         1 00I     -0.578000
     55 HG          4.1060    1.0930    2.3990 ha        1 00I      0.078000
     56 HGA         2.8620    0.2070    1.9210 ha        1 00I      0.078000
     57 H22        -1.5790    2.2440   -3.4440 h1        1 00I      0.104750
     58 H22A       -1.3100    0.8140   -2.7950 h1        1 00I      0.104750
     59 H32        -3.4550    0.9630   -3.8230 hc        1 00I      0.082250
     60 H32A       -2.5790   -0.2390   -4.3890 hc        1 00I      0.082250
     61 H42        -3.0290    2.2190   -5.6610 hc        1 00I      0.073500
     62 H42A       -3.5260    0.7910   -6.1700 hc        1 00I      0.073500
     63 H52        -1.6540    1.5930   -7.3580 hc        1 00I      0.082250
     64 H52A       -1.4050    0.1660   -6.6940 hc        1 00I      0.082250
     65 H62         0.4650    1.4330   -6.2860 h1        1 00I      0.104750
     66 H62A       -0.4090    2.6470   -5.7410 h1        1 00I      0.104750
     67 HA1         0.2670    0.2330   -2.0420 h1        1 00I      0.124000
     68 HB1         0.7390   -1.8960   -3.3840 hc        1 00I      0.140000
     69 HB1A        2.1180   -1.8390   -2.5690 hc        1 00I      0.140000
     70 HD1         2.0710   -3.4530   -1.1510 DU        1 00I      0.163000
     71 HD2        -1.2980   -1.1230   -1.2600 ha        1 00I      0.123000
     72 HE1         0.9730   -4.9710    0.2970 ha        1 00I      0.142000
     73 HE2        -2.4110   -2.6650    0.1530 ha        1 00I      0.131000
     74 HNG1       -1.3680   -5.9540   -1.3000 DU        1 00I      0.163000
     75 HNG2       -2.2490   -4.8750    2.4010 hn        1 00I      0.186000
     76 HNGA       -2.9810   -6.1270    1.7670 hn        1 00I      0.186000
@<TRIPOS>BOND
     1    1    3 1   
     2    1    6 1   
     3    2    4 1   
     4    2   17 1   
     5    2   42 1   
     6    4   24 1   
     7    4   27 1   
     8    5    8 1   
     9    5   43 1   
    10    6   32 1   
    11    6   44 1   
    12    7   25 1   
    13    8   10 1   
    14    9   25 1   
    15    9   26 1   
    16    9   31 1   
    17   10   11 1   
    18   10   45 1   
    19   11   46 1   
    20   12   23 1   
    21   12   47 1   
    22   13   14 1   
    23   13   48 1   
    24   14   15 1   
    25   15   16 1   
    26   15   50 1   
    27   16   23 1   
    28   17   18 1   
    29   17   51 1   
    30   18   21 1   
    31   18   52 1   
    32   18   53 1   
    33   19   37 1   
    34   19   54 1   
    35   20   22 1   
    36   20   40 1   
    37   21   55 1   
    38   21   56 1   
    39   22   36 1   
    40   22   38 1   
    41   25   32 1   
    42   26   28 1   
    43   26   57 1   
    44   26   58 1   
    45   28   29 1   
    46   28   59 1   
    47   28   60 1   
    48   29   30 1   
    49   29   61 1   
    50   29   62 1   
    51   30   31 1   
    52   30   63 1   
    53   30   64 1   
    54   31   65 1   
    55   31   66 1   
    56   32   33 1   
    57   32   67 1   
    58   33   39 1   
    59   33   68 1   
    60   33   69 1   
    61   34   36 1   
    62   34   39 1   
    63   35   39 1   
    64   35   71 1   
    65   36   72 1   
    66   38   73 1   
    67   41   75 1   
    68   41   76 1   
@<TRIPOS>SUBSTRUCTURE
     1 00I         1 TEMP              0 ****  ****    0 ROOT
