@<TRIPOS>MOLECULE
00I
   76    79     1     0     0
SMALL
bcc


@<TRIPOS>ATOM
      1 C           0.2830   -0.1570   -0.7910 c         1 00I      0.649100
      2 N          -0.9250   -2.1120   -1.6500 n3        1 00I     -0.909100
      3 O          -0.0100    0.5710   -1.7680 o         1 00I     -0.666100
      4 S          -2.1150   -3.0630   -1.1490 sy        1 00I      1.512200
      5 C1         -4.4340   -1.7910   -0.7030 ca        1 00I      0.004000
      6 N1          0.6530    0.3680    0.4230 n         1 00I     -0.546900
      7 C2         -3.1400   -2.0180   -0.2840 ca        1 00I     -0.358500
      8 N2         -0.9540    3.6680    0.5970 n         1 00I     -0.441800
      9 C3         -2.6790   -1.3700    0.8910 ca        1 00I     -0.037000
     10 C4         -3.4860   -0.5110    1.5960 ca        1 00I     -0.125000
     11 C5         -5.6910    0.5980    1.8890 ca        1 00I     -0.125000
     12 C6         -6.9790    0.7990    1.4600 ca        1 00I     -0.123000
     13 C7         -7.4620    0.1410    0.3010 ca        1 00I     -0.148000
     14 C8         -6.6450   -0.7040   -0.4060 ca        1 00I     -0.101000
     15 C9         -5.3040   -0.9310    0.0140 ca        1 00I     -0.074000
     16 CA          0.2300   -1.7060   -0.8910 c3        1 00I      0.170500
     17 CB          1.5750   -2.1780   -1.4870 c3        1 00I     -0.060400
     18 CG          2.2570   -3.1800   -0.5820 c3        1 00I     -0.200400
     19 CZ          5.8480    1.4080    0.3960 ca        1 00I     -0.205900
     20 C10        -4.8220   -0.2760    1.1770 ca        1 00I      0.004000
     21 O1S        -2.8390   -3.5150   -2.2860 o         1 00I     -0.660300
     22 C21        -0.5490    2.4180    1.0900 c         1 00I      0.632100
     23 C22        -2.3780    3.9650    0.6160 c3        1 00I      0.074500
     24 O2S        -1.6680   -4.0730   -0.2780 o         1 00I     -0.660300
     25 C32        -3.0870    3.6620   -0.7070 c3        1 00I     -0.113900
     26 C42        -2.3700    4.2850   -1.8870 c3        1 00I     -0.071400
     27 C52        -0.8900    3.9560   -1.8790 c3        1 00I     -0.113900
     28 C62        -0.2850    4.3080   -0.5180 c3        1 00I      0.074500
     29 CA1         0.7930    1.7850    0.6250 c3        1 00I      0.056700
     30 CB1         1.8330    2.1660    1.6970 c3        1 00I     -0.042100
     31 CD1         4.0210    2.9500    0.7610 ca        1 00I     -0.125500
     32 CD2         3.7580    0.6150    1.3220 ca        1 00I     -0.125500
     33 CE1         5.3250    2.7070    0.3430 ca        1 00I     -0.109500
     34 OE1         1.9190   -2.0130    1.5080 o         1 00I     -0.862300
     35 CE2         5.0590    0.3630    0.8810 ca        1 00I     -0.109500
     36 CG1         3.2250    1.9050    1.2490 ca        1 00I     -0.091300
     37 NG1         7.7100    1.6090   -1.2230 n2        1 00I     -0.864100
     38 NG2         8.0530    0.4220    0.7950 nh        1 00I     -0.892800
     39 HN         -0.9640   -1.6710   -2.5420 hn        1 00I      0.458800
     40 H1         -4.8110   -2.2850   -1.6180 ha        1 00I      0.155000
     41 HN1         0.9760   -0.2520    1.1480 hn        1 00I      0.380500
     42 H3         -1.6460   -1.5590    1.2390 ha        1 00I      0.161000
     43 H4         -3.0940    0.0250    2.4750 ha        1 00I      0.161000
     44 H5         -5.3040    1.1050    2.7850 ha        1 00I      0.138000
     45 H6         -7.6530    1.4730    2.0090 ha        1 00I      0.125000
     46 H7         -8.4980    0.3190   -0.0190 ha        1 00I      0.125000
     47 H8         -7.0080   -1.2200   -1.3080 ha        1 00I      0.131000
     48 HA          0.1520   -2.1530    0.1550 h1        1 00I      0.132700
     49 HB          1.4180   -2.6320   -2.5000 hc        1 00I      0.042200
     50 HBA         2.2470   -1.2910   -1.6290 hc        1 00I      0.042200
     51 OE2         4.0070   -2.5080    0.9330 o         1 00I     -0.862300
     52 HG          1.5480   -4.0030   -0.3100 hc        1 00I      0.046200
     53 HGA         3.1260   -3.6310   -1.1260 hc        1 00I      0.046200
     54 H22        -2.8680    3.3800    1.4440 h1        1 00I      0.052700
     55 H22A       -2.4860    5.0630    0.8470 h1        1 00I      0.052700
     56 H32        -3.1470    2.5510   -0.8520 hc        1 00I      0.058700
     57 H32A       -4.1340    4.0540   -0.6460 hc        1 00I      0.058700
     58 H42        -2.8300    3.9200   -2.8410 hc        1 00I      0.032700
     59 H42A       -2.5020    5.3990   -1.8550 hc        1 00I      0.032700
     60 H52        -0.7330    2.8630   -2.0930 hc        1 00I      0.058700
     61 H52A       -0.3620    4.5420   -2.6730 hc        1 00I      0.058700
     62 H62        -0.3900    5.4220   -0.3570 h1        1 00I      0.052700
     63 H62A        0.8140    4.0800   -0.5070 h1        1 00I      0.052700
     64 HA1         1.1010    2.2260   -0.3710 h1        1 00I      0.082700
     65 HB1         1.7000    3.2580    1.9230 hc        1 00I      0.065200
     66 HB1A        1.6210    1.5950    2.6420 hc        1 00I      0.065200
     67 HD1         3.6140    3.9700    0.7100 ha        1 00I      0.164500
     68 HD2         3.1620   -0.2410    1.7070 ha        1 00I      0.164500
     69 HE1         5.9450    3.5370   -0.0250 ha        1 00I      0.154000
     70 HE2         5.4090   -0.6870    0.9020 ha        1 00I      0.154000
     71 HNG1        7.0640    2.1820   -1.7200 hn        1 00I      0.385400
     72 HNG2        8.8680    0.0160    0.3890 hn        1 00I      0.397300
     73 HNGA        7.5370   -0.2150    1.3630 hn        1 00I      0.397300
     74 O1         -1.2330    1.8650    1.9730 o         1 00I     -0.602100
     75 CF          7.2390    1.1530   -0.0950 ce        1 00I      0.652800
     76 CD          2.7650   -2.5290    0.7060 c         1 00I      0.911600
@<TRIPOS>BOND
     1    1    3 2   
     2    1    6 1   
     3    1   16 1   
     4    2    4 1   
     5    2   16 1   
     6    2   39 1   
     7    4    7 1   
     8    4   21 2   
     9    4   24 2   
    10    5    7 ar  
    11    5   15 ar  
    12    5   40 1   
    13    6   29 1   
    14    6   41 1   
    15    7    9 ar  
    16    8   22 1   
    17    8   23 1   
    18    8   28 1   
    19    9   10 ar  
    20    9   42 1   
    21   10   20 ar  
    22   10   43 1   
    23   11   12 ar  
    24   11   20 ar  
    25   11   44 1   
    26   12   13 ar  
    27   12   45 1   
    28   13   14 ar  
    29   13   46 1   
    30   14   15 ar  
    31   14   47 1   
    32   15   20 ar  
    33   16   17 1   
    34   16   48 1   
    35   17   18 1   
    36   17   49 1   
    37   17   50 1   
    38   18   52 1   
    39   18   53 1   
    40   18   76 1   
    41   19   33 ar  
    42   19   35 ar  
    43   19   75 1   
    44   22   29 1   
    45   22   74 2   
    46   23   25 1   
    47   23   54 1   
    48   23   55 1   
    49   25   26 1   
    50   25   56 1   
    51   25   57 1   
    52   26   27 1   
    53   26   58 1   
    54   26   59 1   
    55   27   28 1   
    56   27   60 1   
    57   27   61 1   
    58   28   62 1   
    59   28   63 1   
    60   29   30 1   
    61   29   64 1   
    62   30   36 1   
    63   30   65 1   
    64   30   66 1   
    65   31   33 ar  
    66   31   36 ar  
    67   31   67 1   
    68   32   35 ar  
    69   32   36 ar  
    70   32   68 1   
    71   33   69 1   
    72   34   76 1   
    73   35   70 1   
    74   37   71 1   
    75   37   75 2   
    76   38   72 1   
    77   38   73 1   
    78   38   75 1   
    79   51   76 1   
@<TRIPOS>SUBSTRUCTURE
     1 00I         1 TEMP              0 ****  ****    0 ROOT
