@<TRIPOS>MOLECULE
00J
   61    65     1     0     0
SMALL
bcc


@<TRIPOS>ATOM
      1 O30        -9.1320    0.4900    0.5820 o         1 00J     -0.617100
      2 C26        -8.0610   -0.0630    0.2480 c         1 00J      0.702300
      3 N28        -7.9680   -1.4380    0.1570 n         1 00J     -0.569900
      4 C2         -9.0840   -2.3010    0.3770 c3        1 00J      0.079300
      5 C25        -6.8540    0.7160   -0.0680 cc        1 00J     -0.211400
      6 C21        -5.4630    0.3180    0.0820 ca        1 00J     -0.082800
      7 C6         -4.7840   -0.8020    0.5580 ca        1 00J     -0.084000
      8 C24        -4.6990    1.4390   -0.3760 ca        1 00J      0.064100
      9 O31        -5.5460    2.4760   -0.7760 os        1 00J     -0.195200
     10 C17        -6.8550    2.0080   -0.5660 cd        1 00J      0.134900
     11 C1         -7.9240    2.9490   -0.9100 c3        1 00J     -0.064900
     12 C10        -3.3110    1.4720   -0.4040 ca        1 00J     -0.112000
     13 C19        -2.6780    0.3170    0.0750 ca        1 00J      0.099100
     14 C4         -3.3920   -0.7990    0.5490 ca        1 00J     -0.159000
     15 O34        -1.2880    0.3800    0.1910 os        1 00J     -0.246200
     16 C22        -0.5640   -0.6100   -0.4550 ca        1 00J      0.178100
     17 C7         -1.0760   -1.4760   -1.3960 ca        1 00J     -0.339300
     18 C20         0.8270   -0.6600   -0.1030 ca        1 00J     -0.191300
     19 C5          1.4070    0.2020    0.8550 ca        1 00J     -0.057000
     20 C23         1.6340   -1.6370   -0.7700 ca        1 00J      0.443600
     21 N27         1.1100   -2.5050   -1.7160 nb        1 00J     -0.678000
     22 C8         -0.1760   -2.4090   -1.9950 ca        1 00J      0.447200
     23 C9          3.0190   -1.7070   -0.4470 ca        1 00J     -0.216300
     24 C18         3.5500   -0.8450    0.5010 ca        1 00J      0.144100
     25 C3          2.7440    0.1190    1.1610 ca        1 00J     -0.198000
     26 O33         4.8940   -1.0230    0.7630 os        1 00J     -0.322900
     27 C16         5.5240   -0.0090    1.5560 c3        1 00J      0.128400
     28 C15         7.0240   -0.3370    1.5230 c3        1 00J      0.171800
     29 N29         7.7160    0.2820    0.4060 n3        1 00J     -0.732600
     30 C11         8.8160   -0.5260   -0.1010 c3        1 00J      0.137300
     31 C12         8.1190    1.6550    0.6780 c3        1 00J      0.137300
     32 C14         8.8750    2.2860   -0.4970 c3        1 00J      0.126400
     33 O32         9.9690    1.4760   -0.9110 os        1 00J     -0.415600
     34 C13         9.5590    0.1580   -1.2550 c3        1 00J      0.126400
     35 H28        -7.1410   -1.8380   -0.2170 hn        1 00J      0.311500
     36 H21C       -9.9250   -1.7310    0.8560 h1        1 00J      0.045033
     37 H22C       -9.4480   -2.7350   -0.5940 h1        1 00J      0.045033
     38 H23C       -8.7780   -3.1430    1.0540 h1        1 00J      0.045033
     39 H6         -5.3240   -1.6720    0.9590 ha        1 00J      0.146000
     40 H4         -2.8320   -1.6720    0.9200 ha        1 00J      0.154000
     41 H10        -2.7440    2.3420   -0.7580 ha        1 00J      0.172000
     42 H11C       -7.7320    3.9440   -0.4340 hc        1 00J      0.080367
     43 H12C       -7.9690    3.0920   -2.0190 hc        1 00J      0.080367
     44 H13C       -8.9040    2.5460   -0.5440 hc        1 00J      0.080367
     45 H7         -2.1330   -1.4640   -1.6900 ha        1 00J      0.156000
     46 H8         -0.5630   -3.1140   -2.7560 h4        1 00J      0.023100
     47 H5          0.7620    0.9440    1.3540 ha        1 00J      0.151000
     48 H3          3.1810    0.7900    1.9120 ha        1 00J      0.141000
     49 H9          3.6660   -2.4450   -0.9460 ha        1 00J      0.169000
     50 H161        5.2930    1.0060    1.1420 h1        1 00J      0.045200
     51 H162        5.1470   -0.0890    2.6100 h1        1 00J      0.045200
     52 H151        7.4570   -0.0150    2.5160 h1        1 00J      0.050700
     53 H152        7.1270   -1.4580    1.4490 h1        1 00J      0.050700
     54 H111        9.5630   -0.7660    0.7110 h1        1 00J      0.039700
     55 H112        8.3860   -1.4950   -0.4790 h1        1 00J      0.039700
     56 H121        7.1880    2.2560    0.8710 h1        1 00J      0.039700
     57 H122        8.7730    1.7220    1.5980 h1        1 00J      0.039700
     58 H131       10.5160   -0.3850   -1.4720 h1        1 00J      0.055200
     59 H132        8.9160    0.1930   -2.1740 h1        1 00J      0.055200
     60 H141        8.1850    2.4590   -1.3650 h1        1 00J      0.055200
     61 H142        9.3460    3.2520   -0.1780 h1        1 00J      0.055200
@<TRIPOS>BOND
     1    1    2 2   
     2    2    3 1   
     3    2    5 1   
     4    3    4 1   
     5    3   35 1   
     6    4   36 1   
     7    4   37 1   
     8    4   38 1   
     9    5    6 1   
    10    5   10 2   
    11    6    7 ar  
    12    6    8 ar  
    13    7   14 ar  
    14    7   39 1   
    15    8    9 1   
    16    8   12 ar  
    17    9   10 1   
    18   10   11 1   
    19   11   42 1   
    20   11   43 1   
    21   11   44 1   
    22   12   13 ar  
    23   12   41 1   
    24   13   14 ar  
    25   13   15 1   
    26   14   40 1   
    27   15   16 1   
    28   16   17 ar  
    29   16   18 ar  
    30   17   22 ar  
    31   17   45 1   
    32   18   19 ar  
    33   18   20 ar  
    34   19   25 ar  
    35   19   47 1   
    36   20   21 ar  
    37   20   23 ar  
    38   21   22 ar  
    39   22   46 1   
    40   23   24 ar  
    41   23   49 1   
    42   24   25 ar  
    43   24   26 1   
    44   25   48 1   
    45   26   27 1   
    46   27   28 1   
    47   27   50 1   
    48   27   51 1   
    49   28   29 1   
    50   28   52 1   
    51   28   53 1   
    52   29   30 1   
    53   29   31 1   
    54   30   34 1   
    55   30   54 1   
    56   30   55 1   
    57   31   32 1   
    58   31   56 1   
    59   31   57 1   
    60   32   33 1   
    61   32   60 1   
    62   32   61 1   
    63   33   34 1   
    64   34   58 1   
    65   34   59 1   
@<TRIPOS>SUBSTRUCTURE
     1 00J         1 TEMP              0 ****  ****    0 ROOT
