@<TRIPOS>MOLECULE
00J
   62    66     1     0     0
SMALL
bcc


@<TRIPOS>ATOM
      1 O30         0.4440   -0.8750    0.4520 o         1 00J     -0.458100
      2 C26         1.1330   -0.0120   -0.0820 c         1 00J      0.599300
      3 N28         1.0980    1.3590    0.5840 n4        1 00J     -0.667800
      4 C2          0.1600    1.4340    1.7240 c3        1 00J      0.084100
      5 C25         1.9600   -0.1000   -1.2420 cc        1 00J     -0.306400
      6 C21         2.8130    0.9020   -1.8710 ca        1 00J     -0.120800
      7 C6          3.1800    2.2250   -1.6400 ca        1 00J     -0.098000
      8 C24         3.3750    0.2470   -3.0120 ca        1 00J      0.081100
      9 O31         2.9110   -1.0790   -3.0920 os        1 00J     -0.154200
     10 C17         2.0660   -1.2700   -2.0170 cd        1 00J      0.247900
     11 C1          1.4680   -2.6020   -1.8900 c3        1 00J     -0.094900
     12 C10         4.2560    0.8290   -3.9060 ca        1 00J     -0.105000
     13 C19         4.5870    2.1710   -3.6320 ca        1 00J      0.156100
     14 C4          4.0610    2.8520   -2.5180 ca        1 00J     -0.158000
     15 O34         5.3920    2.7690   -4.5820 os        1 00J     -0.232200
     16 C22         6.1690    3.8560   -4.1690 ca        1 00J      0.141100
     17 C7          6.8880    3.8600   -2.9960 ca        1 00J     -0.309300
     18 C20         6.2690    4.9380   -5.0990 ca        1 00J     -0.184300
     19 C5          5.5670    4.9740   -6.3260 ca        1 00J     -0.070000
     20 C23         7.1450    6.0170   -4.7440 ca        1 00J      0.438600
     21 N27         7.8620    6.0200   -3.5570 nb        1 00J     -0.646000
     22 C8          7.7310    4.9890   -2.7460 ca        1 00J      0.432200
     23 C9          7.2800    7.1080   -5.6460 ca        1 00J     -0.210300
     24 C18         6.5690    7.1090   -6.8390 ca        1 00J      0.156100
     25 C3          5.7060    6.0370   -7.1850 ca        1 00J     -0.181000
     26 O33         6.7420    8.2290   -7.6200 os        1 00J     -0.315900
     27 C16         6.2760    8.1410   -8.9750 c3        1 00J      0.126400
     28 C15         6.8480    9.3770   -9.6860 c3        1 00J      0.172800
     29 N29         8.1860    9.1550  -10.2050 n3        1 00J     -0.736600
     30 C11         9.0340   10.3380  -10.1240 c3        1 00J      0.137300
     31 C12         8.1870    8.5650  -11.5370 c3        1 00J      0.137300
     32 C14         9.6040    8.3640  -12.0860 c3        1 00J      0.126400
     33 O32        10.3610    9.5670  -12.0300 os        1 00J     -0.410600
     34 C13        10.4290   10.0960  -10.7120 c3        1 00J      0.126400
     35 H28         2.0510    1.5760    0.9000 hn        1 00J      0.460800
     36 H21C        0.1950    2.4670    2.1620 hx        1 00J      0.111367
     37 H22C        0.4520    0.6750    2.4990 hx        1 00J      0.111367
     38 H23C       -0.8800    1.2000    1.3680 hx        1 00J      0.111367
     39 H6          2.8080    2.8080   -0.7880 ha        1 00J      0.113000
     40 H4          4.3540    3.9010   -2.3450 ha        1 00J      0.174000
     41 H10         4.6700    0.2970   -4.7750 ha        1 00J      0.195000
     42 H11C        1.2180   -3.0220   -2.8990 hc        1 00J      0.105033
     43 H12C        2.2030   -3.2950   -1.3990 hc        1 00J      0.105033
     44 H13C        0.5430   -2.5540   -1.2610 hc        1 00J      0.105033
     45 H7          6.8420    3.0360   -2.2740 ha        1 00J      0.150000
     46 H8          8.3290    5.0190   -1.8150 h4        1 00J      0.033100
     47 H5          4.9080    4.1290   -6.5810 ha        1 00J      0.146000
     48 H3          5.1510    6.0570   -8.1350 ha        1 00J      0.148000
     49 H9          7.9490    7.9490   -5.4020 ha        1 00J      0.178000
     50 H161        6.6140    7.1810   -9.4410 h1        1 00J      0.046200
     51 H162        5.1550    8.1950   -8.9690 h1        1 00J      0.046200
     52 H151        6.8700   10.2220   -8.9380 h1        1 00J      0.053700
     53 H152        6.1180    9.6550  -10.5010 h1        1 00J      0.053700
     54 H111        8.5690   11.2180  -10.6570 h1        1 00J      0.040700
     55 H112        9.1470   10.6060   -9.0370 h1        1 00J      0.040700
     56 H121        7.6070    9.1970  -12.2720 h1        1 00J      0.040700
     57 H122        7.6820    7.5610  -11.4690 h1        1 00J      0.040700
     58 H131       11.0190    9.4010  -10.0580 h1        1 00J      0.056950
     59 H132       10.9710   11.0710  -10.8290 h1        1 00J      0.056950
     60 H141        9.5620    8.1090  -13.1780 h1        1 00J      0.056950
     61 H142       10.1380    7.5560  -11.5200 h1        1 00J      0.056950
     62 H282        0.8360    2.0480   -0.1320 hn        1 00J      0.460800
@<TRIPOS>BOND
     1    1    2 2   
     2    2    3 1   
     3    2    5 1   
     4    3    4 1   
     5    3   35 1   
     6    3   62 1   
     7    4   36 1   
     8    4   37 1   
     9    4   38 1   
    10    5    6 1   
    11    5   10 2   
    12    6    7 ar  
    13    6    8 ar  
    14    7   14 ar  
    15    7   39 1   
    16    8    9 1   
    17    8   12 ar  
    18    9   10 1   
    19   10   11 1   
    20   11   42 1   
    21   11   43 1   
    22   11   44 1   
    23   12   13 ar  
    24   12   41 1   
    25   13   14 ar  
    26   13   15 1   
    27   14   40 1   
    28   15   16 1   
    29   16   17 ar  
    30   16   18 ar  
    31   17   22 ar  
    32   17   45 1   
    33   18   19 ar  
    34   18   20 ar  
    35   19   25 ar  
    36   19   47 1   
    37   20   21 ar  
    38   20   23 ar  
    39   21   22 ar  
    40   22   46 1   
    41   23   24 ar  
    42   23   49 1   
    43   24   25 ar  
    44   24   26 1   
    45   25   48 1   
    46   26   27 1   
    47   27   28 1   
    48   27   50 1   
    49   27   51 1   
    50   28   29 1   
    51   28   52 1   
    52   28   53 1   
    53   29   30 1   
    54   29   31 1   
    55   30   34 1   
    56   30   54 1   
    57   30   55 1   
    58   31   32 1   
    59   31   56 1   
    60   31   57 1   
    61   32   33 1   
    62   32   60 1   
    63   32   61 1   
    64   33   34 1   
    65   34   58 1   
    66   34   59 1   
@<TRIPOS>SUBSTRUCTURE
     1 00J         1 TEMP              0 ****  ****    0 ROOT
