@<TRIPOS>MOLECULE
00J
   61    56     1     0     0
SMALL
bcc


@<TRIPOS>ATOM
      1 O30        -1.3800   -5.7320    5.9290 o         1 00J     -0.242000
      2 C26        -2.0090   -5.8850    4.9080 c1        1 00J      0.236000
      3 N28        -3.4730   -6.0280    4.9590 n2        1 00J     -0.379000
      4 C2         -4.1630   -5.8530    6.1930 c3        1 00J     -0.077000
      5 C25        -1.2830   -5.9780    3.5750 c2        1 00J     -0.204000
      6 C21        -0.9120   -4.9490    2.7410 c1        1 00J     -0.071000
      7 C6         -1.0450   -3.5340    2.8620 c1        1 00J     -0.085000
      8 C24        -0.2040   -5.4770    1.7100 c1        1 00J      0.021000
      9 O31        -0.1300   -6.8640    1.9020 o         1 00J     -0.242000
     10 C17        -0.7890   -7.1640    3.0390 c1        1 00J      0.236000
     11 C1         -0.9090   -8.6880    3.3020 c2        1 00J     -0.187000
     12 C10         0.4070   -4.6140    0.7480 c1        1 00J     -0.137000
     13 C19         0.2770   -3.2380    0.8680 c1        1 00J      0.056000
     14 C4         -0.4490   -2.6970    1.9250 c1        1 00J     -0.139000
     15 O34         0.6690   -2.4880   -0.2830 os        1 00J     -0.157000
     16 C22         1.6980   -1.5650    0.0770 c2        1 00J      0.131000
     17 C7          2.4600   -1.6470    1.2050 c2        1 00J     -0.271000
     18 C20         1.7220   -0.3970   -0.7010 c1        1 00J     -0.125000
     19 C5          0.8920   -0.2860   -1.8330 c1        1 00J     -0.127500
     20 C23         2.5120    0.6600   -0.3250 c2        1 00J      0.050000
     21 N27         3.2940    0.5730    0.8350 n1        1 00J     -0.152000
     22 C8          3.2730   -0.5560    1.5890 c1        1 00J     -0.017000
     23 C9          2.4930    1.8380   -1.0600 c2        1 00J     -0.152000
     24 C18         1.6700    1.9490   -2.1820 c1        1 00J      0.099000
     25 C3          0.8740    0.8850   -2.5630 c1        1 00J     -0.127500
     26 O33         1.9700    3.2000   -2.7900 os        1 00J     -0.216000
     27 C16         0.8640    4.1060   -2.8270 c3        1 00J     -0.022000
     28 C15         1.3830    5.5580   -3.1620 c3        1 00J     -0.073000
     29 N29         0.3070    6.3450   -3.6720 n3        1 00J     -0.255000
     30 C11         0.7250    7.0020   -4.8360 c3        1 00J     -0.104000
     31 C12        -0.1420    7.2510   -2.6600 c3        1 00J     -0.104000
     32 C14        -1.1810    8.2210   -3.1760 c3        1 00J     -0.024000
     33 O32        -0.7630    8.8840   -4.3580 os        1 00J     -0.271000
     34 C13        -0.3250    7.9910   -5.3570 c3        1 00J     -0.024000
     35 H28        -3.9460   -6.2870    4.1900 hn        1 00J      0.226000
     36 H21C       -3.8710   -6.4990    6.8090 h1        1 00J      0.084667
     37 H22C       -3.9820   -4.9640    6.5430 h1        1 00J      0.084667
     38 H23C       -5.1030   -5.9520    6.0490 h1        1 00J      0.084667
     39 H6         -1.5370   -3.1660    3.5790 ha        1 00J      0.147000
     40 H4         -0.5430   -1.7060    2.0090 ha        1 00J      0.156000
     41 H10         0.9040   -4.9830    0.0240 ha        1 00J      0.171000
     42 H11C       -0.1350   -8.9920    3.7970 ha        1 00J      0.119667
     43 H12C       -0.9560   -9.1670    2.4450 ha        1 00J      0.119667
     44 H13C       -1.7170   -8.8650    3.8180 ha        1 00J      0.119667
     45 H7          2.4460   -2.4600    1.7470 ha        1 00J      0.159000
     46 H8          3.8290   -0.6150    2.4100 ha        1 00J      0.162000
     47 H5          0.3070   -1.0650   -2.1130 ha        1 00J      0.147500
     48 H3          0.2940    0.9630   -3.3550 ha        1 00J      0.147500
     49 H9          3.0680    2.6040   -0.7870 ha        1 00J      0.168000
     50 H161        0.2160    3.8110   -3.5310 h1        1 00J      0.087000
     51 H162        0.4220    4.1120   -1.9600 h1        1 00J      0.087000
     52 H151        2.0990    5.5030   -3.8380 h1        1 00J      0.091000
     53 H152        1.7310    5.9720   -2.3540 h1        1 00J      0.091000
     54 H111        0.9060    6.3300   -5.5340 h1        1 00J      0.081500
     55 H112        1.5460    7.4860   -4.6460 h1        1 00J      0.081500
     56 H121       -0.5240    6.7420   -1.9310 h1        1 00J      0.081500
     57 H122        0.6280    7.7600   -2.3250 h1        1 00J      0.081500
     58 H131       -1.0960    7.4880   -5.6920 h1        1 00J      0.093750
     59 H132        0.0640    8.5070   -6.0960 h1        1 00J      0.093750
     60 H141       -1.3620    8.9010   -2.4750 h1        1 00J      0.093750
     61 H142       -2.0240    7.7210   -3.3670 h1        1 00J      0.093750
@<TRIPOS>BOND
     1    1    2 1   
     2    2    5 1   
     3    3    4 1   
     4    3   35 1   
     5    4   36 1   
     6    4   37 1   
     7    4   38 1   
     8    5    6 1   
     9    5   10 1   
    10    6    7 1   
    11    7   39 1   
    12    8   12 1   
    13    9   10 1   
    14   11   42 1   
    15   11   43 1   
    16   11   44 1   
    17   12   41 1   
    18   13   14 1   
    19   13   15 1   
    20   14   40 1   
    21   15   16 1   
    22   16   17 1   
    23   16   18 1   
    24   17   22 1   
    25   17   45 1   
    26   18   20 1   
    27   19   25 1   
    28   19   47 1   
    29   20   21 1   
    30   20   23 1   
    31   22   46 1   
    32   23   24 1   
    33   23   49 1   
    34   24   26 1   
    35   25   48 1   
    36   26   27 1   
    37   27   28 1   
    38   27   50 1   
    39   27   51 1   
    40   28   29 1   
    41   28   52 1   
    42   28   53 1   
    43   29   30 1   
    44   29   31 1   
    45   30   34 1   
    46   30   54 1   
    47   30   55 1   
    48   31   32 1   
    49   31   56 1   
    50   31   57 1   
    51   32   33 1   
    52   32   60 1   
    53   32   61 1   
    54   33   34 1   
    55   34   58 1   
    56   34   59 1   
@<TRIPOS>SUBSTRUCTURE
     1 00J         1 TEMP              0 ****  ****    0 ROOT
