@<TRIPOS>MOLECULE
00J
   62    66     1     0     0
SMALL
bcc


@<TRIPOS>ATOM
      1 O30         0.4340   -0.8770    0.4390 o         1 00J     -0.458100
      2 C26         1.1250   -0.0140   -0.0930 c         1 00J      0.599300
      3 N28         1.0850    1.3580    0.5710 n4        1 00J     -0.667800
      4 C2          0.1420    1.4340    1.7060 c3        1 00J      0.084100
      5 C25         1.9570   -0.1030   -1.2490 cc        1 00J     -0.306400
      6 C21         2.8120    0.8990   -1.8760 ca        1 00J     -0.120800
      7 C6          3.1770    2.2230   -1.6440 ca        1 00J     -0.098000
      8 C24         3.3800    0.2430   -3.0130 ca        1 00J      0.081100
      9 O31         2.9170   -1.0830   -3.0940 os        1 00J     -0.154200
     10 C17         2.0670   -1.2740   -2.0220 cd        1 00J      0.247900
     11 C1          1.4700   -2.6050   -1.8960 c3        1 00J     -0.094900
     12 C10         4.2650    0.8250   -3.9040 ca        1 00J     -0.105000
     13 C19         4.5930    2.1670   -3.6310 ca        1 00J      0.156100
     14 C4          4.0610    2.8500   -2.5200 ca        1 00J     -0.158000
     15 O34         5.4020    2.7650   -4.5780 os        1 00J     -0.232200
     16 C22         6.1740    3.8540   -4.1640 ca        1 00J      0.141100
     17 C7          6.8890    3.8620   -2.9880 ca        1 00J     -0.309300
     18 C20         6.2730    4.9360   -5.0940 ca        1 00J     -0.184300
     19 C5          5.5750    4.9690   -6.3230 ca        1 00J     -0.070000
     20 C23         7.1450    6.0180   -4.7370 ca        1 00J      0.438600
     21 N27         7.8590    6.0250   -3.5480 nb        1 00J     -0.646000
     22 C8          7.7280    4.9950   -2.7370 ca        1 00J      0.432200
     23 C9          7.2790    7.1090   -5.6400 ca        1 00J     -0.210300
     24 C18         6.5720    7.1070   -6.8360 ca        1 00J      0.156100
     25 C3          5.7130    6.0310   -7.1840 ca        1 00J     -0.181000
     26 O33         6.7440    8.2260   -7.6170 os        1 00J     -0.315900
     27 C16         6.2800    8.1360   -8.9720 c3        1 00J      0.126400
     28 C15         6.8490    9.3740   -9.6830 c3        1 00J      0.172800
     29 N29         8.1880    9.1580  -10.2010 n3        1 00J     -0.736600
     30 C11         9.0300   10.3440  -10.1190 c3        1 00J      0.137300
     31 C12         8.1930    8.5670  -11.5320 c3        1 00J      0.137300
     32 C14         9.6120    8.3720  -12.0800 c3        1 00J      0.126400
     33 O32        10.3630    9.5790  -12.0240 os        1 00J     -0.410600
     34 C13        10.4280   10.1080  -10.7050 c3        1 00J      0.126400
     35 H28         2.0370    1.5770    0.8910 hn        1 00J      0.460800
     36 H21C        0.4310    0.6760    2.4840 hx        1 00J      0.111367
     37 H22C       -0.8960    1.1990    1.3460 hx        1 00J      0.111367
     38 H23C        0.1750    2.4670    2.1430 hx        1 00J      0.111367
     39 H6          2.8000    2.8070   -0.7950 ha        1 00J      0.113000
     40 H4          4.3530    3.9000   -2.3470 ha        1 00J      0.174000
     41 H10         4.6830    0.2920   -4.7710 ha        1 00J      0.195000
     42 H11C        0.5410   -2.5570   -1.2710 hc        1 00J      0.105033
     43 H12C        2.2030   -3.2970   -1.3990 hc        1 00J      0.105033
     44 H13C        1.2260   -3.0270   -2.9050 hc        1 00J      0.105033
     45 H7          6.8430    3.0390   -2.2660 ha        1 00J      0.150000
     46 H8          8.3230    5.0270   -1.8040 h4        1 00J      0.033100
     47 H5          4.9200    4.1210   -6.5800 ha        1 00J      0.146000
     48 H3          5.1620    6.0480   -8.1350 ha        1 00J      0.148000
     49 H9          7.9450    7.9520   -5.3950 ha        1 00J      0.178000
     50 H161        6.6230    7.1780   -9.4380 h1        1 00J      0.046200
     51 H162        5.1590    8.1850   -8.9690 h1        1 00J      0.046200
     52 H151        6.1180    9.6500  -10.4990 h1        1 00J      0.053700
     53 H152        6.8660   10.2190   -8.9350 h1        1 00J      0.053700
     54 H111        9.1420   10.6140   -9.0310 h1        1 00J      0.040700
     55 H112        8.5630   11.2220  -10.6530 h1        1 00J      0.040700
     56 H121        7.6920    7.5620  -11.4640 h1        1 00J      0.040700
     57 H122        7.6110    9.1960  -12.2680 h1        1 00J      0.040700
     58 H131       10.9660   11.0850  -10.8220 h1        1 00J      0.056950
     59 H132       11.0200    9.4160  -10.0500 h1        1 00J      0.056950
     60 H141        9.5720    8.1170  -13.1710 h1        1 00J      0.056950
     61 H142       10.1490    7.5670  -11.5130 h1        1 00J      0.056950
     62 H282        0.8270    2.0460   -0.1480 hn        1 00J      0.460800
@<TRIPOS>BOND
     1    1    2 2   
     2    2    3 1   
     3    2    5 1   
     4    3    4 1   
     5    3   35 1   
     6    3   62 1   
     7    4   36 1   
     8    4   37 1   
     9    4   38 1   
    10    5    6 1   
    11    5   10 2   
    12    6    7 ar  
    13    6    8 ar  
    14    7   14 ar  
    15    7   39 1   
    16    8    9 1   
    17    8   12 ar  
    18    9   10 1   
    19   10   11 1   
    20   11   42 1   
    21   11   43 1   
    22   11   44 1   
    23   12   13 ar  
    24   12   41 1   
    25   13   14 ar  
    26   13   15 1   
    27   14   40 1   
    28   15   16 1   
    29   16   17 ar  
    30   16   18 ar  
    31   17   22 ar  
    32   17   45 1   
    33   18   19 ar  
    34   18   20 ar  
    35   19   25 ar  
    36   19   47 1   
    37   20   21 ar  
    38   20   23 ar  
    39   21   22 ar  
    40   22   46 1   
    41   23   24 ar  
    42   23   49 1   
    43   24   25 ar  
    44   24   26 1   
    45   25   48 1   
    46   26   27 1   
    47   27   28 1   
    48   27   50 1   
    49   27   51 1   
    50   28   29 1   
    51   28   52 1   
    52   28   53 1   
    53   29   30 1   
    54   29   31 1   
    55   30   34 1   
    56   30   54 1   
    57   30   55 1   
    58   31   32 1   
    59   31   56 1   
    60   31   57 1   
    61   32   33 1   
    62   32   60 1   
    63   32   61 1   
    64   33   34 1   
    65   34   58 1   
    66   34   59 1   
@<TRIPOS>SUBSTRUCTURE
     1 00J         1 TEMP              0 ****  ****    0 ROOT
