@<TRIPOS>MOLECULE
00J
   62    66     1     0     0
SMALL
bcc


@<TRIPOS>ATOM
      1 O30         0.4350   -0.8720    0.4450 o         1 00J     -0.458100
      2 C26         1.1280   -0.0110   -0.0880 c         1 00J      0.599300
      3 N28         1.1020    1.3580    0.5820 ny        1 00J     -0.667800
      4 C2          0.1670    1.4350    1.7240 c3        1 00J      0.084100
      5 C25         1.9520   -0.1000   -1.2500 cc        1 00J     -0.306400
      6 C21         2.8100    0.8990   -1.8770 ca        1 00J     -0.120800
      7 C6          3.1850    2.2200   -1.6420 ca        1 00J     -0.098000
      8 C24         3.3660    0.2450   -3.0220 ca        1 00J      0.081100
      9 O31         2.8940   -1.0780   -3.1050 os        1 00J     -0.154200
     10 C17         2.0500   -1.2680   -2.0290 cd        1 00J      0.247900
     11 C1          1.4450   -2.5960   -1.9050 c3        1 00J     -0.094900
     12 C10         4.2490    0.8250   -3.9150 ca        1 00J     -0.105000
     13 C19         4.5880    2.1640   -3.6380 ca        1 00J      0.156100
     14 C4          4.0670    2.8440   -2.5200 ca        1 00J     -0.158000
     15 O34         5.3950    2.7610   -4.5870 os        1 00J     -0.232200
     16 C22         6.1770    3.8430   -4.1730 ca        1 00J      0.141100
     17 C7          6.8990    3.8400   -3.0020 ca        1 00J     -0.309300
     18 C20         6.2770    4.9280   -5.0990 ca        1 00J     -0.184300
     19 C5          5.5710    4.9720   -6.3230 ca        1 00J     -0.070000
     20 C23         7.1580    6.0030   -4.7430 ca        1 00J      0.438600
     21 N27         7.8800    5.9990   -3.5580 nb        1 00J     -0.646000
     22 C8          7.7480    4.9660   -2.7510 ca        1 00J      0.432200
     23 C9          7.2940    7.0970   -5.6400 ca        1 00J     -0.210300
     24 C18         6.5790    7.1060   -6.8320 ca        1 00J      0.156100
     25 C3          5.7110    6.0370   -7.1790 ca        1 00J     -0.181000
     26 O33         6.7530    8.2270   -7.6090 os        1 00J     -0.315900
     27 C16         6.2790    8.1470   -8.9610 c3        1 00J      0.126400
     28 C15         6.8510    9.3860   -9.6690 c3        1 00J      0.172800
     29 N29         8.1850    9.1640  -10.1970 n3        1 00J     -0.736600
     30 C11         9.0350   10.3450  -10.1150 c3        1 00J      0.137300
     31 C12         8.1780    8.5800  -11.5310 c3        1 00J      0.137300
     32 C14         9.5920    8.3790  -12.0900 c3        1 00J      0.126400
     33 O32        10.3500    9.5810  -12.0330 os        1 00J     -0.410600
     34 C13        10.4270   10.1040  -10.7120 c3        1 00J      0.126400
     35 H28         0.8430    2.0510   -0.1310 hn        1 00J      0.460800
     36 H21C       -0.8750    1.2090    1.3690 hx        1 00J      0.111367
     37 H22C        0.2080    2.4660    2.1660 hx        1 00J      0.111367
     38 H23C        0.4550    0.6720    2.4970 hx        1 00J      0.111367
     39 H6          2.8180    2.8020   -0.7870 ha        1 00J      0.113000
     40 H4          4.3670    3.8920   -2.3440 ha        1 00J      0.174000
     41 H10         4.6570    0.2940   -4.7870 ha        1 00J      0.195000
     42 H11C        2.1760   -3.2960   -1.4170 hc        1 00J      0.105033
     43 H12C        1.1910   -3.0110   -2.9150 hc        1 00J      0.105033
     44 H13C        0.5200   -2.5450   -1.2740 hc        1 00J      0.105033
     45 H7          6.8530    3.0140   -2.2830 ha        1 00J      0.150000
     46 H8          8.3480    4.9900   -1.8210 h4        1 00J      0.033100
     47 H5          4.9090    4.1290   -6.5800 ha        1 00J      0.146000
     48 H3          5.1540    6.0620   -8.1270 ha        1 00J      0.148000
     49 H9          7.9660    7.9350   -5.3960 ha        1 00J      0.178000
     50 H161        6.6140    7.1890   -9.4340 h1        1 00J      0.046200
     51 H162        5.1590    8.2030   -8.9500 h1        1 00J      0.046200
     52 H151        6.8780   10.2260   -8.9170 h1        1 00J      0.053700
     53 H152        6.1170    9.6700  -10.4790 h1        1 00J      0.053700
     54 H111        8.5690   11.2280  -10.6420 h1        1 00J      0.040700
     55 H112        9.1550   10.6080   -9.0270 h1        1 00J      0.040700
     56 H121        7.5950    9.2160  -12.2600 h1        1 00J      0.040700
     57 H122        7.6720    7.5770  -11.4650 h1        1 00J      0.040700
     58 H131       11.0200    9.4050  -10.0650 h1        1 00J      0.056950
     59 H132       10.9700   11.0780  -10.8280 h1        1 00J      0.056950
     60 H141       10.1280    7.5680  -11.5300 h1        1 00J      0.056950
     61 H142        9.5430    8.1300  -13.1820 h1        1 00J      0.056950
     62 H282        2.0570    1.5690    0.8980 hn        1 00J      0.460800
@<TRIPOS>BOND
     1    1    2 2   
     2    2    3 1   
     3    2    5 1   
     4    3    4 1   
     5    3   35 1   
     6    3   62 1   
     7    4   36 1   
     8    4   37 1   
     9    4   38 1   
    10    5    6 1   
    11    5   10 2   
    12    6    7 ar  
    13    6    8 ar  
    14    7   14 ar  
    15    7   39 1   
    16    8    9 1   
    17    8   12 ar  
    18    9   10 1   
    19   10   11 1   
    20   11   42 1   
    21   11   43 1   
    22   11   44 1   
    23   12   13 ar  
    24   12   41 1   
    25   13   14 ar  
    26   13   15 1   
    27   14   40 1   
    28   15   16 1   
    29   16   17 ar  
    30   16   18 ar  
    31   17   22 ar  
    32   17   45 1   
    33   18   19 ar  
    34   18   20 ar  
    35   19   25 ar  
    36   19   47 1   
    37   20   21 ar  
    38   20   23 ar  
    39   21   22 ar  
    40   22   46 1   
    41   23   24 ar  
    42   23   49 1   
    43   24   25 ar  
    44   24   26 1   
    45   25   48 1   
    46   26   27 1   
    47   27   28 1   
    48   27   50 1   
    49   27   51 1   
    50   28   29 1   
    51   28   52 1   
    52   28   53 1   
    53   29   30 1   
    54   29   31 1   
    55   30   34 1   
    56   30   54 1   
    57   30   55 1   
    58   31   32 1   
    59   31   56 1   
    60   31   57 1   
    61   32   33 1   
    62   32   60 1   
    63   32   61 1   
    64   33   34 1   
    65   34   58 1   
    66   34   59 1   
@<TRIPOS>SUBSTRUCTURE
     1 00J         1 TEMP              0 ****  ****    0 ROOT
