@<TRIPOS>MOLECULE
00M
   26    26     1     0     0
SMALL
bcc


@<TRIPOS>ATOM
      1 C60         0.6440   -0.0300   -0.0570 c3        1 00M      0.152500
      2 N           0.6240    0.4290    1.3230 n3        1 00M     -0.896800
      3 O60         2.2530    1.6300   -0.7970 oh        1 00M     -0.642800
      4 C61        -0.4810    0.5860   -0.9030 c3        1 00M     -0.039100
      5 C62        -1.8430    0.2290   -0.4240 ca        1 00M     -0.031300
      6 C63        -2.7050    1.2120    0.0770 ca        1 00M     -0.127500
      7 C64        -3.9910    0.8770    0.4990 ca        1 00M     -0.135500
      8 C65        -4.4310   -0.4440    0.4250 ca        1 00M     -0.154000
      9 C66        -3.5760   -1.4300   -0.0680 ca        1 00M     -0.135500
     10 C67        -2.2910   -1.0970   -0.4900 ca        1 00M     -0.127500
     11 C68         1.9940    0.2360   -0.7740 c3        1 00M     -0.025900
     12 C           3.1110   -0.5270   -0.0150 c         1 00M      0.890600
     13 H60         0.5010   -1.1510   -0.0350 h1        1 00M      0.062700
     14 H           1.3980    0.0010    1.8060 hn        1 00M      0.349300
     15 H2          0.7820    1.4210    1.3340 hn        1 00M      0.349300
     16 HO60        2.8720    1.8080   -0.0710 ho        1 00M      0.420000
     17 H61        -0.3490    1.7000   -0.9290 hc        1 00M      0.049200
     18 H61A       -0.3580    0.2100   -1.9550 hc        1 00M      0.049200
     19 H63        -2.3580    2.2530    0.1490 ha        1 00M      0.132500
     20 H64        -4.6570    1.6560    0.8950 ha        1 00M      0.115500
     21 H65        -5.4430   -0.7080    0.7590 ha        1 00M      0.113000
     22 H66        -3.9150   -2.4750   -0.1190 ha        1 00M      0.115500
     23 H67        -1.6130   -1.8770   -0.8680 ha        1 00M      0.132500
     24 H68         1.9370   -0.0920   -1.8430 h1        1 00M      0.050700
     25 OXT         3.3990   -1.6970   -0.3730 o         1 00M     -0.832800
     26 O           3.6450    0.1030    0.9470 o         1 00M     -0.832800
@<TRIPOS>BOND
     1    1    2 1   
     2    1    4 1   
     3    1   11 1   
     4    1   13 1   
     5    2   14 1   
     6    2   15 1   
     7    3   11 1   
     8    3   16 1   
     9    4    5 1   
    10    4   17 1   
    11    4   18 1   
    12    5    6 ar  
    13    5   10 ar  
    14    6    7 ar  
    15    6   19 1   
    16    7    8 ar  
    17    7   20 1   
    18    8    9 ar  
    19    8   21 1   
    20    9   10 ar  
    21    9   22 1   
    22   10   23 1   
    23   11   12 1   
    24   11   24 1   
    25   12   25 1   
    26   12   26 1   
@<TRIPOS>SUBSTRUCTURE
     1 00M         1 TEMP              0 ****  ****    0 ROOT
