@<TRIPOS>MOLECULE
00M
   26    24     1     0     0
SMALL
bcc


@<TRIPOS>ATOM
      1 C60        -1.1510   -0.2030   -0.5720 c3        1 00M     -0.046000
      2 N          -2.2720    0.6570   -0.7480 n3        1 00M     -0.332000
      3 O60        -2.8440   -1.8750   -0.4170 oh        1 00M     -0.369000
      4 C61        -0.6860   -0.1350    0.8640 c3        1 00M     -0.123000
      5 O          -0.4320   -1.9390   -3.0100 o         1 00M     -0.567500
      6 C62         0.7090    0.4480    0.9150 c2        1 00M     -0.033000
      7 C63         0.9340    1.7450    0.4790 c1        1 00M     -0.108000
      8 C64         2.1970    2.3050    0.5910 c2        1 00M     -0.139000
      9 C65         3.2350    1.5680    1.1390 c1        1 00M     -0.153000
     10 C66         3.0100    0.2720    1.5750 c1        1 00M     -0.140000
     11 C67         1.7480   -0.2880    1.4630 c2        1 00M     -0.136000
     12 C68        -1.5480   -1.6220   -0.9050 c3        1 00M     -0.086000
     13 C          -1.5290   -1.8110   -2.4060 c2        1 00M      0.310000
     14 H60        -0.4260    0.0800   -1.1630 h1        1 00M      0.104000
     15 H          -2.1110    1.4570   -0.3340 hn        1 00M      0.144500
     16 H2         -2.4100    0.7980   -1.6430 hn        1 00M      0.144500
     17 HO60       -2.9350   -2.7430   -0.2510 ho        1 00M      0.219000
     18 H61        -0.6770   -1.0340    1.2480 hc        1 00M      0.088000
     19 H61A       -1.2950    0.4330    1.3780 hc        1 00M      0.088000
     20 H63         0.2060    2.2590    0.0800 DU        1 00M      0.141000
     21 H64         2.3550    3.2170    0.2840 ha        1 00M      0.116000
     22 H65         4.1240    1.9630    1.2180 ha        1 00M      0.112000
     23 H66         3.7360   -0.2380    1.9820 ha        1 00M      0.114000
     24 H67         1.5900   -1.2010    1.7700 ha        1 00M      0.128000
     25 H68        -0.9170   -2.2430   -0.4910 h1        1 00M      0.091000
     26 OXT        -2.6110   -1.8670   -3.0470 o         1 00M     -0.567500
@<TRIPOS>BOND
     1    1    2 1   
     2    1    4 1   
     3    1   12 1   
     4    1   14 1   
     5    2   15 1   
     6    2   16 1   
     7    3   12 1   
     8    3   17 1   
     9    4    6 1   
    10    4   18 1   
    11    4   19 1   
    12    5   13 1   
    13    6    7 1   
    14    6   11 1   
    15    7    8 1   
    16    8    9 1   
    17    8   21 1   
    18    9   22 1   
    19   10   11 1   
    20   10   23 1   
    21   11   24 1   
    22   12   13 1   
    23   12   25 1   
    24   13   26 1   
@<TRIPOS>SUBSTRUCTURE
     1 00M         1 TEMP              0 ****  ****    0 ROOT
