@<TRIPOS>MOLECULE
00O
   32    33     1     0     0
SMALL
bcc


@<TRIPOS>ATOM
      1 C37         2.1690    0.8030   -0.6050 ca        1 00O     -0.124000
      2 C26         3.0540    1.8560   -0.4020 ca        1 00O     -0.147250
      3 C25         2.6310    3.0190    0.2450 ca        1 00O     -0.153000
      4 C34         1.3140    3.1200    0.6820 ca        1 00O     -0.147250
      5 C23         0.4210    2.0650    0.4800 ca        1 00O     -0.124000
      6 C7          0.8380    0.8940   -0.1570 ca        1 00O     -0.044800
      7 CB         -0.0590   -0.2790   -0.4350 c3        1 00O      0.015900
      8 CA          0.5230   -1.5660    0.2140 c3        1 00O      0.029500
      9 C           1.0620   -2.5130   -0.9190 c         1 00O      0.884600
     10 O           1.7070   -1.9890   -1.8710 o         1 00O     -0.838300
     11 N          -0.3580   -2.2340    1.1590 n3        1 00O     -0.893800
     12 C1         -1.5000   -0.0140   -0.1250 ca        1 00O     -0.044800
     13 C6         -1.9600    0.1980    1.1820 ca        1 00O     -0.124000
     14 C5         -3.3110    0.4410    1.4280 ca        1 00O     -0.147250
     15 C4         -4.2230    0.4750    0.3740 ca        1 00O     -0.153000
     16 C3         -3.7770    0.2600   -0.9290 ca        1 00O     -0.147250
     17 C2         -2.4270    0.0160   -1.1770 ca        1 00O     -0.124000
     18 H37         2.4840   -0.1250   -1.1280 ha        1 00O      0.154500
     19 H26         4.0920    1.7710   -0.7550 ha        1 00O      0.114250
     20 H25         3.3330    3.8480    0.4050 ha        1 00O      0.109500
     21 H34         0.9700    4.0330    1.1880 ha        1 00O      0.114250
     22 H23        -0.6170    2.1720    0.8280 ha        1 00O      0.154500
     23 HB1         0.0210   -0.4500   -1.5580 hc        1 00O      0.097700
     24 HA          1.4370   -1.2700    0.8100 h1        1 00O      0.050700
     25 H          -1.2550   -2.3760    0.7290 hn        1 00O      0.338800
     26 H2          0.0290   -3.1510    1.3230 hn        1 00O      0.338800
     27 H6         -1.2460    0.1570    2.0200 ha        1 00O      0.154500
     28 H5         -3.6570    0.5990    2.4590 ha        1 00O      0.114250
     29 H4         -5.2870    0.6660    0.5700 ha        1 00O      0.109500
     30 H3         -4.4910    0.2790   -1.7640 ha        1 00O      0.114250
     31 H2A        -2.0860   -0.1630   -2.2080 ha        1 00O      0.154500
     32 OXT         0.8510   -3.7520   -0.8010 o         1 00O     -0.838300
@<TRIPOS>BOND
     1    1    2 ar  
     2    1    6 ar  
     3    1   18 1   
     4    2    3 ar  
     5    2   19 1   
     6    3    4 ar  
     7    3   20 1   
     8    4    5 ar  
     9    4   21 1   
    10    5    6 ar  
    11    5   22 1   
    12    6    7 1   
    13    7    8 1   
    14    7   12 1   
    15    7   23 1   
    16    8    9 1   
    17    8   11 1   
    18    8   24 1   
    19    9   10 1   
    20    9   32 1   
    21   11   25 1   
    22   11   26 1   
    23   12   13 ar  
    24   12   17 ar  
    25   13   14 ar  
    26   13   27 1   
    27   14   15 ar  
    28   14   28 1   
    29   15   16 ar  
    30   15   29 1   
    31   16   17 ar  
    32   16   30 1   
    33   17   31 1   
@<TRIPOS>SUBSTRUCTURE
     1 00O         1 TEMP              0 ****  ****    0 ROOT
