@<TRIPOS>MOLECULE
00O
   32    28     1     0     0
SMALL
bcc


@<TRIPOS>ATOM
      1 C37         1.7380    0.3960   -0.4740 c1        1 00O     -0.142000
      2 C26         3.1210    0.4380   -0.5510 c1        1 00O     -0.145167
      3 C25         3.8790   -0.5740    0.0180 c1        1 00O     -0.145167
      4 C34         3.2530   -1.6290    0.6630 c1        1 00O     -0.145167
      5 C23         1.8690   -1.6720    0.7400 c1        1 00O     -0.145167
      6 C7          1.1110   -0.6600    0.1710 c1        1 00O     -0.039000
      7 CB         -0.4070   -0.7420    0.1960 c3        1 00O     -0.038000
      8 CA         -0.9020   -0.4950    1.6040 c3        1 00O     -0.118000
      9 C          -0.5780   -1.6920    2.4690 c2        1 00O      0.304000
     10 O          -0.4300   -1.5500    3.7110 o         1 00O     -0.573000
     11 N          -2.3100   -0.2930    1.5830 n3        1 00O     -0.326000
     12 C1         -0.9850    0.3070   -0.7340 c2        1 00O     -0.036000
     13 C6         -1.9130   -0.0580   -1.6970 c2        1 00O     -0.127000
     14 C5         -2.5000    0.9110   -2.4970 c1        1 00O     -0.146000
     15 C4         -2.1600    2.2440   -2.3330 c1        1 00O     -0.145167
     16 C3         -1.2320    2.6100   -1.3700 c1        1 00O     -0.145167
     17 C2         -0.6450    1.6410   -0.5700 c1        1 00O     -0.105000
     18 H37         1.2060    1.1070   -0.8740 ha        1 00O      0.129000
     19 H26         3.5630    1.1820   -1.0050 ha        1 00O      0.127167
     20 H25         4.8540   -0.5440   -0.0360 ha        1 00O      0.127167
     21 H34         3.7860   -2.3420    1.0640 ha        1 00O      0.127167
     22 H23         1.4280   -2.4240    1.1790 ha        1 00O      0.127167
     23 HB1        -0.6900   -1.6290   -0.0980 hc        1 00O      0.137000
     24 HA         -0.4640    0.2980    1.9690 h1        1 00O      0.090000
     25 H          -2.4880    0.6040    1.5380 hn        1 00O      0.134000
     26 H2         -2.6800   -0.6400    2.3450 hn        1 00O      0.134000
     27 H6         -2.1710   -0.9940   -1.7970 ha        1 00O      0.136000
     28 H5         -3.1820    0.6580   -3.1490 ha        1 00O      0.115000
     29 H4         -2.5730    2.9260   -2.8970 ha        1 00O      0.127167
     30 H3         -0.9930    3.5490   -1.2550 ha        1 00O      0.127167
     31 H2A        -0.0230    1.9030    0.1350 ha        1 00O      0.151000
     32 OXT        -0.4800   -2.8360    1.9500 o         1 00O     -0.573000
@<TRIPOS>BOND
     1    1    6 1   
     2    1   18 1   
     3    2    3 1   
     4    2   19 1   
     5    3   20 1   
     6    4    5 1   
     7    4   21 1   
     8    5   22 1   
     9    6    7 1   
    10    7    8 1   
    11    7   12 1   
    12    7   23 1   
    13    8    9 1   
    14    8   11 1   
    15    8   24 1   
    16    9   10 1   
    17    9   32 1   
    18   11   25 1   
    19   11   26 1   
    20   12   13 1   
    21   12   17 1   
    22   13   14 1   
    23   13   27 1   
    24   14   28 1   
    25   15   16 1   
    26   15   29 1   
    27   16   30 1   
    28   17   31 1   
@<TRIPOS>SUBSTRUCTURE
     1 00O         1 TEMP              0 ****  ****    0 ROOT
