@<TRIPOS>MOLECULE
00P
   62    61     1     0     0
SMALL
bcc


@<TRIPOS>ATOM
      1 C1          0.8030    3.9280    1.0940 c3        1 00P     -0.026000
      2 N1          0.6530    2.9240    0.1000 n         1 00P     -0.360000
      3 C2          1.9720    4.8540    0.7130 c3        1 00P     -0.124000
      4 N2          0.4820    8.0430    3.0680 n3        1 00P     -0.334000
      5 C3          2.7310    5.2250    1.9680 c3        1 00P     -0.145500
      6 C4          1.9250    6.1270    2.8910 c3        1 00P     -0.177000
      7 C5          1.3690    7.3360    2.1750 c3        1 00P     -0.034000
      8 C6          0.6080    6.9620    0.9150 c3        1 00P     -0.177000
      9 C7          1.4150    6.0610   -0.0040 c3        1 00P     -0.145500
     10 N07        -1.1940   -2.4620   -0.1860 n         1 00P     -0.330000
     11 C08        -2.0840   -2.2100   -1.1540 c2        1 00P      0.336000
     12 O09        -2.6470   -3.0470   -1.8550 o         1 00P     -0.293000
     13 N10        -2.3340   -0.7620   -1.1700 n         1 00P     -0.148000
     14 N11        -1.5410   -0.2240   -0.3760 n         1 00P     -0.139000
     15 C12        -0.8280   -1.2860    0.3470 c2        1 00P      0.338000
     16 O13         0.0470   -1.1180    1.1890 o         1 00P     -0.324000
     17 C14        -3.6980   -0.1570   -1.2750 c3        1 00P     -0.053000
     18 C15        -3.6120    1.3560   -1.5340 c2        1 00P     -0.175000
     19 C16        -2.2440    2.0840   -1.0100 c1        1 00P     -0.150000
     20 C17        -1.0780    1.1540   -0.7190 c2        1 00P     -0.028000
     21 C18        -0.1310    1.7390    0.3810 c2        1 00P      0.321000
     22 O19        -0.1640    1.2840    1.5190 o         1 00P     -0.369000
     23 C31        -0.8320   -3.7880    0.3210 c3        1 00P      0.045000
     24 C32        -0.2840   -4.6540   -0.8460 c3        1 00P     -0.883000
     25 S33        -1.0200   -6.2960   -0.7810 s4        1 00P      2.072800
     26 O34        -2.2140   -6.3650   -1.5780 o         1 00P     -0.537400
     27 O35        -1.5390   -6.5840    0.5220 o         1 00P     -0.537400
     28 C36         0.1570   -7.5110   -1.2810 c1        1 00P     -0.844000
     29 C37         0.3840   -7.7400   -2.6380 c2        1 00P     -0.014000
     30 C38         1.1960   -8.7910   -3.0380 c1        1 00P     -0.153000
     31 C39         1.7830   -9.6140   -2.0880 c1        1 00P     -0.105500
     32 C40         1.5550   -9.3840   -0.7330 c1        1 00P     -0.105500
     33 C41         0.7410   -8.3310   -0.3340 c1        1 00P     -0.016000
     34 H1          0.9840    3.5150    1.9440 h1        1 00P      0.102500
     35 H1A        -0.0080    4.4440    1.1540 h1        1 00P      0.102500
     36 HN1         1.0510    3.0260   -0.7120 hn        1 00P      0.247000
     37 H2          2.5800    4.3700    0.1020 hc        1 00P      0.086000
     38 HN2        -0.3360    8.1250    2.6800 hn        1 00P      0.140500
     39 HN2A        0.4020    7.5750    3.8550 hn        1 00P      0.140500
     40 H3          3.5570    5.6900    1.7120 hc        1 00P      0.080500
     41 H3A         2.9620    4.4170    2.4430 hc        1 00P      0.080500
     42 H4          1.1810    5.6120    3.2660 hc        1 00P      0.088000
     43 H4A         2.4970    6.4260    3.6160 hc        1 00P      0.088000
     44 H5          2.1000    7.9200    1.9360 h1        1 00P      0.095000
     45 H6          0.3740    7.7780    0.4330 hc        1 00P      0.088000
     46 H6A        -0.2070    6.5020    1.1670 hc        1 00P      0.088000
     47 H7          2.1500    6.5690   -0.3760 hc        1 00P      0.080500
     48 H7A         0.8480    5.7600   -0.7240 hc        1 00P      0.080500
     49 H14        -4.3580   -0.5940   -1.8670 h1        1 00P      0.133500
     50 H14A       -4.1210   -0.3120   -0.4080 h1        1 00P      0.133500
     51 H15        -4.1200    1.7490   -2.2490 ha        1 00P      0.154000
     52 H16        -2.0790    3.0240   -1.2230 ha        1 00P      0.165000
     53 H17        -0.4690    1.1240   -1.4920 h4        1 00P      0.125000
     54 H31        -1.6330   -4.2220    0.7070 h1        1 00P      0.125000
     55 H31A       -0.1400   -3.6980    1.0160 h1        1 00P      0.125000
     56 H32         0.6950   -4.7310   -0.7660 h1        1 00P      0.162000
     57 H32A       -0.5090   -4.2320   -1.6950 h1        1 00P      0.162000
     58 H37        -0.0240   -7.1690   -3.2980 ha        1 00P      0.155000
     59 H38         1.3560   -8.9520   -3.9980 ha        1 00P      0.145000
     60 H39         2.3490  -10.3470   -2.3670 ha        1 00P      0.143000
     61 H40         1.9590   -9.9500   -0.0790 ha        1 00P      0.143000
     62 H41         0.5810   -8.1700    0.6190 ha        1 00P      0.155000
@<TRIPOS>BOND
     1    1    2 1   
     2    1    3 1   
     3    1   34 1   
     4    1   35 1   
     5    2   21 1   
     6    2   36 1   
     7    3    5 1   
     8    3    9 1   
     9    3   37 1   
    10    4    7 1   
    11    4   38 1   
    12    4   39 1   
    13    5    6 1   
    14    5   40 1   
    15    5   41 1   
    16    6    7 1   
    17    6   42 1   
    18    6   43 1   
    19    7    8 1   
    20    7   44 1   
    21    8    9 1   
    22    8   45 1   
    23    8   46 1   
    24    9   47 1   
    25    9   48 1   
    26   10   11 1   
    27   10   15 1   
    28   10   23 1   
    29   11   12 1   
    30   11   13 1   
    31   13   14 1   
    32   13   17 1   
    33   14   15 1   
    34   14   20 1   
    35   15   16 1   
    36   17   18 1   
    37   17   49 1   
    38   17   50 1   
    39   18   19 1   
    40   18   51 1   
    41   19   52 1   
    42   20   21 1   
    43   20   53 1   
    44   21   22 1   
    45   23   24 1   
    46   23   54 1   
    47   23   55 1   
    48   24   25 1   
    49   24   56 1   
    50   24   57 1   
    51   25   26 1   
    52   25   27 1   
    53   28   29 1   
    54   28   33 1   
    55   29   30 1   
    56   29   58 1   
    57   30   59 1   
    58   31   32 1   
    59   31   60 1   
    60   32   61 1   
    61   33   62 1   
@<TRIPOS>SUBSTRUCTURE
     1 00P         1 TEMP              0 ****  ****    0 ROOT
