@<TRIPOS>MOLECULE
00P
   62    65     1     0     0
SMALL
bcc


@<TRIPOS>ATOM
      1 C1         -4.3090   -1.4460    1.3570 c3        1 00P      0.083000
      2 N1         -3.4630   -0.4180    1.9000 n         1 00P     -0.554900
      3 C2         -5.7370   -0.9950    1.0110 c3        1 00P     -0.087700
      4 N2         -9.3540   -0.5660   -1.2820 n3        1 00P     -0.913800
      5 C3         -6.5840   -2.2270    0.7240 c3        1 00P     -0.074900
      6 C4         -7.9990   -1.8450    0.3450 c3        1 00P     -0.074900
      7 C5         -8.0000   -0.9190   -0.8830 c3        1 00P      0.171500
      8 C6         -7.1590    0.3290   -0.5700 c3        1 00P     -0.074900
      9 C7         -5.7480   -0.0610   -0.1870 c3        1 00P     -0.074900
     10 N07         1.0930    1.3020   -0.5610 n         1 00P     -0.497400
     11 C08         0.2950    2.4260   -0.9320 c         1 00P      0.800500
     12 O09         0.4390    3.1450   -1.9290 o         1 00P     -0.591500
     13 N10        -0.7770    2.5010    0.0300 n         1 00P     -0.331400
     14 N11        -0.4220    1.7060    1.1420 n         1 00P     -0.273400
     15 C12         0.6100    0.7800    0.6730 c         1 00P      0.799500
     16 O13         1.0690   -0.1750    1.3100 o         1 00P     -0.586500
     17 C14        -1.4560    3.7490    0.3700 c3        1 00P      0.118200
     18 C15        -2.4540    3.5250    1.4700 c2        1 00P     -0.141200
     19 C16        -2.5210    2.3800    2.1620 c2        1 00P     -0.181200
     20 C17        -1.5870    1.2220    1.8960 c3        1 00P      0.049900
     21 C18        -2.3580    0.0590    1.2260 c         1 00P      0.639100
     22 O19        -1.9450   -0.4640    0.1750 o         1 00P     -0.587100
     23 C32         3.4810    0.6370   -0.7130 c3        1 00P     -0.345600
     24 S33         4.6340   -0.2090   -1.6660 sy        1 00P      1.391300
     25 O34         3.9990   -1.2690   -2.3270 o         1 00P     -0.652800
     26 O35         5.3270    0.7210   -2.4530 o         1 00P     -0.652800
     27 C36         5.6250   -0.7850   -0.4490 ca        1 00P     -0.393500
     28 C37         5.3040   -1.9630    0.2390 ca        1 00P     -0.014000
     29 C38         6.1400   -2.4590    1.2350 ca        1 00P     -0.155500
     30 C39         7.3170   -1.7810    1.5570 ca        1 00P     -0.062000
     31 C40         7.6550   -0.6100    0.8760 ca        1 00P     -0.155500
     32 C41         6.8140   -0.1200   -0.1190 ca        1 00P     -0.014000
     33 H1         -3.8220   -1.8710    0.4320 h1        1 00P      0.067200
     34 H1A        -4.3760   -2.2680    2.1280 h1        1 00P      0.067200
     35 HN1        -3.8430    0.1290    2.6360 hn        1 00P      0.303500
     36 H2         -6.1850   -0.4560    1.8920 hc        1 00P      0.046700
     37 HN2        -9.3310    0.0340   -2.0820 hn        1 00P      0.350300
     38 HN2A       -9.8750   -1.3910   -1.4990 hn        1 00P      0.350300
     39 H3         -6.1140   -2.8160   -0.1070 hc        1 00P      0.045450
     40 H3A        -6.6100   -2.8850    1.6320 hc        1 00P      0.045450
     41 H4         -8.5840   -2.7750    0.1220 hc        1 00P      0.047450
     42 H4A        -8.4970   -1.3270    1.2060 hc        1 00P      0.047450
     43 H5         -7.4650   -1.4770   -1.7160 h1        1 00P      0.009700
     44 H6         -7.1250    1.0000   -1.4680 hc        1 00P      0.047450
     45 H6A        -7.6370    0.9030    0.2660 hc        1 00P      0.047450
     46 H7         -5.1620    0.8650    0.0500 hc        1 00P      0.045450
     47 H7A        -5.2430   -0.5620   -1.0550 hc        1 00P      0.045450
     48 H14        -0.7360    4.5590    0.6870 h1        1 00P      0.077200
     49 H14A       -1.9740    4.0810   -0.5750 h1        1 00P      0.077200
     50 H15        -3.1200    4.3770    1.6700 ha        1 00P      0.146000
     51 H16        -3.2390    2.2270    2.9790 ha        1 00P      0.138000
     52 H17        -1.1560    0.8330    2.8680 h1        1 00P      0.114700
     53 H31         1.7860   -0.3490   -1.6380 h1        1 00P      0.088200
     54 H31A        2.1770    1.3130   -2.3270 h1        1 00P      0.088200
     55 H32         3.8410    1.6810   -0.5090 h1        1 00P      0.126700
     56 H32A        3.3540    0.1600    0.2990 h1        1 00P      0.126700
     57 H37         4.3790   -2.5060   -0.0250 ha        1 00P      0.157500
     58 H38         5.8730   -3.3850    1.7660 ha        1 00P      0.144000
     59 H39         7.9790   -2.1700    2.3450 ha        1 00P      0.138000
     60 H40         8.5850   -0.0770    1.1220 ha        1 00P      0.144000
     61 H41         7.0880    0.7980   -0.6710 ha        1 00P      0.157500
     62 C31         2.1080    0.7040   -1.3770 c3        1 00P      0.153000
@<TRIPOS>BOND
     1    1    2 1   
     2    1    3 1   
     3    1   33 1   
     4    1   34 1   
     5    2   21 1   
     6    2   35 1   
     7    3    5 1   
     8    3    9 1   
     9    3   36 1   
    10    4    7 1   
    11    4   37 1   
    12    4   38 1   
    13    5    6 1   
    14    5   39 1   
    15    5   40 1   
    16    6    7 1   
    17    6   41 1   
    18    6   42 1   
    19    7    8 1   
    20    7   43 1   
    21    8    9 1   
    22    8   44 1   
    23    8   45 1   
    24    9   46 1   
    25    9   47 1   
    26   10   11 1   
    27   10   15 1   
    28   10   62 1   
    29   11   12 2   
    30   11   13 1   
    31   13   14 1   
    32   13   17 1   
    33   14   15 1   
    34   14   20 1   
    35   15   16 2   
    36   17   18 1   
    37   17   48 1   
    38   17   49 1   
    39   18   19 2   
    40   18   50 1   
    41   19   20 1   
    42   19   51 1   
    43   20   21 1   
    44   20   52 1   
    45   21   22 2   
    46   23   24 1   
    47   23   55 1   
    48   23   56 1   
    49   23   62 1   
    50   24   25 2   
    51   24   26 2   
    52   24   27 1   
    53   27   28 ar  
    54   27   32 ar  
    55   28   29 ar  
    56   28   57 1   
    57   29   30 ar  
    58   29   58 1   
    59   30   31 ar  
    60   30   59 1   
    61   31   32 ar  
    62   31   60 1   
    63   32   61 1   
    64   53   62 1   
    65   54   62 1   
@<TRIPOS>SUBSTRUCTURE
     1 00P         1 TEMP              0 ****  ****    0 ROOT
