@<TRIPOS>MOLECULE
00R
   66    63     1     0     0
SMALL
bcc


@<TRIPOS>ATOM
      1 C01         0.8720   -3.0830    0.7420 c3        1 00R     -0.171000
      2 C02         0.6770   -3.5100   -0.7010 c3        1 00R      0.014000
      3 C03         1.4930   -4.7430   -1.0580 c3        1 00R     -0.171000
      4 C04         1.2750   -5.8850   -0.0820 c3        1 00R     -0.150500
      5 C05         1.4690   -5.4580    1.3620 c3        1 00R     -0.037000
      6 C06         0.6540   -4.2230    1.7180 c3        1 00R     -0.150500
      7 N07        -0.1000    2.9320   -0.1360 n         1 00R     -0.333000
      8 C08         1.1260    2.6070    0.3050 c2        1 00R      0.336000
      9 O09         1.6360    2.9810    1.3440 o         1 00R     -0.291000
     10 N10         1.7490    1.7200   -0.7010 n         1 00R     -0.140000
     11 N11         0.8850    1.4350   -1.5530 n         1 00R     -0.167000
     12 C12        -0.3210    2.2430   -1.2710 c2        1 00R      0.346000
     13 O13        -1.3500    2.2360   -1.9120 o         1 00R     -0.299000
     14 C14         3.1430    1.9350   -1.2010 c3        1 00R     -0.075000
     15 C15         3.6030    0.7540   -2.0680 c2        1 00R     -0.179000
     16 C16         2.4120   -0.0890   -2.8010 c1        1 00R     -0.173000
     17 C17         1.0200    0.1110   -2.2260 c2        1 00R     -0.029000
     18 C18         0.6110   -1.0660   -1.2810 c2        1 00R      0.318000
     19 O19        -0.0960   -0.8530   -0.3190 o         1 00R     -0.364000
     20 N20         1.0680   -2.4230   -1.5660 n         1 00R     -0.350000
     21 C22         1.0480   -6.6000    2.2720 c2        1 00R     -0.114000
     22 N23         1.8580   -7.3330    3.0370 n2        1 00R     -0.173000
     23 C24         1.1130   -8.2760    3.6470 c1        1 00R     -0.011000
     24 N25        -0.1700   -8.1180    3.2500 n2        1 00R     -0.158000
     25 C26        -0.2160   -7.0920    2.4070 c1        1 00R     -0.162000
     26 N27         1.5920   -9.2780    4.5070 n2        1 00R     -0.275000
     27 C31        -0.9590    3.9960    0.4100 c3        1 00R      0.039000
     28 C32        -0.9960    5.1950   -0.5830 c3        1 00R     -0.884000
     29 S33        -1.5760    6.6600    0.2730 s4        1 00R      2.073800
     30 O34        -0.5740    7.6900    0.2830 o         1 00R     -0.538900
     31 O35        -1.7340    6.4140    1.6730 o         1 00R     -0.538900
     32 C36        -3.1100    7.2490   -0.4650 c1        1 00R     -0.844000
     33 C37        -3.1060    7.7630   -1.7600 c2        1 00R     -0.016000
     34 C38        -4.2660    8.3030   -2.2950 c1        1 00R     -0.157000
     35 C39        -5.4290    8.3300   -1.5440 c1        1 00R     -0.106500
     36 C40        -5.4340    7.8170   -0.2510 c1        1 00R     -0.106500
     37 C41        -4.2730    7.2770    0.2860 c1        1 00R     -0.012000
     38 H01         0.2380   -2.3650    0.9480 hc        1 00R      0.088250
     39 H01A        1.7830   -2.7440    0.8510 hc        1 00R      0.088250
     40 H02        -0.2680   -3.7040   -0.8470 h1        1 00R      0.131000
     41 H03         1.2420   -5.0400   -1.9500 hc        1 00R      0.088250
     42 H03A        2.4440   -4.5040   -1.0590 hc        1 00R      0.088250
     43 H04         0.3660   -6.2250   -0.1910 hc        1 00R      0.090750
     44 H04A        1.9120   -6.6060   -0.2880 hc        1 00R      0.090750
     45 H05         2.4150   -5.2660    1.5110 hc        1 00R      0.096000
     46 H06        -0.2990   -4.4620    1.7200 hc        1 00R      0.090750
     47 H06A        0.9080   -3.9240    2.6150 hc        1 00R      0.090750
     48 H14         3.8290    2.2220   -0.5660 h1        1 00R      0.133000
     49 H14A        3.0920    2.7360   -1.7650 h1        1 00R      0.133000
     50 H15         4.5080    0.7430   -2.4380 ha        1 00R      0.154000
     51 H16         2.6230   -0.9000   -3.2940 ha        1 00R      0.164000
     52 H17         0.3490    0.0220   -2.9300 h4        1 00R      0.168000
     53 HN20        1.5340   -2.5960   -2.3320 hn        1 00R      0.237000
     54 H26        -1.0150   -6.7500    1.9620 DU        1 00R      0.218000
     55 HN27        2.3980   -9.1760    4.9210 hn        1 00R      0.175000
     56 HN2A        1.0970  -10.0300    4.6520 hn        1 00R      0.175000
     57 H31        -1.8730    3.6480    0.5390 h1        1 00R      0.130000
     58 H31A       -0.5980    4.2980    1.2730 h1        1 00R      0.130000
     59 H32        -1.6020    4.9880   -1.3210 h1        1 00R      0.162500
     60 H32A       -0.1020    5.3550   -0.9320 h1        1 00R      0.162500
     61 H37        -2.2910    7.7450   -2.2870 ha        1 00R      0.158000
     62 H38        -4.2620    8.6630   -3.2040 ha        1 00R      0.145000
     63 H39        -6.2500    8.7130   -1.9240 ha        1 00R      0.144000
     64 H40        -6.2540    7.8370    0.2790 ha        1 00R      0.144000
     65 H41        -4.2760    6.9200    1.1860 ha        1 00R      0.156000
     66 HN23        2.7580   -7.2170    3.1310 DU        1 00R      0.218000
@<TRIPOS>BOND
     1    1    2 1   
     2    1    6 1   
     3    1   38 1   
     4    1   39 1   
     5    2    3 1   
     6    2   20 1   
     7    2   40 1   
     8    3    4 1   
     9    3   41 1   
    10    3   42 1   
    11    4    5 1   
    12    4   43 1   
    13    4   44 1   
    14    5    6 1   
    15    5   21 1   
    16    5   45 1   
    17    6   46 1   
    18    6   47 1   
    19    7    8 1   
    20    7   12 1   
    21    7   27 1   
    22    8    9 1   
    23    8   10 1   
    24   10   11 1   
    25   10   14 1   
    26   11   12 1   
    27   11   17 1   
    28   12   13 1   
    29   14   15 1   
    30   14   48 1   
    31   14   49 1   
    32   15   16 1   
    33   15   50 1   
    34   16   51 1   
    35   17   18 1   
    36   17   52 1   
    37   18   19 1   
    38   18   20 1   
    39   20   53 1   
    40   21   22 1   
    41   21   25 1   
    42   22   23 1   
    43   23   24 1   
    44   24   25 1   
    45   26   55 1   
    46   26   56 1   
    47   27   28 1   
    48   27   57 1   
    49   27   58 1   
    50   28   29 1   
    51   28   59 1   
    52   28   60 1   
    53   29   30 1   
    54   29   31 1   
    55   32   33 1   
    56   32   37 1   
    57   33   34 1   
    58   33   61 1   
    59   34   62 1   
    60   35   36 1   
    61   35   63 1   
    62   36   64 1   
    63   37   65 1   
@<TRIPOS>SUBSTRUCTURE
     1 00R         1 TEMP              0 ****  ****    0 ROOT
