@<TRIPOS>MOLECULE
00R
   66    70     1     0     0
SMALL
bcc


@<TRIPOS>ATOM
      1 C01         4.9380   -1.3970   -0.0340 c3        1 00R     -0.092400
      2 C02         4.0140   -0.5730    0.8810 c3        1 00R      0.098700
      3 C03         4.8690    0.1160    1.9600 c3        1 00R     -0.092400
      4 C04         5.9120    1.0040    1.3170 c3        1 00R     -0.072400
      5 C05         6.8190    0.2040    0.3910 c3        1 00R      0.010600
      6 C06         5.9840   -0.5060   -0.6690 c3        1 00R     -0.072400
      7 N07        -2.3410   -0.3520    0.7420 n         1 00R     -0.495400
      8 C08        -2.3310   -1.5120   -0.0870 c         1 00R      0.803500
      9 O09        -3.0910   -1.7650   -1.0320 o         1 00R     -0.604500
     10 N10        -1.2060   -2.3080    0.3350 n         1 00R     -0.336400
     11 N11        -0.7910   -1.8430    1.6010 n         1 00R     -0.268400
     12 C12        -1.3310   -0.4880    1.7380 c         1 00R      0.797500
     13 O13        -1.0570    0.3160    2.6340 o         1 00R     -0.576500
     14 C14        -1.1310   -3.7540    0.1600 c3        1 00R      0.122200
     15 C15         0.1340   -4.2950    0.7650 c2        1 00R     -0.142200
     16 C16         0.9350   -3.5560    1.5420 c2        1 00R     -0.175200
     17 C17         0.6240   -2.1170    1.8830 c3        1 00R      0.047900
     18 O19         1.2410   -0.2930    0.3860 o         1 00R     -0.588100
     19 N20         2.9580   -1.3770    1.4590 n         1 00R     -0.566900
     20 C22         7.8390    1.0860   -0.2270 cc        1 00R     -0.211900
     21 N23         8.8520    0.6310   -1.0720 na        1 00R     -0.286900
     22 C24         9.6240    1.7580   -1.4380 cc        1 00R      0.533400
     23 N25         9.1260    2.8910   -0.8450 nd        1 00R     -0.684000
     24 C26         8.0330    2.4810   -0.1030 cd        1 00R      0.304200
     25 N27        10.7460    1.6190   -2.3040 nh        1 00R     -0.877500
     26 C32        -4.6220    0.6130    0.5580 c3        1 00R     -0.344600
     27 S33        -5.5050    2.0190    0.1180 sy        1 00R      1.391300
     28 O34        -5.7090    2.7970    1.2660 o         1 00R     -0.652300
     29 O35        -4.8810    2.6320   -0.9770 o         1 00R     -0.652300
     30 C36        -6.9390    1.2990   -0.3510 ca        1 00R     -0.393500
     31 C37        -8.0290    1.2330    0.5280 ca        1 00R     -0.014500
     32 C38        -9.2320    0.6560    0.1320 ca        1 00R     -0.156000
     33 C39        -9.3650    0.1390   -1.1570 ca        1 00R     -0.062000
     34 C40        -8.2920    0.2050   -2.0480 ca        1 00R     -0.156000
     35 C41        -7.0910    0.7820   -1.6450 ca        1 00R     -0.014500
     36 H01         5.4390   -2.2060    0.5580 hc        1 00R      0.047200
     37 H01A        4.3330   -1.8870   -0.8410 hc        1 00R      0.047200
     38 H02         3.5230    0.2320    0.2520 h1        1 00R      0.097700
     39 H03         4.2140    0.7380    2.6240 hc        1 00R      0.047200
     40 H03A        5.3710   -0.6560    2.6000 hc        1 00R      0.047200
     41 H04         5.4080    1.8200    0.7340 hc        1 00R      0.052200
     42 H04A        6.5300    1.4910    2.1160 hc        1 00R      0.052200
     43 H05         7.3490   -0.5800    1.0080 hc        1 00R      0.054700
     44 H06         6.6480   -1.1310   -1.3220 hc        1 00R      0.052200
     45 H06A        5.4860    0.2560   -1.3250 hc        1 00R      0.052200
     46 H14        -2.0140   -4.2890    0.6150 h1        1 00R      0.075700
     47 H14A       -1.1430   -3.9290   -0.9550 h1        1 00R      0.075700
     48 H15         0.3470   -5.3470    0.5260 ha        1 00R      0.145000
     49 H16         1.8550   -3.9550    1.9910 ha        1 00R      0.138000
     50 H17         0.7260   -1.9470    2.9980 h1        1 00R      0.111700
     51 HN20        3.2260   -2.1110    2.0670 hn        1 00R      0.306500
     52 H26         7.4400    3.1880    0.4780 h4        1 00R      0.043100
     53 HN27       11.5650    1.9810   -1.8500 hn        1 00R      0.379800
     54 HN2A       10.5780    2.1290   -3.1520 hn        1 00R      0.379800
     55 H31        -2.8100    1.5920    1.2810 h1        1 00R      0.088200
     56 H31A       -2.8490    1.2320   -0.5250 h1        1 00R      0.088200
     57 H32        -4.8740   -0.2540   -0.1140 h1        1 00R      0.126200
     58 H32A       -4.9050    0.2840    1.5940 h1        1 00R      0.126200
     59 H37        -7.9270    1.6570    1.5430 ha        1 00R      0.157500
     60 H38       -10.0780    0.6130    0.8340 ha        1 00R      0.144000
     61 H39       -10.3160   -0.3170   -1.4730 ha        1 00R      0.138000
     62 H40        -8.3950   -0.1970   -3.0670 ha        1 00R      0.144000
     63 H41        -6.2460    0.8460   -2.3540 ha        1 00R      0.157500
     64 HN23        8.9950   -0.2970   -1.3710 hn        1 00R      0.305700
     65 C18         1.6290   -1.1840    1.1630 c         1 00R      0.648100
     66 C31        -3.1120    0.8320    0.5010 c3        1 00R      0.152000
@<TRIPOS>BOND
     1    1    2 1   
     2    1    6 1   
     3    1   36 1   
     4    1   37 1   
     5    2    3 1   
     6    2   19 1   
     7    2   38 1   
     8    3    4 1   
     9    3   39 1   
    10    3   40 1   
    11    4    5 1   
    12    4   41 1   
    13    4   42 1   
    14    5    6 1   
    15    5   20 1   
    16    5   43 1   
    17    6   44 1   
    18    6   45 1   
    19    7    8 1   
    20    7   12 1   
    21    7   66 1   
    22    8    9 2   
    23    8   10 1   
    24   10   11 1   
    25   10   14 1   
    26   11   12 1   
    27   11   17 1   
    28   12   13 2   
    29   14   15 1   
    30   14   46 1   
    31   14   47 1   
    32   15   16 2   
    33   15   48 1   
    34   16   17 1   
    35   16   49 1   
    36   17   50 1   
    37   17   65 1   
    38   18   65 2   
    39   19   51 1   
    40   19   65 1   
    41   20   21 1   
    42   20   24 2   
    43   21   22 1   
    44   21   64 1   
    45   22   23 2   
    46   22   25 1   
    47   23   24 1   
    48   24   52 1   
    49   25   53 1   
    50   25   54 1   
    51   26   27 1   
    52   26   57 1   
    53   26   58 1   
    54   26   66 1   
    55   27   28 2   
    56   27   29 2   
    57   27   30 1   
    58   30   31 ar  
    59   30   35 ar  
    60   31   32 ar  
    61   31   59 1   
    62   32   33 ar  
    63   32   60 1   
    64   33   34 ar  
    65   33   61 1   
    66   34   35 ar  
    67   34   62 1   
    68   35   63 1   
    69   55   66 1   
    70   56   66 1   
@<TRIPOS>SUBSTRUCTURE
     1 00R         1 TEMP              0 ****  ****    0 ROOT
