@<TRIPOS>MOLECULE
00S
   22    22     1     0     0
SMALL
bcc


@<TRIPOS>ATOM
      1 N23         3.8620    0.6880    0.5670 n3        1 00S     -0.915800
      2 C16         3.1860   -0.2140   -0.3380 c3        1 00S      0.201100
      3 C17         1.6890   -0.1440   -0.2560 ca        1 00S     -0.082300
      4 C22         0.9410   -1.3210   -0.1630 ca        1 00S     -0.125500
      5 C21        -0.4520   -1.2700   -0.1240 ca        1 00S     -0.103000
      6 C24        -1.1040   -0.0340   -0.1680 ca        1 00S     -0.141900
      7 C27        -2.6010    0.0190   -0.1220 ce        1 00S      0.651800
      8 N35        -3.2730   -0.7430   -0.9320 n2        1 00S     -0.827100
      9 N34        -3.1200    0.9740    0.7800 nh        1 00S     -0.959800
     10 C19        -0.3600    1.1460   -0.2680 ca        1 00S     -0.103000
     11 C18         1.0320    1.0890   -0.3120 ca        1 00S     -0.125500
     12 HN23        3.4930    0.6150    1.4940 hn        1 00S      0.351800
     13 H16         3.4930    0.0760   -1.3870 h1        1 00S      0.035700
     14 H16A        3.5060   -1.2900   -0.1890 h1        1 00S      0.035700
     15 H22         1.4480   -2.2970   -0.1270 ha        1 00S      0.142000
     16 H21        -1.0360   -2.2010   -0.0700 ha        1 00S      0.146000
     17 HN35       -4.2680   -0.6850   -0.8760 hn        1 00S      0.381400
     18 HN34       -2.4950    1.2720    1.4920 hn        1 00S      0.398300
     19 HN3A       -4.0550    0.8390    1.0860 hn        1 00S      0.398300
     20 H19        -0.8680    2.1210   -0.3280 ha        1 00S      0.146000
     21 H18         1.6180    2.0180   -0.3950 ha        1 00S      0.142000
     22 H2          4.8420    0.4880    0.5840 hn        1 00S      0.351800
@<TRIPOS>BOND
     1    1    2 1   
     2    1   12 1   
     3    1   22 1   
     4    2    3 1   
     5    2   13 1   
     6    2   14 1   
     7    3    4 ar  
     8    3   11 ar  
     9    4    5 ar  
    10    4   15 1   
    11    5    6 ar  
    12    5   16 1   
    13    6    7 1   
    14    6   10 ar  
    15    7    8 2   
    16    7    9 1   
    17    8   17 1   
    18    9   18 1   
    19    9   19 1   
    20   10   11 ar  
    21   10   20 1   
    22   11   21 1   
@<TRIPOS>SUBSTRUCTURE
     1 00S         1 TEMP              0 ****  ****    0 ROOT
