@<TRIPOS>MOLECULE
00S
   24    24     1     0     0
SMALL
bcc


@<TRIPOS>ATOM
      1 N23         0.0680    0.3320   -0.2090 n4        1 00S     -0.839600
      2 C16         1.4300   -0.2320    0.0430 c3        1 00S      0.154100
      3 C17         1.8330   -0.1580    1.4820 ca        1 00S     -0.137300
      4 C22         2.5250    0.9620    1.9580 ca        1 00S     -0.087500
      5 C21         2.9750    0.9980    3.2800 ca        1 00S     -0.083000
      6 C24         2.7320   -0.0900    4.1250 ca        1 00S     -0.212900
      7 C27         3.1600   -0.0280    5.5450 ce        1 00S      0.565800
      8 N35         2.5950    0.4850    6.5660 n2        1 00S     -0.669100
      9 N34         4.4890   -0.6930    5.7780 n4        1 00S     -0.820600
     10 C19         2.0390   -1.2110    3.6540 ca        1 00S     -0.083000
     11 C18         1.5900   -1.2430    2.3330 ca        1 00S     -0.087500
     12 HN23       -0.6390   -0.1830    0.3270 hn        1 00S      0.469800
     13 H16         1.4240   -1.3080   -0.3080 hx        1 00S      0.130700
     14 H16A        2.1620    0.3470   -0.5980 hx        1 00S      0.130700
     15 H22         2.7380    1.8170    1.2950 ha        1 00S      0.171000
     16 H21         3.5140    1.8900    3.6450 ha        1 00S      0.174500
     17 HN35        1.7090    0.9410    6.4760 hn        1 00S      0.500400
     18 HN34        5.2030   -0.2080    5.2220 hn        1 00S      0.479467
     19 HN3A        4.7610   -0.6640    6.7740 hn        1 00S      0.479467
     20 H19         1.8320   -2.0690    4.3170 ha        1 00S      0.174500
     21 H18         1.0580   -2.1380    1.9670 ha        1 00S      0.171000
     22 H2         -0.1570    0.2590   -1.2100 hn        1 00S      0.469800
     23 H233        0.0310    1.3200    0.0670 hn        1 00S      0.469800
     24 H343        4.4260   -1.6710    5.4740 hn        1 00S      0.479467
@<TRIPOS>BOND
     1    1    2 1   
     2    1   12 1   
     3    1   22 1   
     4    1   23 1   
     5    2    3 1   
     6    2   13 1   
     7    2   14 1   
     8    3    4 ar  
     9    3   11 ar  
    10    4    5 ar  
    11    4   15 1   
    12    5    6 ar  
    13    5   16 1   
    14    6    7 1   
    15    6   10 ar  
    16    7    8 2   
    17    7    9 1   
    18    8   17 1   
    19    9   18 1   
    20    9   19 1   
    21    9   24 1   
    22   10   11 ar  
    23   10   20 1   
    24   11   21 1   
@<TRIPOS>SUBSTRUCTURE
     1 00S         1 TEMP              0 ****  ****    0 ROOT
