@<TRIPOS>MOLECULE
00S
   24    24     1     0     0
SMALL
bcc


@<TRIPOS>ATOM
      1 N23         0.1060    0.3650   -0.2310 n4        1 00S     -0.839600
      2 C16         1.4320   -0.2700    0.0450 c3        1 00S      0.154100
      3 C17         1.8330   -0.1790    1.4830 ca        1 00S     -0.137300
      4 C22         2.6030    0.9020    1.9280 ca        1 00S     -0.087500
      5 C21         3.0490    0.9480    3.2500 ca        1 00S     -0.082500
      6 C24         2.7220   -0.0910    4.1280 ca        1 00S     -0.212900
      7 C27         3.1460   -0.0160    5.5500 ce        1 00S      0.565800
      8 N35         2.5780    0.5050    6.5640 n2        1 00S     -0.669100
      9 N34         4.4760   -0.6770    5.7920 n4        1 00S     -0.820600
     10 C19         1.9500   -1.1730    3.6900 ca        1 00S     -0.082500
     11 C18         1.5070   -1.2150    2.3670 ca        1 00S     -0.087500
     12 HN23       -0.6320   -0.0900    0.3170 hn        1 00S      0.470133
     13 H16         2.1990    0.2460   -0.6090 hx        1 00S      0.130700
     14 H16A        1.3640   -1.3530   -0.2760 hx        1 00S      0.130700
     15 H22         2.8810    1.7180    1.2380 ha        1 00S      0.171000
     16 H21         3.6490    1.8090    3.5900 ha        1 00S      0.174500
     17 HN35        1.6920    0.9590    6.4680 hn        1 00S      0.500400
     18 HN34        4.7550   -0.6200    6.7840 hn        1 00S      0.479467
     19 HN3A        5.1860   -0.2110    5.2160 hn        1 00S      0.479467
     20 H19         1.6790   -1.9920    4.3780 ha        1 00S      0.174500
     21 H18         0.9120   -2.0800    2.0260 ha        1 00S      0.171000
     22 H2          0.1260    1.3610    0.0150 hn        1 00S      0.470133
     23 H233       -0.1200    0.2750   -1.2300 hn        1 00S      0.470133
     24 H343        4.4080   -1.6630    5.5180 hn        1 00S      0.479467
@<TRIPOS>BOND
     1    1    2 1   
     2    1   12 1   
     3    1   22 1   
     4    1   23 1   
     5    2    3 1   
     6    2   13 1   
     7    2   14 1   
     8    3    4 ar  
     9    3   11 ar  
    10    4    5 ar  
    11    4   15 1   
    12    5    6 ar  
    13    5   16 1   
    14    6    7 1   
    15    6   10 ar  
    16    7    8 2   
    17    7    9 1   
    18    8   17 1   
    19    9   18 1   
    20    9   19 1   
    21    9   24 1   
    22   10   11 ar  
    23   10   20 1   
    24   11   21 1   
@<TRIPOS>SUBSTRUCTURE
     1 00S         1 TEMP              0 ****  ****    0 ROOT
