@<TRIPOS>MOLECULE
00S
   22    19     1     0     0
SMALL
bcc


@<TRIPOS>ATOM
      1 N23        -2.3810   -0.1370   -2.8350 n3        1 00S     -0.349000
      2 C16        -0.9260   -0.0260   -2.8050 c3        1 00S     -0.043000
      3 C17        -0.4220   -0.0190   -1.2970 c2        1 00S     -0.072000
      4 C22        -0.5140    1.1130   -0.5590 c2        1 00S     -0.113000
      5 C21        -0.0260    1.1420    0.6990 c1        1 00S     -0.118000
      6 C24         0.5600    0.0300    1.2270 c1        1 00S     -0.114000
      7 C27         1.0720    0.0470    2.7050 c2        1 00S      0.115000
      8 N35         0.2580   -0.2490    3.6810 n1        1 00S     -0.303000
      9 N34         2.5110    0.4030    2.9970 n3        1 00S     -0.331000
     10 C19         0.6540   -1.1190    0.4800 c1        1 00S     -0.098000
     11 C18         0.1710   -1.1450   -0.7610 c1        1 00S     -0.134000
     12 HN23       -2.6100   -0.9510   -3.1050 hn        1 00S      0.149500
     13 H16        -0.5060   -0.8400   -3.3080 h1        1 00S      0.075000
     14 H16A       -0.6700    0.7590   -3.2230 h1        1 00S      0.075000
     15 H22        -0.9720    1.9790   -0.9700 ha        1 00S      0.153000
     16 H21        -0.0900    1.9340    1.2140 ha        1 00S      0.139000
     17 HN35       -0.6280   -0.4700    3.4970 DU        1 00S      0.150000
     18 HN34        2.8090    0.4380    3.8690 hn        1 00S      0.192500
     19 HN3A        3.0530    0.7020    2.3150 hn        1 00S      0.192500
     20 H19         1.1270   -2.0200    0.9070 ha        1 00S      0.149000
     21 H18         0.2440   -2.0310   -1.3340 ha        1 00S      0.135000
     22 H2         -2.7120    0.4600   -3.3920 hn        1 00S      0.149500
@<TRIPOS>BOND
     1    1    2 1   
     2    1   12 1   
     3    1   22 1   
     4    2    3 1   
     5    2   13 1   
     6    2   14 1   
     7    3    4 1   
     8    3   11 1   
     9    4    5 1   
    10    4   15 1   
    11    5   16 1   
    12    6    7 1   
    13    6   10 1   
    14    7    8 1   
    15    7    9 1   
    16    9   18 1   
    17    9   19 1   
    18   10   20 1   
    19   11   21 1   
@<TRIPOS>SUBSTRUCTURE
     1 00S         1 TEMP              0 ****  ****    0 ROOT
