@<TRIPOS>MOLECULE
00S
   24    24     1     0     0
SMALL
bcc


@<TRIPOS>ATOM
      1 N23         0.0330    0.3020   -0.1890 nz        1 00S     -0.839600
      2 C16         1.4070   -0.2390    0.0500 c3        1 00S      0.154100
      3 C17         1.8210   -0.1630    1.4850 ca        1 00S     -0.137300
      4 C22         2.5050    0.9640    1.9580 ca        1 00S     -0.087500
      5 C21         2.9650    1.0040    3.2750 ca        1 00S     -0.082500
      6 C24         2.7410   -0.0890    4.1210 ca        1 00S     -0.212900
      7 C27         3.1800   -0.0240    5.5380 ce        1 00S      0.565800
      8 N35         2.6060    0.4580    6.5690 n2        1 00S     -0.669100
      9 N34         4.5360   -0.6400    5.7520 nz        1 00S     -0.820600
     10 C19         2.0570   -1.2170    3.6550 ca        1 00S     -0.082500
     11 C18         1.5980   -1.2520    2.3370 ca        1 00S     -0.087500
     12 HN23       -0.6600   -0.2250    0.3530 hn        1 00S      0.469800
     13 H16         2.1240    0.3530   -0.5960 hx        1 00S      0.130700
     14 H16A        1.4160   -1.3140   -0.3040 hx        1 00S      0.130700
     15 H22         2.7020    1.8230    1.2940 ha        1 00S      0.171000
     16 H21         3.4960    1.9010    3.6370 ha        1 00S      0.175000
     17 HN35        1.7030    0.8810    6.4920 hn        1 00S      0.500400
     18 HN34        4.8190   -0.6050    6.7440 hn        1 00S      0.479133
     19 HN3A        5.2240   -0.1290    5.1890 hn        1 00S      0.479133
     20 H19         1.8660   -2.0780    4.3180 ha        1 00S      0.175000
     21 H18         1.0730   -2.1520    1.9740 ha        1 00S      0.171000
     22 H2         -0.0180    1.2890    0.0900 hn        1 00S      0.469800
     23 H233       -0.1990    0.2280   -1.1880 hn        1 00S      0.469800
     24 H343        4.5040   -1.6190    5.4470 hn        1 00S      0.479133
@<TRIPOS>BOND
     1    1    2 1   
     2    1   12 1   
     3    1   22 1   
     4    1   23 1   
     5    2    3 1   
     6    2   13 1   
     7    2   14 1   
     8    3    4 ar  
     9    3   11 ar  
    10    4    5 ar  
    11    4   15 1   
    12    5    6 ar  
    13    5   16 1   
    14    6    7 1   
    15    6   10 ar  
    16    7    8 2   
    17    7    9 1   
    18    8   17 1   
    19    9   18 1   
    20    9   19 1   
    21    9   24 1   
    22   10   11 ar  
    23   10   20 1   
    24   11   21 1   
@<TRIPOS>SUBSTRUCTURE
     1 00S         1 TEMP              0 ****  ****    0 ROOT
