@<TRIPOS>MOLECULE
00T
   24    24     1     0     0
SMALL
bcc


@<TRIPOS>ATOM
      1 N19        -0.2260    0.7560    0.0730 n4        1 00T     -0.841600
      2 C10         1.0900    0.0450   -0.0290 c3        1 00T      0.161100
      3 C6          1.7630   -0.0830    1.3040 ca        1 00T     -0.120300
      4 C5          2.0670   -1.3040    1.9280 ca        1 00T     -0.152300
      5 C32         1.8130   -2.6530    1.3330 c3        1 00T      0.165100
      6 N33         3.0850   -3.4160    1.1150 n4        1 00T     -0.842600
      7 C4          2.6360   -1.2860    3.2130 ca        1 00T     -0.103000
      8 C3          2.9530   -0.0930    3.8540 ca        1 00T     -0.069000
      9 C2          2.7060    1.1260    3.2050 ca        1 00T      0.062400
     10 CL1         3.1110    2.5790    3.9370 cl        1 00T      0.043600
     11 C7          2.1100    1.1190    1.9360 ca        1 00T     -0.130000
     12 HN19       -0.0990    1.6740    0.5200 hn        1 00T      0.473467
     13 H10         1.7470    0.6540   -0.7240 hx        1 00T      0.117200
     14 H10A        0.8880   -0.9480   -0.5170 hx        1 00T      0.117200
     15 H32         1.2860   -2.6060    0.3400 hx        1 00T      0.115700
     16 H32A        1.1750   -3.2640    2.0430 hx        1 00T      0.115700
     17 HN33        3.6100   -3.4880    1.9960 hn        1 00T      0.472467
     18 HN3A        2.8720   -4.3640    0.7770 hn        1 00T      0.472467
     19 H4          2.8230   -2.2330    3.7500 ha        1 00T      0.158000
     20 H3          3.3980   -0.1060    4.8670 ha        1 00T      0.203000
     21 H7          1.9410    2.0850    1.4290 ha        1 00T      0.164000
     22 H2         -0.6220    0.8960   -0.8650 hn        1 00T      0.473467
     23 H193       -0.8890    0.2140    0.6390 hn        1 00T      0.473467
     24 H333        3.6800   -2.9430    0.4260 hn        1 00T      0.472467
@<TRIPOS>BOND
     1    1    2 1   
     2    1   12 1   
     3    1   22 1   
     4    1   23 1   
     5    2    3 1   
     6    2   13 1   
     7    2   14 1   
     8    3    4 ar  
     9    3   11 ar  
    10    4    5 1   
    11    4    7 ar  
    12    5    6 1   
    13    5   15 1   
    14    5   16 1   
    15    6   17 1   
    16    6   18 1   
    17    6   24 1   
    18    7    8 ar  
    19    7   19 1   
    20    8    9 ar  
    21    8   20 1   
    22    9   10 1   
    23    9   11 ar  
    24   11   21 1   
@<TRIPOS>SUBSTRUCTURE
     1 00T         1 TEMP              0 ****  ****    0 ROOT
