@<TRIPOS>MOLECULE
00T
   22    22     1     0     0
SMALL
bcc


@<TRIPOS>ATOM
      1 N19        -2.0740   -2.4100   -0.7440 n3        1 00T     -0.913800
      2 C10        -1.6410   -1.6970    0.4380 c3        1 00T      0.193100
      3 C6         -0.6620   -0.5970    0.1330 ca        1 00T     -0.052300
      4 C5         -1.0800    0.6960   -0.2080 ca        1 00T     -0.060300
      5 C32        -2.5340    1.0540   -0.3420 c3        1 00T      0.194100
      6 N33        -3.1380    1.4440    0.9130 n3        1 00T     -0.913800
      7 C4         -0.1220    1.6890   -0.4470 ca        1 00T     -0.124000
      8 C3          1.2380    1.4070   -0.3660 ca        1 00T     -0.124000
      9 C2          1.6480    0.1120   -0.0380 ca        1 00T      0.018400
     10 CL1         3.3070   -0.2510    0.0600 cl        1 00T     -0.097400
     11 C7          0.7050   -0.8870    0.2100 ca        1 00T     -0.128000
     12 HN19       -1.2930   -2.6990   -1.2980 hn        1 00T      0.350300
     13 H10        -2.5600   -1.2600    0.9270 h1        1 00T      0.045700
     14 H10A       -1.1620   -2.3830    1.2020 h1        1 00T      0.045700
     15 H32        -2.6180    1.8650   -1.1290 h1        1 00T      0.044700
     16 H32A       -3.1070    0.1630   -0.7320 h1        1 00T      0.044700
     17 HN33       -2.5870    2.1360    1.3800 hn        1 00T      0.350300
     18 HN3A       -4.0570    1.8070    0.7530 hn        1 00T      0.350300
     19 H4         -0.4480    2.7070   -0.7100 ha        1 00T      0.135000
     20 H3          1.9810    2.1960   -0.5600 ha        1 00T      0.147000
     21 H7          1.0340   -1.9050    0.4720 ha        1 00T      0.144000
     22 H2         -2.6090   -3.2140   -0.4820 hn        1 00T      0.350300
@<TRIPOS>BOND
     1    1    2 1   
     2    1   12 1   
     3    1   22 1   
     4    2    3 1   
     5    2   13 1   
     6    2   14 1   
     7    3    4 ar  
     8    3   11 ar  
     9    4    5 1   
    10    4    7 ar  
    11    5    6 1   
    12    5   15 1   
    13    5   16 1   
    14    6   17 1   
    15    6   18 1   
    16    7    8 ar  
    17    7   19 1   
    18    8    9 ar  
    19    8   20 1   
    20    9   10 1   
    21    9   11 ar  
    22   11   21 1   
@<TRIPOS>SUBSTRUCTURE
     1 00T         1 TEMP              0 ****  ****    0 ROOT
