@<TRIPOS>MOLECULE
00T
   22    20     1     0     0
SMALL
bcc


@<TRIPOS>ATOM
      1 N19        -0.3250   -1.5940   -2.4540 n3        1 00T     -0.332000
      2 C10        -0.9110   -0.5660   -1.6750 c3        1 00T     -0.051000
      3 C6         -0.3010   -0.5890   -0.2500 c2        1 00T     -0.117000
      4 C5          0.0680    0.6020    0.3630 c1        1 00T     -0.066000
      5 C32        -0.0470    1.9130   -0.3980 c2        1 00T     -0.043000
      6 N33         0.7550    2.9140    0.2430 n3        1 00T     -0.351000
      7 C4          0.5340    0.5960    1.6810 c2        1 00T     -0.108000
      8 C3          0.6290   -0.6060    2.3820 c1        1 00T     -0.124000
      9 C2          0.2590   -1.8000    1.7660 c1        1 00T     -0.063000
     10 CL1         0.4900   -3.3260    2.5970 cl        1 00T     -0.016000
     11 C7         -0.2060   -1.7910    0.4490 c2        1 00T     -0.121000
     12 HN19       -0.9900   -2.1300   -2.8080 hn        1 00T      0.143000
     13 H10        -1.8710   -0.7110   -1.6190 h1        1 00T      0.100500
     14 H10A       -0.7360    0.3010   -2.0930 h1        1 00T      0.100500
     15 H32         0.2710    1.7800   -1.3330 h4        1 00T      0.077500
     16 H32A       -0.9700    2.1990   -0.4090 h4        1 00T      0.077500
     17 HN33        1.5370    3.0040   -0.2030 hn        1 00T      0.150000
     18 HN3A        0.3040    3.7200    0.2390 hn        1 00T      0.150000
     19 H4          0.7920    1.4330    2.1100 ha        1 00T      0.156000
     20 H3          0.9610   -0.6100    3.3180 ha        1 00T      0.148000
     21 H7         -0.4710   -2.6380    0.0130 ha        1 00T      0.146000
     22 H2          0.2270   -2.1020   -1.9220 hn        1 00T      0.143000
@<TRIPOS>BOND
     1    1    2 1   
     2    1   12 1   
     3    1   22 1   
     4    2    3 1   
     5    2   13 1   
     6    2   14 1   
     7    3    4 1   
     8    3   11 1   
     9    4    7 1   
    10    5    6 1   
    11    5   15 1   
    12    5   16 1   
    13    6   17 1   
    14    6   18 1   
    15    7    8 1   
    16    7   19 1   
    17    8   20 1   
    18    9   10 1   
    19    9   11 1   
    20   11   21 1   
@<TRIPOS>SUBSTRUCTURE
     1 00T         1 TEMP              0 ****  ****    0 ROOT
