@<TRIPOS>MOLECULE
00T
   24    24     1     0     0
SMALL
bcc


@<TRIPOS>ATOM
      1 N19        -0.2210    0.7500    0.0590 nz        1 00T     -0.841600
      2 C10         1.0950    0.0380   -0.0350 c3        1 00T      0.161100
      3 C6          1.7640   -0.0840    1.3000 ca        1 00T     -0.120300
      4 C5          2.0650   -1.3020    1.9320 ca        1 00T     -0.152300
      5 C32         1.8130   -2.6540    1.3430 c3        1 00T      0.165100
      6 N33         3.0850   -3.4190    1.1330 nz        1 00T     -0.842600
      7 C4          2.6310   -1.2770    3.2180 ca        1 00T     -0.103000
      8 C3          2.9470   -0.0810    3.8540 ca        1 00T     -0.069000
      9 C2          2.7020    1.1340    3.1970 ca        1 00T      0.062400
     10 Cl1         3.1070    2.5910    3.9220 cl        1 00T      0.043600
     11 C7          2.1100    1.1210    1.9270 ca        1 00T     -0.130000
     12 HN19       -0.0950    1.6700    0.5020 hn        1 00T      0.473467
     13 H10         1.7540    0.6420   -0.7310 hx        1 00T      0.117200
     14 H10A        0.8940   -0.9580   -0.5190 hx        1 00T      0.117200
     15 H32         1.2880   -2.6120    0.3480 hx        1 00T      0.115700
     16 H32A        1.1720   -3.2600    2.0550 hx        1 00T      0.115700
     17 HN33        3.6070   -3.4860    2.0160 hn        1 00T      0.472467
     18 HN3A        2.8710   -4.3680    0.8000 hn        1 00T      0.472467
     19 H4          2.8160   -2.2210    3.7600 ha        1 00T      0.158000
     20 H3          3.3890   -0.0890    4.8680 ha        1 00T      0.203000
     21 H7          1.9430    2.0850    1.4130 ha        1 00T      0.164000
     22 H2         -0.6140    0.8840   -0.8810 hn        1 00T      0.473467
     23 H193       -0.8860    0.2110    0.6250 hn        1 00T      0.473467
     24 H333        3.6820   -2.9500    0.4430 hn        1 00T      0.472467
@<TRIPOS>BOND
     1    1    2 1   
     2    1   12 1   
     3    1   22 1   
     4    1   23 1   
     5    2    3 1   
     6    2   13 1   
     7    2   14 1   
     8    3    4 ar  
     9    3   11 ar  
    10    4    5 1   
    11    4    7 ar  
    12    5    6 1   
    13    5   15 1   
    14    5   16 1   
    15    6   17 1   
    16    6   18 1   
    17    6   24 1   
    18    7    8 ar  
    19    7   19 1   
    20    8    9 ar  
    21    8   20 1   
    22    9   10 1   
    23    9   11 ar  
    24   11   21 1   
@<TRIPOS>SUBSTRUCTURE
     1 00T         1 TEMP              0 ****  ****    0 ROOT
