@<TRIPOS>MOLECULE
00T
   24    24     1     0     0
SMALL
bcc


@<TRIPOS>ATOM
      1 N19        -0.1580    0.8000    0.0240 n4        1 00T     -0.841600
      2 C10         1.1420    0.0590   -0.0470 c3        1 00T      0.161100
      3 C6          1.7830   -0.0810    1.3000 ca        1 00T     -0.120300
      4 C5          2.0440   -1.3070    1.9340 ca        1 00T     -0.152300
      5 C32         1.7730   -2.6510    1.3360 c3        1 00T      0.165100
      6 N33         3.0310   -3.4460    1.1490 n4        1 00T     -0.842600
      7 C4          2.5860   -1.2980    3.2310 ca        1 00T     -0.103000
      8 C3          2.9160   -0.1110    3.8750 ca        1 00T     -0.069000
      9 C2          2.7120    1.1110    3.2180 ca        1 00T      0.062400
     10 CL1         3.1350    2.5570    3.9550 cl        1 00T      0.043600
     11 C7          2.1440    1.1140    1.9370 ca        1 00T     -0.130000
     12 HN19       -0.8460    0.2750    0.5760 hn        1 00T      0.473467
     13 H10         1.8290    0.6500   -0.7290 hx        1 00T      0.117200
     14 H10A        0.9290   -0.9310   -0.5380 hx        1 00T      0.117200
     15 H32         1.1040   -3.2450    2.0340 hx        1 00T      0.115700
     16 H32A        1.2690   -2.5950    0.3320 hx        1 00T      0.115700
     17 HN33        3.5330   -3.5270    2.0430 hn        1 00T      0.472467
     18 HN3A        2.8020   -4.3880    0.8090 hn        1 00T      0.472467
     19 H4          2.7390   -2.2480    3.7740 ha        1 00T      0.158000
     20 H3          3.3390   -0.1310    4.8980 ha        1 00T      0.203000
     21 H7          2.0090    2.0830    1.4230 ha        1 00T      0.164000
     22 H2         -0.0200    1.7160    0.4710 hn        1 00T      0.473467
     23 H193       -0.5300    0.9460   -0.9230 hn        1 00T      0.473467
     24 H333        3.6520   -2.9880    0.4730 hn        1 00T      0.472467
@<TRIPOS>BOND
     1    1    2 1   
     2    1   12 1   
     3    1   22 1   
     4    1   23 1   
     5    2    3 1   
     6    2   13 1   
     7    2   14 1   
     8    3    4 ar  
     9    3   11 ar  
    10    4    5 1   
    11    4    7 ar  
    12    5    6 1   
    13    5   15 1   
    14    5   16 1   
    15    6   17 1   
    16    6   18 1   
    17    6   24 1   
    18    7    8 ar  
    19    7   19 1   
    20    8    9 ar  
    21    8   20 1   
    22    9   10 1   
    23    9   11 ar  
    24   11   21 1   
@<TRIPOS>SUBSTRUCTURE
     1 00T         1 TEMP              0 ****  ****    0 ROOT
