@<TRIPOS>MOLECULE
00U
   39    41     1     0     0
SMALL
bcc


@<TRIPOS>ATOM
      1 C1          2.8840    0.7190    0.3670 c3        1 00U     -0.059300
      2 N1          2.3030   -1.5380   -0.0480 n3        1 00U     -0.451600
      3 O1          0.2250    1.3600   -0.2100 o         1 00U     -0.653500
      4 C2          3.5980   -0.1170    1.4490 c3        1 00U     -0.104400
      5 N2          1.9200   -0.2140   -0.2850 n         1 00U     -0.229200
      6 C3          3.2290   -1.5680    1.1200 c3        1 00U      0.123800
      7 N3         -1.2860   -0.4650   -1.8590 n3        1 00U     -0.889800
      8 C4          1.2040   -2.5030    0.1040 c3        1 00U      0.129800
      9 C5          0.1080   -2.2640   -0.9230 c3        1 00U     -0.071400
     10 C6         -0.5370   -0.8830   -0.6780 c3        1 00U      0.123200
     11 C7          0.5710    0.1650   -0.3240 c         1 00U      0.608500
     12 C8          3.9090    1.3570   -0.6410 c         1 00U      0.935600
     13 C9         -1.4390   -0.9940    0.5860 c3        1 00U     -0.024100
     14 C10        -2.7370   -0.2670    0.5330 ca        1 00U     -0.060300
     15 C11        -2.7750    1.1340    0.5450 ca        1 00U     -0.124500
     16 C12        -3.9970    1.8030    0.5430 ca        1 00U     -0.138000
     17 C13        -5.1930    1.0850    0.5280 ca        1 00U     -0.143000
     18 C14        -5.1620   -0.3080    0.5100 ca        1 00U     -0.138000
     19 C15        -3.9410   -0.9820    0.5110 ca        1 00U     -0.124500
     20 H1          2.3150    1.5770    0.8190 h1        1 00U      0.068700
     21 H2          4.7030    0.0540    1.3830 hc        1 00U      0.063700
     22 H2A         3.2470    0.1600    2.4710 hc        1 00U      0.063700
     23 H3          2.7870   -2.0880    2.0130 h1        1 00U      0.035200
     24 H3A         4.1270   -2.1460    0.7780 h1        1 00U      0.035200
     25 HN3        -1.7060    0.4300   -1.6800 hn        1 00U      0.361800
     26 HN3A       -0.6540   -0.3720   -2.6320 hn        1 00U      0.361800
     27 H4          1.6690   -3.5130   -0.0610 h1        1 00U      0.031200
     28 H4A         0.7470   -2.4980    1.1380 h1        1 00U      0.031200
     29 H5          0.5450   -2.3120   -1.9560 hc        1 00U      0.057200
     30 H5A        -0.6640   -3.0700   -0.8460 hc        1 00U      0.057200
     31 H9         -1.6450   -2.0820    0.7790 hc        1 00U      0.048700
     32 H9A        -0.8540   -0.6080    1.4650 hc        1 00U      0.048700
     33 H11        -1.8260    1.7010    0.5420 ha        1 00U      0.150500
     34 H12        -4.0150    2.9030    0.5500 ha        1 00U      0.122000
     35 H13        -6.1550    1.6150    0.5270 ha        1 00U      0.118000
     36 H14        -6.1010   -0.8790    0.4900 ha        1 00U      0.122000
     37 H15        -3.9250   -2.0810    0.4860 ha        1 00U      0.150500
     38 OXT         5.0990    1.4580   -0.2290 o         1 00U     -0.819300
     39 O2          3.4870    1.7820   -1.7430 o         1 00U     -0.819300
@<TRIPOS>BOND
     1    1    4 1   
     2    1    5 1   
     3    1   12 1   
     4    1   20 1   
     5    2    5 1   
     6    2    6 1   
     7    2    8 1   
     8    3   11 2   
     9    4    6 1   
    10    4   21 1   
    11    4   22 1   
    12    5   11 1   
    13    6   23 1   
    14    6   24 1   
    15    7   10 1   
    16    7   25 1   
    17    7   26 1   
    18    8    9 1   
    19    8   27 1   
    20    8   28 1   
    21    9   10 1   
    22    9   29 1   
    23    9   30 1   
    24   10   11 1   
    25   10   13 1   
    26   12   38 1   
    27   12   39 1   
    28   13   14 1   
    29   13   31 1   
    30   13   32 1   
    31   14   15 ar  
    32   14   19 ar  
    33   15   16 ar  
    34   15   33 1   
    35   16   17 ar  
    36   16   34 1   
    37   17   18 ar  
    38   17   35 1   
    39   18   19 ar  
    40   18   36 1   
    41   19   37 1   
@<TRIPOS>SUBSTRUCTURE
     1 00U         1 TEMP              0 ****  ****    0 ROOT
