@<TRIPOS>MOLECULE
00U
   39    39     1     0     0
SMALL
bcc


@<TRIPOS>ATOM
      1 C1          2.0710   -2.0580   -2.9220 c3        1 00U     -0.102000
      2 N1          1.8040   -0.9890   -1.0970 n3        1 00U     -0.128000
      3 O1         -0.8720   -0.7500   -1.9260 o         1 00U     -0.349000
      4 C2          2.7630   -1.5680   -2.9620 c3        1 00U     -0.165000
      5 N2          1.2850   -1.4380   -1.4660 n         1 00U     -0.201000
      6 O2          3.2440   -4.2030   -1.8590 o         1 00U     -0.563000
      7 C3          3.0110   -1.2130   -1.6980 c3        1 00U     -0.098000
      8 N3          0.2990    1.0320    1.1610 n3        1 00U     -0.339000
      9 C4          1.6670   -0.9280    0.7850 c3        1 00U     -0.114000
     10 C5          0.0490   -0.7090    1.3500 c3        1 00U     -0.176000
     11 C6         -0.2370   -0.3090    1.0220 c3        1 00U      0.017000
     12 C7         -0.0820   -1.1100   -1.0850 c2        1 00U      0.295000
     13 C8          2.4760   -3.7980   -2.7890 c2        1 00U      0.325000
     14 C9         -2.0730   -0.0830    1.5810 c3        1 00U     -0.118000
     15 C10        -2.4460    1.4310    1.5490 c2        1 00U     -0.057000
     16 C11        -2.1300    2.2440    2.6260 c2        1 00U     -0.128000
     17 C12        -2.5860    3.5720    2.6630 c1        1 00U     -0.152000
     18 C13        -3.3490    4.0670    1.6260 c1        1 00U     -0.148000
     19 C14        -3.6680    3.2520    0.5430 c1        1 00U     -0.144000
     20 C15        -3.2150    1.9320    0.5050 c2        1 00U     -0.101000
     21 H1          1.5160   -2.0360   -3.7210 h1        1 00U      0.118000
     22 H2          2.5020   -0.7400   -3.4470 hc        1 00U      0.094000
     23 H2A         3.4950   -2.1380   -3.2420 hc        1 00U      0.094000
     24 H3          3.4830   -1.9330   -1.2390 h1        1 00U      0.075000
     25 H3A         3.5560   -0.3860   -1.6790 h1        1 00U      0.075000
     26 HN3         0.6930    1.2920    0.3580 hn        1 00U      0.150500
     27 HN3A        0.9250    1.0440    1.8260 hn        1 00U      0.150500
     28 H4          2.2130   -0.1920    1.1140 h1        1 00U      0.070500
     29 H4A         2.0170   -1.7680    1.1510 h1        1 00U      0.070500
     30 H5          0.1280   -0.3190    2.2370 hc        1 00U      0.115000
     31 H5A        -0.4100   -1.5650    1.1910 hc        1 00U      0.115000
     32 H9         -2.1830   -0.4300    2.4980 hc        1 00U      0.114500
     33 H9A        -2.6660   -0.5790    0.9680 hc        1 00U      0.114500
     34 H11        -1.5900    1.8930    3.3600 ha        1 00U      0.132000
     35 H12        -2.3280    4.1630    3.4110 ha        1 00U      0.113000
     36 H13        -3.6680    4.9970    1.6520 ha        1 00U      0.112000
     37 H14        -4.2090    3.6040   -0.1910 DU        1 00U      0.121000
     38 H15        -3.4330    1.3590   -0.2620 ha        1 00U      0.173000
     39 OXT         1.9460   -4.6390   -3.5900 o         1 00U     -0.563000
@<TRIPOS>BOND
     1    1    4 1   
     2    1    5 1   
     3    1   13 1   
     4    1   21 1   
     5    2    5 1   
     6    2    7 1   
     7    2    9 1   
     8    3   12 1   
     9    4    7 1   
    10    4   22 1   
    11    4   23 1   
    12    5   12 1   
    13    6   13 1   
    14    7   24 1   
    15    7   25 1   
    16    8   11 1   
    17    8   26 1   
    18    8   27 1   
    19    9   10 1   
    20    9   28 1   
    21    9   29 1   
    22   10   11 1   
    23   10   30 1   
    24   10   31 1   
    25   11   12 1   
    26   11   14 1   
    27   13   39 1   
    28   14   15 1   
    29   14   32 1   
    30   14   33 1   
    31   15   16 1   
    32   15   20 1   
    33   16   17 1   
    34   16   34 1   
    35   17   35 1   
    36   18   19 1   
    37   18   36 1   
    38   19   20 1   
    39   20   38 1   
@<TRIPOS>SUBSTRUCTURE
     1 00U         1 TEMP              0 ****  ****    0 ROOT
