@<TRIPOS>MOLECULE
00V
   27    26     1     0     0
SMALL
bcc


@<TRIPOS>ATOM
      1 C           1.7180    0.5170    0.4710 c3        1 00V     -0.016900
      2 N           0.7060   -1.7610    0.0660 n3        1 00V     -0.903800
      3 O           1.5290    1.8730    0.1040 oh        1 00V     -0.642800
      4 CA          0.5530   -0.3260   -0.1130 c3        1 00V      0.153500
      5 CB         -0.7630    0.2000    0.4770 c3        1 00V     -0.071400
      6 CD         -3.2490    0.2810    0.2680 c3        1 00V     -0.085400
      7 CE         -4.4560   -0.2750   -0.4840 c3        1 00V      0.151800
      8 CG         -1.9730   -0.3620   -0.2350 c3        1 00V     -0.073400
      9 CX          3.0910   -0.0150   -0.0110 c         1 00V      0.889600
     10 OX          3.7430    0.7290   -0.7990 o         1 00V     -0.835800
     11 NZ         -5.7200    0.2990   -0.0790 n3        1 00V     -0.916800
     12 HN          1.5770   -2.0450   -0.3560 hn        1 00V      0.351300
     13 HO          2.2060    2.0830   -0.5610 ho        1 00V      0.425000
     14 HA          0.5330   -0.1340   -1.2270 h1        1 00V      0.049700
     15 HB         -0.8180   -0.0440    1.5700 hc        1 00V      0.040200
     16 HD         -3.1890    1.3930    0.1290 hc        1 00V      0.039200
     17 HDA        -3.3620    0.0880    1.3670 hc        1 00V      0.039200
     18 HE         -4.2660   -0.1420   -1.5910 h1        1 00V      0.025200
     19 HG         -1.8720   -0.1850   -1.3380 hc        1 00V      0.043200
     20 HNZ        -5.6270    1.2800    0.0990 hn        1 00V      0.338300
     21 H40         1.6780    0.4880    1.5930 h1        1 00V      0.037700
     22 H41        -0.7500    1.3180    0.3820 hc        1 00V      0.040200
     23 H42        -4.5220   -1.3850   -0.2950 h1        1 00V      0.025200
     24 H43        -2.0250   -1.4720   -0.0820 hc        1 00V      0.043200
     25 H44        -6.4040    0.1670   -0.7980 hn        1 00V      0.338300
     26 H2          0.7820   -1.9620    1.0470 hn        1 00V      0.351300
     27 OXT         3.4800   -1.1410    0.4050 o         1 00V     -0.835800
@<TRIPOS>BOND
     1    1    3 1   
     2    1    4 1   
     3    1    9 1   
     4    1   21 1   
     5    2    4 1   
     6    2   12 1   
     7    2   26 1   
     8    3   13 1   
     9    4    5 1   
    10    4   14 1   
    11    5    8 1   
    12    5   15 1   
    13    5   22 1   
    14    6    7 1   
    15    6    8 1   
    16    6   16 1   
    17    6   17 1   
    18    7   11 1   
    19    7   18 1   
    20    7   23 1   
    21    8   19 1   
    22    8   24 1   
    23    9   10 1   
    24    9   27 1   
    25   11   20 1   
    26   11   25 1   
@<TRIPOS>SUBSTRUCTURE
     1 00V         1 TEMP              0 ****  ****    0 ROOT
