@<TRIPOS>MOLECULE
00V
   27    26     1     0     0
SMALL
bcc


@<TRIPOS>ATOM
      1 C           2.5730    0.8530   -0.7170 c3        1 00V     -0.016900
      2 N           0.7860    0.6690   -2.3030 n3        1 00V     -0.903800
      3 O           2.8620    1.4160    0.5410 oh        1 00V     -0.642800
      4 CA          1.0770    0.8050   -0.9160 c3        1 00V      0.153500
      5 CB          0.5070   -0.3760   -0.1630 c3        1 00V     -0.071400
      6 CD         -1.4600   -1.2180    1.0710 c3        1 00V     -0.085400
      7 CE         -2.8960   -0.9300    1.4520 c3        1 00V      0.151800
      8 CG         -0.9190   -0.0740    0.2430 c3        1 00V     -0.073400
      9 CX          3.1990    1.7000   -1.8030 c         1 00V      0.889600
     10 OX          3.0660    2.9520   -1.7810 o         1 00V     -0.835800
     11 NZ         -3.3280   -1.8760    2.4280 n3        1 00V     -0.916800
     12 HN          0.2080    1.3310   -2.5600 hn        1 00V      0.351300
     13 HO          3.7150    1.2690    0.7430 ho        1 00V      0.425000
     14 HA          0.6770    1.6300   -0.5790 h1        1 00V      0.049700
     15 HB          1.0450   -0.5440    0.6360 hc        1 00V      0.040200
     16 HD         -0.9220   -1.3180    1.8810 hc        1 00V      0.039200
     17 HDA        -1.4210   -2.0450    0.5490 hc        1 00V      0.039200
     18 HE         -2.9610   -0.0250    1.8220 h1        1 00V      0.025200
     19 HG         -1.4690    0.0390   -0.5570 hc        1 00V      0.043200
     20 HNZ        -4.0330   -2.3580    2.0960 hn        1 00V      0.338300
     21 H40         2.9380   -0.0530   -0.7600 h1        1 00V      0.037700
     22 H41         0.5210   -1.1670   -0.7380 hc        1 00V      0.040200
     23 H42        -3.4650   -0.9990    0.6570 h1        1 00V      0.025200
     24 H43        -0.9400    0.7490    0.7720 hc        1 00V      0.043200
     25 H44        -3.5910   -1.4330    3.1860 hn        1 00V      0.338300
     26 H2          0.4020   -0.1480   -2.4550 hn        1 00V      0.351300
     27 OXT         3.8290    1.1510   -2.7450 o         1 00V     -0.835800
@<TRIPOS>BOND
     1    1    3 1   
     2    1    4 1   
     3    1    9 1   
     4    1   21 1   
     5    2    4 1   
     6    2   12 1   
     7    2   26 1   
     8    3   13 1   
     9    4    5 1   
    10    4   14 1   
    11    5    8 1   
    12    5   15 1   
    13    5   22 1   
    14    6    7 1   
    15    6    8 1   
    16    6   16 1   
    17    6   17 1   
    18    7   11 1   
    19    7   18 1   
    20    7   23 1   
    21    8   19 1   
    22    8   24 1   
    23    9   10 1   
    24    9   27 1   
    25   11   20 1   
    26   11   25 1   
@<TRIPOS>SUBSTRUCTURE
     1 00V         1 TEMP              0 ****  ****    0 ROOT
