@<TRIPOS>MOLECULE
00W
   29    28     1     0     0
SMALL
bcc


@<TRIPOS>ATOM
      1 C           2.5820    0.5840    0.4000 c3        1 00W     -0.016900
      2 N           1.5690   -1.7270    0.3230 n3        1 00W     -0.905800
      3 O           2.4200    1.8630   -0.1880 oh        1 00W     -0.641800
      4 CA          1.4330   -0.3380   -0.0860 c3        1 00W      0.152500
      5 CB          0.1000    0.2750    0.3670 c3        1 00W     -0.070400
      6 NE         -3.5470   -0.3140   -0.4890 nh        1 00W     -0.797200
      7 CG         -1.0810   -0.3900   -0.3030 c3        1 00W     -0.084400
      8 CZ         -4.8410    0.0860   -0.0250 c2        1 00W      0.741100
      9 CX          3.9670   -0.0250    0.0630 c         1 00W      0.889600
     10 NH1        -4.9850    1.0870    0.8120 n2        1 00W     -0.869100
     11 NH2        -5.9420   -0.6830   -0.5560 nh        1 00W     -0.933800
     12 HN          2.4460   -2.0790   -0.0300 hn        1 00W      0.352300
     13 HA          1.4530   -0.3240   -1.2160 h1        1 00W      0.050700
     14 HB          0.0000    0.1970    1.4810 hc        1 00W      0.044200
     15 HBA         0.1230    1.3660    0.1060 hc        1 00W      0.044200
     16 HD         -2.3610    1.3700   -0.1450 h1        1 00W      0.051200
     17 HDA        -2.4450    0.2290    1.2680 h1        1 00W      0.051200
     18 HNE        -3.4620   -1.3110   -0.5590 hn        1 00W      0.389800
     19 HG         -0.9700   -0.3140   -1.4170 hc        1 00W      0.047200
     20 HGA        -1.1010   -1.4810   -0.0420 hc        1 00W      0.047200
     21 HNH1       -5.9280    1.3530    0.9940 hn        1 00W      0.377400
     22 HNH2       -5.7100   -1.2580   -1.3370 hn        1 00W      0.378300
     23 HNHA       -6.7420   -0.1200   -0.7530 hn        1 00W      0.378300
     24 H41         2.5000    0.7360    1.5100 h1        1 00W      0.038700
     25 H42         3.1240    1.9610   -0.8510 ho        1 00W      0.426000
     26 H2          1.6260   -1.7680    1.3250 hn        1 00W      0.352300
     27 OXT         4.3270   -1.0720    0.6690 o         1 00W     -0.835300
     28 OX          4.6550    0.5800   -0.8080 o         1 00W     -0.835300
     29 CD         -2.3820    0.2810    0.1420 c3        1 00W      0.179800
@<TRIPOS>BOND
     1    1    3 1   
     2    1    4 1   
     3    1    9 1   
     4    1   24 1   
     5    2    4 1   
     6    2   12 1   
     7    2   26 1   
     8    3   25 1   
     9    4    5 1   
    10    4   13 1   
    11    5    7 1   
    12    5   14 1   
    13    5   15 1   
    14    6    8 1   
    15    6   18 1   
    16    6   29 1   
    17    7   19 1   
    18    7   20 1   
    19    7   29 1   
    20    8   10 2   
    21    8   11 1   
    22    9   27 1   
    23    9   28 1   
    24   10   21 1   
    25   11   22 1   
    26   11   23 1   
    27   16   29 1   
    28   17   29 1   
@<TRIPOS>SUBSTRUCTURE
     1 00W         1 TEMP              0 ****  ****    0 ROOT
