@<TRIPOS>MOLECULE
00W
   29    27     1     0     0
SMALL
bcc


@<TRIPOS>ATOM
      1 C           2.6430    1.7930    0.1970 c3        1 00W     -0.017900
      2 N           0.5500    2.8990   -0.1500 n3        1 00W     -0.905800
      3 O           3.2340    0.9970    1.1580 oh        1 00W     -0.643800
      4 CA          1.1290    1.7180    0.3410 c3        1 00W      0.154500
      5 CB          0.6030    0.5310   -0.4520 c3        1 00W     -0.072400
      6 CD         -1.1480   -1.2240   -0.5350 c3        1 00W      0.176800
      7 NE         -2.0960   -1.9710    0.2670 nh        1 00W     -0.777000
      8 CG         -0.4700   -0.1610    0.3390 c3        1 00W     -0.086400
      9 CZ         -2.8600   -3.0380   -0.3270 c2        1 00W      0.320000
     10 OX          3.5470    3.9060   -0.6210 o         1 00W     -0.833800
     11 CX          3.1070    3.2480    0.3800 c         1 00W      0.890600
     12 NH1        -3.7030   -2.7800   -1.2940 n1        1 00W     -0.361000
     13 NH2        -2.6990   -4.3850    0.1420 nh        1 00W     -0.817600
     14 HN          0.0510    2.7070   -0.8960 hn        1 00W      0.353800
     15 HA          0.8940    1.6080    1.2940 h1        1 00W      0.050700
     16 HB          0.2350    0.8420   -1.2940 hc        1 00W      0.044200
     17 HBA         1.3320   -0.0930   -0.6250 hc        1 00W      0.044200
     18 HD         -0.4650   -1.8400   -0.8960 h1        1 00W      0.039200
     19 HDA        -1.6170   -0.7880   -1.2730 h1        1 00W      0.039200
     20 HNE        -2.1850   -1.7860    1.1710 hn        1 00W      0.402800
     21 HG         -1.1310    0.4910    0.6260 hc        1 00W      0.050200
     22 HGA        -0.0690   -0.5920    1.1270 hc        1 00W      0.050200
     23 HNH1       -3.8070   -1.9210   -1.5940 DU        1 00W      0.151000
     24 HNH2       -2.1700   -4.5540    0.8550 hn        1 00W      0.381300
     25 HNHA       -3.0940   -5.0800   -0.3140 hn        1 00W      0.381300
     26 H41         2.9040    1.4760   -0.6970 h1        1 00W      0.038700
     27 H42         4.1080    0.9870    1.0350 ho        1 00W      0.427000
     28 H2          0.0090    3.2620    0.4920 hn        1 00W      0.353800
     29 OXT         3.1710    3.7490    1.5420 o         1 00W     -0.833800
@<TRIPOS>BOND
     1    1    3 1   
     2    1    4 1   
     3    1   11 1   
     4    1   26 1   
     5    2    4 1   
     6    2   14 1   
     7    2   28 1   
     8    3   27 1   
     9    4    5 1   
    10    4   15 1   
    11    5    8 1   
    12    5   16 1   
    13    5   17 1   
    14    6    7 1   
    15    6    8 1   
    16    6   18 1   
    17    6   19 1   
    18    7    9 1   
    19    7   20 1   
    20    8   21 1   
    21    8   22 1   
    22    9   12 2   
    23    9   13 1   
    24   10   11 1   
    25   11   29 1   
    26   13   24 1   
    27   13   25 1   
@<TRIPOS>SUBSTRUCTURE
     1 00W         1 TEMP              0 ****  ****    0 ROOT
