@<TRIPOS>MOLECULE
00X
   23    24     1     0     0
SMALL
bcc


@<TRIPOS>ATOM
      1 N30        -0.1490   -0.3470    0.1870 nz        1 00X     -0.826600
      2 O30         1.2430   -1.9970   -1.3170 oh        1 00X     -0.636800
      3 C31         1.3140   -0.0160    0.0890 c3        1 00X      0.183800
      4 C32         1.9440    0.0280    1.4480 ca        1 00X     -0.200300
      5 C33         1.6950    0.9300    2.4730 ca        1 00X     -0.090000
      6 C34         2.4220    0.8050    3.6620 ca        1 00X     -0.119000
      7 C35         2.1430   -1.1030   -0.6910 c3        1 00X      0.136100
      8 C36         2.9180   -0.9850    1.5870 ca        1 00X     -0.049300
      9 C37         3.6380   -1.1030    2.7670 ca        1 00X     -0.104000
     10 C38         3.3780   -0.2000    3.8070 ca        1 00X     -0.074000
     11 C39         3.0430   -1.8020    0.3480 c3        1 00X     -0.082100
     12 HN30       -0.5460   -0.4100   -0.7560 hn        1 00X      0.462467
     13 HN3A       -0.2570   -1.2610    0.6420 hn        1 00X      0.462467
     14 HO30        1.7700   -2.6460   -1.8040 ho        1 00X      0.458000
     15 H31         1.3860    0.9760   -0.4450 hx        1 00X      0.117700
     16 H33         0.9570    1.7380    2.3590 ha        1 00X      0.138000
     17 H34         2.2400    1.5130    4.4860 ha        1 00X      0.162000
     18 H35         2.7620   -0.5730   -1.4660 h1        1 00X      0.086700
     19 H37         4.4030   -1.8860    2.8860 ha        1 00X      0.163000
     20 H38         3.9450   -0.2830    4.7500 ha        1 00X      0.164000
     21 H39         2.7040   -2.8560    0.5220 hc        1 00X      0.092700
     22 H39A        4.1040   -1.8330   -0.0110 hc        1 00X      0.092700
     23 H303       -0.6330    0.3670    0.7350 hn        1 00X      0.462467
@<TRIPOS>BOND
     1    1    3 1   
     2    1   12 1   
     3    1   13 1   
     4    1   23 1   
     5    2    7 1   
     6    2   14 1   
     7    3    4 1   
     8    3    7 1   
     9    3   15 1   
    10    4    5 ar  
    11    4    8 ar  
    12    5    6 ar  
    13    5   16 1   
    14    6   10 ar  
    15    6   17 1   
    16    7   11 1   
    17    7   18 1   
    18    8    9 ar  
    19    8   11 1   
    20    9   10 ar  
    21    9   19 1   
    22   10   20 1   
    23   11   21 1   
    24   11   22 1   
@<TRIPOS>SUBSTRUCTURE
     1 00X         1 TEMP              0 ****  ****    0 ROOT
