@<TRIPOS>MOLECULE
00X
   23    24     1     0     0
SMALL
bcc


@<TRIPOS>ATOM
      1 N30        -0.1540   -0.3580    0.1970 n4        1 00X     -0.826600
      2 O30         1.2380   -2.0030   -1.3120 oh        1 00X     -0.636800
      3 C31         1.3070   -0.0210    0.0920 c3        1 00X      0.183800
      4 C32         1.9430    0.0280    1.4480 ca        1 00X     -0.200300
      5 C33         1.6940    0.9310    2.4720 ca        1 00X     -0.090000
      6 C34         2.4270    0.8110    3.6580 ca        1 00X     -0.119000
      7 C35         2.1370   -1.1050   -0.6910 c3        1 00X      0.136100
      8 C36         2.9220   -0.9810    1.5840 ca        1 00X     -0.049300
      9 C37         3.6480   -1.0930    2.7610 ca        1 00X     -0.104000
     10 C38         3.3890   -0.1900    3.8000 ca        1 00X     -0.074000
     11 C39         3.0450   -1.7990    0.3460 c3        1 00X     -0.082100
     12 HN30       -0.6380    0.3550    0.7460 hn        1 00X      0.462467
     13 HN3A       -0.5550   -0.4230   -0.7450 hn        1 00X      0.462467
     14 HO30        1.7650   -2.6510   -1.8000 ho        1 00X      0.458000
     15 H31         1.3720    0.9710   -0.4440 hx        1 00X      0.117700
     16 H33         0.9530    1.7360    2.3600 ha        1 00X      0.138000
     17 H34         2.2460    1.5190    4.4820 ha        1 00X      0.162000
     18 H35         2.7510   -0.5740   -1.4690 h1        1 00X      0.086700
     19 H37         4.4170   -1.8730    2.8780 ha        1 00X      0.163000
     20 H38         3.9590   -0.2690    4.7410 ha        1 00X      0.164000
     21 H39         2.7110   -2.8540    0.5230 hc        1 00X      0.092700
     22 H39A        4.1040   -1.8270   -0.0180 hc        1 00X      0.092700
     23 H303       -0.2560   -1.2720    0.6520 hn        1 00X      0.462467
@<TRIPOS>BOND
     1    1    3 1   
     2    1   12 1   
     3    1   13 1   
     4    1   23 1   
     5    2    7 1   
     6    2   14 1   
     7    3    4 1   
     8    3    7 1   
     9    3   15 1   
    10    4    5 ar  
    11    4    8 ar  
    12    5    6 ar  
    13    5   16 1   
    14    6   10 ar  
    15    6   17 1   
    16    7   11 1   
    17    7   18 1   
    18    8    9 ar  
    19    8   11 1   
    20    9   10 ar  
    21    9   19 1   
    22   10   20 1   
    23   11   21 1   
    24   11   22 1   
@<TRIPOS>SUBSTRUCTURE
     1 00X         1 TEMP              0 ****  ****    0 ROOT
