@<TRIPOS>MOLECULE
00X
   22    21     1     0     0
SMALL
bcc


@<TRIPOS>ATOM
      1 N30        -1.9790    0.6080   -1.1820 n3        1 00X     -0.311000
      2 O30        -1.1810   -1.4120   -2.2790 oh        1 00X     -0.332000
      3 C31        -0.5680    0.6080   -1.1820 c3        1 00X      0.017000
      4 C32        -0.0400    0.6080    0.2850 c2        1 00X     -0.087000
      5 C33        -0.2070    1.5030    1.3330 c2        1 00X     -0.096000
      6 C34         0.3920    1.2500    2.5700 c1        1 00X     -0.136000
      7 C35        -0.0700   -0.6060   -1.8440 c3        1 00X     -0.015000
      8 C36         0.7400   -0.5680    0.4720 c1        1 00X     -0.075000
      9 C37         1.3340   -0.8170    1.7020 c1        1 00X     -0.124000
     10 C38         1.1650    0.0860    2.7560 c1        1 00X     -0.124000
     11 C39         0.7400   -1.3620   -0.8610 c3        1 00X     -0.156000
     12 HN30       -2.2830    1.1480   -0.5130 hn        1 00X      0.151000
     13 HN3A       -2.2830    0.9170   -1.9840 hn        1 00X      0.151000
     14 HO30       -0.9910   -1.7750   -3.0670 ho        1 00X      0.206000
     15 H31        -0.2380    1.3980   -1.6510 h1        1 00X      0.109000
     16 H33        -0.7420    2.3100    1.2050 ha        1 00X      0.147000
     17 H34         0.2750    1.8800    3.3070 ha        1 00X      0.132000
     18 H35         0.4820   -0.3620   -2.6100 h1        1 00X      0.078000
     19 H37         1.8690   -1.6230    1.8320 ha        1 00X      0.131500
     20 H38         1.5820   -0.0900    3.6210 ha        1 00X      0.131500
     21 H39         0.3490   -2.2440   -0.7190 hc        1 00X      0.099500
     22 H39A        1.6550   -1.4550   -1.1890 hc        1 00X      0.099500
@<TRIPOS>BOND
     1    1    3 1   
     2    1   12 1   
     3    1   13 1   
     4    2    7 1   
     5    2   14 1   
     6    3    4 1   
     7    3    7 1   
     8    3   15 1   
     9    4    5 1   
    10    4    8 1   
    11    5    6 1   
    12    5   16 1   
    13    6   17 1   
    14    7   11 1   
    15    7   18 1   
    16    8   11 1   
    17    9   10 1   
    18    9   19 1   
    19   10   20 1   
    20   11   21 1   
    21   11   22 1   
@<TRIPOS>SUBSTRUCTURE
     1 00X         1 TEMP              0 ****  ****    0 ROOT
