@<TRIPOS>MOLECULE
00X
   22    23     1     0     0
SMALL
bcc


@<TRIPOS>ATOM
      1 N30        -1.6070    1.9640    0.3230 n3        1 00X     -0.878800
      2 O30        -2.9110   -0.4200    0.3180 oh        1 00X     -0.604800
      3 C31        -1.0860    0.9440   -0.5580 c3        1 00X      0.221800
      4 C32         0.3360    0.5480   -0.2450 ca        1 00X     -0.094300
      5 C33         1.4300    1.3850   -0.0910 ca        1 00X     -0.096000
      6 C34         2.6820    0.8130    0.1710 ca        1 00X     -0.136000
      7 C35        -1.8490   -0.4350   -0.6200 c3        1 00X      0.096100
      8 C36         0.4760   -0.8510   -0.1310 ca        1 00X     -0.082300
      9 C37         1.7170   -1.4150    0.1270 ca        1 00X     -0.122000
     10 C38         2.8230   -0.5690    0.2770 ca        1 00X     -0.126000
     11 C39        -0.8260   -1.5480   -0.3130 c3        1 00X     -0.070100
     12 HN30       -2.5920    2.0670    0.1650 hn        1 00X      0.355800
     13 HN3A       -1.4700    1.7000    1.2800 hn        1 00X      0.355800
     14 HO30       -3.3160   -1.2950    0.2920 ho        1 00X      0.407000
     15 H31        -1.1190    1.3770   -1.6030 h1        1 00X      0.069700
     16 H33         1.3160    2.4760   -0.1690 ha        1 00X      0.147000
     17 H34         3.5590    1.4640    0.2950 ha        1 00X      0.132000
     18 H35        -2.2740   -0.5730   -1.6510 h1        1 00X      0.038700
     19 H37         1.8340   -2.5030    0.2160 ha        1 00X      0.133000
     20 H38         3.8130   -1.0040    0.4820 ha        1 00X      0.130000
     21 H39        -1.1140   -2.1030    0.6170 hc        1 00X      0.060200
     22 H39A       -0.7760   -2.2820   -1.1550 hc        1 00X      0.060200
@<TRIPOS>BOND
     1    1    3 1   
     2    1   12 1   
     3    1   13 1   
     4    2    7 1   
     5    2   14 1   
     6    3    4 1   
     7    3    7 1   
     8    3   15 1   
     9    4    5 ar  
    10    4    8 ar  
    11    5    6 ar  
    12    5   16 1   
    13    6   10 ar  
    14    6   17 1   
    15    7   11 1   
    16    7   18 1   
    17    8    9 ar  
    18    8   11 1   
    19    9   10 ar  
    20    9   19 1   
    21   10   20 1   
    22   11   21 1   
    23   11   22 1   
@<TRIPOS>SUBSTRUCTURE
     1 00X         1 TEMP              0 ****  ****    0 ROOT
