@<TRIPOS>MOLECULE
00X
   23    24     1     0     0
SMALL
bcc


@<TRIPOS>ATOM
      1 N30        -0.1350   -0.3020    0.1660 n4        1 00X     -0.826600
      2 O30         1.2340   -1.9850   -1.3220 oh        1 00X     -0.636800
      3 C31         1.3360   -0.0030    0.0820 c3        1 00X      0.183800
      4 C32         1.9540    0.0300    1.4460 ca        1 00X     -0.200300
      5 C33         1.7160    0.9400    2.4660 ca        1 00X     -0.090000
      6 C34         2.4280    0.8020    3.6620 ca        1 00X     -0.119000
      7 C35         2.1480   -1.1100   -0.6890 c3        1 00X      0.136100
      8 C36         2.9040   -1.0040    1.5970 ca        1 00X     -0.049300
      9 C37         3.6110   -1.1350    2.7840 ca        1 00X     -0.104000
     10 C38         3.3610   -0.2240    3.8190 ca        1 00X     -0.074000
     11 C39         3.0230   -1.8260    0.3610 c3        1 00X     -0.082100
     12 HN30       -0.2670   -1.2120    0.6220 hn        1 00X      0.462467
     13 HN3A       -0.6080    0.4240    0.7080 hn        1 00X      0.462467
     14 HO30        1.7510   -2.6470   -1.8020 ho        1 00X      0.458000
     15 H31         1.4350    0.9850   -0.4540 hx        1 00X      0.117700
     16 H33         0.9970    1.7640    2.3440 ha        1 00X      0.138000
     17 H34         2.2550    1.5160    4.4840 ha        1 00X      0.162000
     18 H35         2.7860   -0.5960   -1.4590 h1        1 00X      0.086700
     19 H37         4.3570   -1.9340    2.9120 ha        1 00X      0.163000
     20 H38         3.9160   -0.3180    4.7670 ha        1 00X      0.164000
     21 H39         4.0850   -1.8830    0.0110 hc        1 00X      0.092700
     22 H39A        2.6590   -2.8730    0.5340 hc        1 00X      0.092700
     23 H303       -0.5240   -0.3580   -0.7810 hn        1 00X      0.462467
@<TRIPOS>BOND
     1    1    3 1   
     2    1   12 1   
     3    1   13 1   
     4    1   23 1   
     5    2    7 1   
     6    2   14 1   
     7    3    4 1   
     8    3    7 1   
     9    3   15 1   
    10    4    5 ar  
    11    4    8 ar  
    12    5    6 ar  
    13    5   16 1   
    14    6   10 ar  
    15    6   17 1   
    16    7   11 1   
    17    7   18 1   
    18    8    9 ar  
    19    8   11 1   
    20    9   10 ar  
    21    9   19 1   
    22   10   20 1   
    23   11   21 1   
    24   11   22 1   
@<TRIPOS>SUBSTRUCTURE
     1 00X         1 TEMP              0 ****  ****    0 ROOT
