@<TRIPOS>MOLECULE
00Y
   33    33     1     0     0
SMALL
bcc


@<TRIPOS>ATOM
      1 C           1.6750    0.7920    0.4220 c3        1 00Y      0.062800
      2 N           0.7800   -1.5620    0.7870 n3        1 00Y     -0.900800
      3 O           1.4750    1.9350   -0.3890 oh        1 00Y     -0.581800
      4 CA          0.5950   -0.2950    0.1230 c3        1 00Y      0.158500
      5 CB         -0.7700    0.3340    0.4550 c3        1 00Y     -0.075400
      6 CD         -3.2360    0.2260    0.1710 c3        1 00Y      0.180800
      7 NE         -4.3690   -0.4990   -0.3720 nh        1 00Y     -0.795200
      8 CG         -1.9100   -0.4870   -0.1050 c3        1 00Y     -0.085400
      9 CZ         -5.6800    0.0190   -0.0800 c2        1 00Y      0.744100
     10 C1X         3.0730    0.2670    0.2680 cc        1 00Y      0.344700
     11 N1X         3.6140   -0.6250    1.1080 nd        1 00Y     -0.650000
     12 S1X         4.1520    0.7990   -0.9680 ss        1 00Y     -0.057300
     13 C2X         4.9170   -0.8900    0.7320 cd        1 00Y      0.333200
     14 C3X         5.3580   -0.1950   -0.3870 cc        1 00Y     -0.260400
     15 NH1        -5.8260    1.1780    0.5150 n2        1 00Y     -0.872100
     16 NH2        -6.7640   -0.8350   -0.4830 nh        1 00Y     -0.934800
     17 HN          1.5770   -2.0460    0.4250 hn        1 00Y      0.362800
     18 HA          0.6250   -0.4940   -0.9910 h1        1 00Y      0.051700
     19 HB         -0.8840    0.4400    1.5650 hc        1 00Y      0.054200
     20 HBA        -0.7940    1.3670    0.0150 hc        1 00Y      0.054200
     21 HD         -3.2190    1.2440   -0.3140 h1        1 00Y      0.053700
     22 HDA        -3.3310    0.3860    1.2850 h1        1 00Y      0.053700
     23 HNE        -4.3060   -1.4800   -0.1760 hn        1 00Y      0.388800
     24 HG         -1.7700   -0.6270   -1.2080 hc        1 00Y      0.052200
     25 HGA        -1.9120   -1.5060    0.3650 hc        1 00Y      0.052200
     26 H2X         5.5000   -1.6060    1.3230 h4        1 00Y      0.046100
     27 H3X         6.3500   -0.2730   -0.8250 h4        1 00Y      0.184000
     28 HNH1       -6.7650    1.5030    0.5950 hn        1 00Y      0.388400
     29 HNH2       -6.5280   -1.5330   -1.1530 hn        1 00Y      0.387800
     30 HNHA       -7.5820   -0.3300   -0.7510 hn        1 00Y      0.387800
     31 H33         1.5420    1.1810    1.4760 h1        1 00Y      0.104700
     32 H34         1.3510    1.6350   -1.2990 ho        1 00Y      0.401000
     33 H2          0.8830   -1.4420    1.7750 hn        1 00Y      0.362800
@<TRIPOS>BOND
     1    1    3 1   
     2    1    4 1   
     3    1   10 1   
     4    1   31 1   
     5    2    4 1   
     6    2   17 1   
     7    2   33 1   
     8    3   32 1   
     9    4    5 1   
    10    4   18 1   
    11    5    8 1   
    12    5   19 1   
    13    5   20 1   
    14    6    7 1   
    15    6    8 1   
    16    6   21 1   
    17    6   22 1   
    18    7    9 1   
    19    7   23 1   
    20    8   24 1   
    21    8   25 1   
    22    9   15 2   
    23    9   16 1   
    24   10   11 2   
    25   10   12 1   
    26   11   13 1   
    27   12   14 1   
    28   13   14 2   
    29   13   26 1   
    30   14   27 1   
    31   15   28 1   
    32   16   29 1   
    33   16   30 1   
@<TRIPOS>SUBSTRUCTURE
     1 00Y         1 TEMP              0 ****  ****    0 ROOT
