@<TRIPOS>MOLECULE
00Y
   33    30     1     0     0
SMALL
bcc


@<TRIPOS>ATOM
      1 C           2.2660    0.7950   -0.5120 c3        1 00Y      0.150800
      2 N           0.4890    0.7510   -2.1120 n3        1 00Y     -0.918800
      3 O           2.5480    0.8930    0.8700 oh        1 00Y     -0.600800
      4 CA          0.7850    0.6950   -0.7120 c3        1 00Y      0.158500
      5 CB          0.2810   -0.6280   -0.1360 c3        1 00Y     -0.117400
      6 CD         -1.6800   -1.7850    0.9200 c3        1 00Y      0.165800
      7 NE         -2.9360   -1.5780    1.6300 nh        1 00Y     -0.755000
      8 CG         -1.1300   -0.4320    0.4380 c3        1 00Y     -0.084400
      9 CZ         -3.7620   -2.7290    2.0080 c2        1 00Y      0.292000
     10 C1X         2.7880    2.0240   -1.2230 c2        1 00Y      0.227200
     11 N1X         3.3960    2.0510   -2.5170 ne        1 00Y     -0.467700
     12 S1X         2.8670    3.4480   -0.6330 ss        1 00Y      0.194700
     13 C2X         3.8900    3.5110   -2.8020 cg        1 00Y     -0.084000
     14 C3X         3.5630    4.3320   -1.6600 c1        1 00Y     -0.286900
     15 NH1        -4.5380   -3.2890    1.1270 n1        1 00Y     -0.287000
     16 NH2        -3.7140   -3.2330    3.3350 nh        1 00Y     -0.837600
     17 HN          0.3810   -0.0830   -2.4290 hn        1 00Y      0.358300
     18 HA          0.3450    1.4380   -0.2560 h1        1 00Y      0.078700
     19 HB          0.2530   -1.3100   -0.8500 hc        1 00Y      0.060700
     20 HBA         0.8850   -0.9260    0.5760 hc        1 00Y      0.060700
     21 HD         -1.8350   -2.3710    0.1440 h1        1 00Y      0.034200
     22 HDA        -1.0390   -2.2000    1.5150 h1        1 00Y      0.034200
     23 HNE        -3.2040   -0.7280    1.8520 hn        1 00Y      0.383800
     24 HG         -1.7220   -0.0660   -0.2610 hc        1 00Y      0.047200
     25 HGA        -1.0920    0.1790    1.1760 hc        1 00Y      0.047200
     26 H2X         4.3430    3.8130   -3.6150 DU        1 00Y      0.174000
     27 H3X         3.7540    5.2810   -1.5640 DU        1 00Y      0.174000
     28 HNH1       -4.5690   -2.9640    0.2710 DU        1 00Y      0.174000
     29 HNH2       -3.0870   -2.9330    3.9090 hn        1 00Y      0.392800
     30 HNHA       -4.3340   -3.8550    3.6140 hn        1 00Y      0.392800
     31 H33         2.6980   -0.0010   -0.8770 h1        1 00Y      0.050700
     32 H34         3.3900    0.6740    1.0140 ho        1 00Y      0.428000
     33 H2         -0.2790    1.2270   -2.2420 hn        1 00Y      0.358300
@<TRIPOS>BOND
     1    1    3 1   
     2    1    4 1   
     3    1   10 1   
     4    1   31 1   
     5    2    4 1   
     6    2   17 1   
     7    2   33 1   
     8    3   32 1   
     9    4    5 1   
    10    4   18 1   
    11    5    8 1   
    12    5   19 1   
    13    5   20 1   
    14    6    7 1   
    15    6    8 1   
    16    6   21 1   
    17    6   22 1   
    18    7    9 1   
    19    7   23 1   
    20    8   24 1   
    21    8   25 1   
    22    9   15 2   
    23    9   16 1   
    24   10   11 2   
    25   10   12 1   
    26   11   13 1   
    27   12   14 1   
    28   13   14 3   
    29   16   29 1   
    30   16   30 1   
@<TRIPOS>SUBSTRUCTURE
     1 00Y         1 TEMP              0 ****  ****    0 ROOT
