@<TRIPOS>MOLECULE
010
   16    16     1     0     0
SMALL
bcc


@<TRIPOS>ATOM
      1 C           0.1610    0.1510    0.1250 c3        1 010      0.176700
      2 O           0.7840   -0.8880   -0.6150 oh        1 010     -0.598800
      3 C1         -1.0490    0.4740    2.2720 ca        1 010     -0.116500
      4 C2         -1.5830   -0.0020    3.4670 ca        1 010     -0.132000
      5 C3         -1.4690   -1.3540    3.7940 ca        1 010     -0.129000
      6 C4         -0.8200   -2.2280    2.9220 ca        1 010     -0.132000
      7 C5         -0.2840   -1.7540    1.7250 ca        1 010     -0.116500
      8 C6         -0.3970   -0.4010    1.3950 ca        1 010     -0.090300
      9 H          -0.6680    0.6050   -0.4880 h1        1 010      0.031200
     10 HA          0.9160    0.9530    0.3580 h1        1 010      0.031200
     11 HO          1.1240   -0.4780   -1.4190 ho        1 010      0.403000
     12 H2         -2.0940    0.6880    4.1530 ha        1 010      0.131000
     13 H3         -1.8910   -1.7290    4.7380 ha        1 010      0.130000
     14 H4         -0.7300   -3.2940    3.1780 ha        1 010      0.131000
     15 H5          0.2290   -2.4410    1.0340 ha        1 010      0.140500
     16 H1         -1.1390    1.5400    2.0160 ha        1 010      0.140500
@<TRIPOS>BOND
     1    1    2 1   
     2    1    8 1   
     3    1    9 1   
     4    1   10 1   
     5    2   11 1   
     6    3    4 ar  
     7    3    8 ar  
     8    3   16 1   
     9    4    5 ar  
    10    4   12 1   
    11    5    6 ar  
    12    5   13 1   
    13    6    7 ar  
    14    6   14 1   
    15    7    8 ar  
    16    7   15 1   
@<TRIPOS>SUBSTRUCTURE
     1 010         1 TEMP              0 ****  ****    0 ROOT
