@<TRIPOS>MOLECULE
010
   16    16     1     0     0
SMALL
bcc


@<TRIPOS>ATOM
      1 C           1.9480    0.2140   -0.3560 c3        1 010      0.176700
      2 O           2.5680   -1.0270   -0.0510 oh        1 010     -0.598800
      3 C1         -0.3230    1.2220   -0.4240 ca        1 010     -0.116500
      4 C2         -1.7050    1.1530   -0.2630 ca        1 010     -0.132000
      5 C3         -2.3030   -0.0390    0.1500 ca        1 010     -0.129000
      6 C4         -1.5140   -1.1600    0.4010 ca        1 010     -0.132000
      7 C5         -0.1300   -1.0950    0.2420 ca        1 010     -0.116500
      8 C6          0.4710    0.0960   -0.1720 ca        1 010     -0.090300
      9 H           2.3530    1.0140    0.3240 h1        1 010      0.030700
     10 HA          2.1760    0.4970   -1.4220 h1        1 010      0.030700
     11 HO          3.5130   -0.8950   -0.1860 ho        1 010      0.403000
     12 H2         -2.3250    2.0390   -0.4630 ha        1 010      0.131000
     13 H3         -3.3930   -0.0910    0.2760 ha        1 010      0.130000
     14 H4         -1.9820   -2.1010    0.7270 ha        1 010      0.131000
     15 H5          0.4970   -1.9800    0.4400 ha        1 010      0.140500
     16 H1          0.1470    2.1620   -0.7490 ha        1 010      0.140500
@<TRIPOS>BOND
     1    1    2 1   
     2    1    8 1   
     3    1    9 1   
     4    1   10 1   
     5    2   11 1   
     6    3    4 ar  
     7    3    8 ar  
     8    3   16 1   
     9    4    5 ar  
    10    4   12 1   
    11    5    6 ar  
    12    5   13 1   
    13    6    7 ar  
    14    6   14 1   
    15    7    8 ar  
    16    7   15 1   
@<TRIPOS>SUBSTRUCTURE
     1 010         1 TEMP              0 ****  ****    0 ROOT
