@<TRIPOS>MOLECULE
010
   16    13     1     0     0
SMALL
bcc


@<TRIPOS>ATOM
      1 C           0.7340    0.6230   -1.6700 c3        1 010      0.142500
      2 O          -0.3200    0.9450   -2.4870 oh        1 010     -0.598800
      3 C1          0.2070    0.9750    0.6610 c1        1 010     -0.074500
      4 C2         -0.2430    0.4980    1.9100 c1        1 010     -0.066000
      5 C3         -0.6500   -0.7980    2.0360 c1        1 010     -0.066000
      6 C4         -0.6210   -1.6410    0.9380 c1        1 010     -0.066000
      7 C5         -0.1780   -1.1700   -0.2890 c1        1 010     -0.066000
      8 C6          0.2330    0.1380   -0.4200 c1        1 010     -0.056100
      9 H           1.3270   -0.1340   -2.1360 h1        1 010      0.030700
     10 HA          1.2970    1.4390   -1.5110 h1        1 010      0.030700
     11 HO         -0.0050    1.4670   -3.2230 ho        1 010      0.403000
     12 H1          0.5140    1.9600    0.5610 ha        1 010      0.070500
     13 H2         -0.2650    1.1660    2.7770 ha        1 010      0.078750
     14 H3         -0.9750   -1.1460    2.9390 ha        1 010      0.078750
     15 H4         -0.8980   -2.5180    1.0230 ha        1 010      0.078750
     16 H5         -0.1580   -1.8040   -1.1080 ha        1 010      0.078750
@<TRIPOS>BOND
     1    1    2 1   
     2    1    8 1   
     3    1    9 1   
     4    1   10 1   
     5    2   11 1   
     6    3    8 3   
     7    3   12 1   
     8    4    5 3   
     9    4   13 1   
    10    5   14 1   
    11    6    7 3   
    12    6   15 1   
    13    7   16 1   
@<TRIPOS>SUBSTRUCTURE
     1 010         1 TEMP              0 ****  ****    0 ROOT
