@<TRIPOS>MOLECULE
010
   16    16     1     0     0
SMALL
bcc


@<TRIPOS>ATOM
      1 C           0.1770    0.1710    0.1410 c3        1 010      0.176700
      2 O           0.7620   -0.8690   -0.6300 oh        1 010     -0.598800
      3 C1         -1.0160    0.4760    2.3000 ca        1 010     -0.116500
      4 C2         -1.5590   -0.0140    3.4860 ca        1 010     -0.132000
      5 C3         -1.4810   -1.3760    3.7810 ca        1 010     -0.129000
      6 C4         -0.8600   -2.2460    2.8860 ca        1 010     -0.132000
      7 C5         -0.3150   -1.7600    1.6980 ca        1 010     -0.116500
      8 C6         -0.3910   -0.3960    1.4000 ca        1 010     -0.090300
      9 H          -0.6400    0.6670   -0.4540 h1        1 010      0.030700
     10 HA          0.9600    0.9400    0.3910 h1        1 010      0.030700
     11 HO          1.1100   -0.4500   -1.4250 ho        1 010      0.403000
     12 H2         -2.0490    0.6740    4.1900 ha        1 010      0.131000
     13 H3         -1.9100   -1.7610    4.7170 ha        1 010      0.130000
     14 H4         -0.7970   -3.3200    3.1160 ha        1 010      0.131000
     15 H5          0.1770   -2.4440    0.9880 ha        1 010      0.140500
     16 H1         -1.0780    1.5490    2.0690 ha        1 010      0.140500
@<TRIPOS>BOND
     1    1    2 1   
     2    1    8 1   
     3    1    9 1   
     4    1   10 1   
     5    2   11 1   
     6    3    4 ar  
     7    3    8 ar  
     8    3   16 1   
     9    4    5 ar  
    10    4   12 1   
    11    5    6 ar  
    12    5   13 1   
    13    6    7 ar  
    14    6   14 1   
    15    7    8 ar  
    16    7   15 1   
@<TRIPOS>SUBSTRUCTURE
     1 010         1 TEMP              0 ****  ****    0 ROOT
