@<TRIPOS>MOLECULE
010
   16    16     1     0     0
SMALL
bcc


@<TRIPOS>ATOM
      1 C           0.1830    0.1390    0.1280 c3        1 010      0.176700
      2 O           0.8250   -0.9050   -0.5900 oh        1 010     -0.598800
      3 C1         -1.0600    0.4770    2.2550 ca        1 010     -0.116500
      4 C2         -1.6100    0.0090    3.4460 ca        1 010     -0.132000
      5 C3         -1.4980   -1.3390    3.7870 ca        1 010     -0.129000
      6 C4         -0.8330   -2.2180    2.9330 ca        1 010     -0.132000
      7 C5         -0.2800   -1.7540    1.7390 ca        1 010     -0.116500
      8 C6         -0.3910   -0.4040    1.3950 ca        1 010     -0.090300
      9 H           0.9290    0.9470    0.3660 h1        1 010      0.031200
     10 HA         -0.6390    0.5800   -0.5020 h1        1 010      0.031200
     11 HO          1.1750   -0.5020   -1.3930 ho        1 010      0.403000
     12 H2         -2.1340    0.7050    4.1170 ha        1 010      0.131000
     13 H3         -1.9330   -1.7060    4.7270 ha        1 010      0.130000
     14 H4         -0.7430   -3.2810    3.1990 ha        1 010      0.131000
     15 H5          0.2460   -2.4460    1.0620 ha        1 010      0.140500
     16 H1         -1.1490    1.5400    1.9870 ha        1 010      0.140500
@<TRIPOS>BOND
     1    1    2 1   
     2    1    8 1   
     3    1    9 1   
     4    1   10 1   
     5    2   11 1   
     6    3    4 ar  
     7    3    8 ar  
     8    3   16 1   
     9    4    5 ar  
    10    4   12 1   
    11    5    6 ar  
    12    5   13 1   
    13    6    7 ar  
    14    6   14 1   
    15    7    8 ar  
    16    7   15 1   
@<TRIPOS>SUBSTRUCTURE
     1 010         1 TEMP              0 ****  ****    0 ROOT
