@<TRIPOS>MOLECULE
011
   24    23     1     0     0
SMALL
bcc


@<TRIPOS>ATOM
      1 C5         -0.7430   -0.0080    0.0470 c3        1 011     -0.079400
      2 C4          0.7770   -0.0080    0.0470 c3        1 011     -0.078400
      3 O           3.5210   -1.0190   -3.4530 o         1 011     -0.853300
      4 C6         -1.2490   -0.0080    1.4780 c3        1 011     -0.083400
      5 C3          1.2850    0.0180   -1.3920 c3        1 011     -0.066400
      6 C7         -2.7650   -0.0270    1.4800 c3        1 011      0.151800
      7 C2          2.8060   -0.0040   -1.3930 c3        1 011     -0.194400
      8 N          -3.2450   -0.0040    2.8460 n3        1 011     -0.915800
      9 C1          3.3110    0.0480   -2.8220 c         1 011      0.907600
     10 HAA        -1.0680    0.7890   -0.4130 hc        1 011      0.037700
     11 HAAA       -1.0680   -0.8050   -0.4130 hc        1 011      0.037700
     12 HAB         1.1020   -0.8130    0.4930 hc        1 011      0.026700
     13 HABA        1.1020    0.7810    0.5210 hc        1 011      0.026700
     14 HAU        -0.9330    0.7950    1.9340 hc        1 011      0.040700
     15 HAUA       -0.9130   -0.7980    1.9420 hc        1 011      0.040700
     16 HAV         0.9480   -0.7630   -1.8700 hc        1 011      0.043700
     17 HAVA        0.9710    0.8300   -1.8330 hc        1 011      0.043700
     18 HAW        -3.1010    0.7560    1.0040 h1        1 011      0.024700
     19 HAWA       -3.0810   -0.8380    1.0380 h1        1 011      0.024700
     20 HAX         3.1440    0.7680   -0.9010 hc        1 011      0.019200
     21 HAXA        3.1200   -0.8250   -0.9670 hc        1 011      0.019200
     22 HNBA       -3.7370   -0.7540    3.0080 hn        1 011      0.339300
     23 H2         -3.7650    0.7340    2.9740 hn        1 011      0.339300
     24 OXT         3.5810    1.1540   -3.3530 o         1 011     -0.853300
@<TRIPOS>BOND
     1    1    2 1   
     2    1    4 1   
     3    1   10 1   
     4    1   11 1   
     5    2    5 1   
     6    2   12 1   
     7    2   13 1   
     8    3    9 1   
     9    4    6 1   
    10    4   14 1   
    11    4   15 1   
    12    5    7 1   
    13    5   16 1   
    14    5   17 1   
    15    6    8 1   
    16    6   18 1   
    17    6   19 1   
    18    7    9 1   
    19    7   20 1   
    20    7   21 1   
    21    8   22 1   
    22    8   23 1   
    23    9   24 1   
@<TRIPOS>SUBSTRUCTURE
     1 011         1 TEMP              0 ****  ****    0 ROOT
