@<TRIPOS>MOLECULE
011
   24    23     1     0     0
SMALL
bcc


@<TRIPOS>ATOM
      1 C5         -1.6180    0.3390   -0.1160 c3        1 011     -0.079400
      2 C4         -0.4210   -0.5860   -0.0360 c3        1 011     -0.078400
      3 O           3.4010    1.0170    1.0240 o         1 011     -0.853300
      4 C6         -2.9180   -0.4280   -0.0100 c3        1 011     -0.083400
      5 C3          0.8790    0.1890   -0.0830 c3        1 011     -0.066400
      6 C7         -4.1060    0.5300   -0.0620 c3        1 011      0.151800
      7 C2          2.0800   -0.7210   -0.0070 c3        1 011     -0.194400
      8 N          -5.3920   -0.1210    0.0480 n3        1 011     -0.915800
      9 C1          3.3810    0.0820    0.1720 c         1 011      0.907600
     10 HAA        -1.5570    1.0970    0.7080 hc        1 011      0.037700
     11 HAAA       -1.5910    0.9030   -1.0860 hc        1 011      0.037700
     12 HAB        -0.4700   -1.1790    0.9150 hc        1 011      0.026700
     13 HABA       -0.4560   -1.3190   -0.8840 hc        1 011      0.026700
     14 HAU        -2.9900   -1.1710   -0.8470 hc        1 011      0.040700
     15 HAUA       -2.9330   -1.0060    0.9520 hc        1 011      0.040700
     16 HAV         0.9240    0.7880   -1.0300 hc        1 011      0.043700
     17 HAVA        0.9260    0.9160    0.7710 hc        1 011      0.043700
     18 HAW        -3.9570    1.3130    0.7400 h1        1 011      0.024700
     19 HAWA       -4.0940    1.0700   -1.0520 h1        1 011      0.024700
     20 HAX         1.9830   -1.4110    0.8700 hc        1 011      0.019200
     21 HAXA        2.1550   -1.3480   -0.9300 hc        1 011      0.019200
     22 HNBA       -5.3670   -0.8500    0.7340 hn        1 011      0.339300
     23 H2         -6.0930    0.5430    0.3100 hn        1 011      0.339300
     24 OXT         4.3780   -0.2490   -0.5330 o         1 011     -0.853300
@<TRIPOS>BOND
     1    1    2 1   
     2    1    4 1   
     3    1   10 1   
     4    1   11 1   
     5    2    5 1   
     6    2   12 1   
     7    2   13 1   
     8    3    9 1   
     9    4    6 1   
    10    4   14 1   
    11    4   15 1   
    12    5    7 1   
    13    5   16 1   
    14    5   17 1   
    15    6    8 1   
    16    6   18 1   
    17    6   19 1   
    18    7    9 1   
    19    7   20 1   
    20    7   21 1   
    21    8   22 1   
    22    8   23 1   
    23    9   24 1   
@<TRIPOS>SUBSTRUCTURE
     1 011         1 TEMP              0 ****  ****    0 ROOT
