@<TRIPOS>MOLECULE
012
   79    75     1     0     0
SMALL
bcc


@<TRIPOS>ATOM
      1 C           0.8320   -0.1000   -1.8790 c1        1 012      0.279000
      2 O           1.9930   -0.4250   -1.9810 o         1 012     -0.357000
      3 N           0.1000   -0.3890   -0.6550 n2        1 012     -0.368000
      4 CA          0.7810   -0.3950    0.6040 c3        1 012     -0.004000
      5 CB          0.8260    1.0130    1.1650 c3        1 012     -0.142000
      6 CG          2.0240    1.7860    0.5340 c2        1 012     -0.083000
      7 CD1         1.7860    2.8930   -0.2730 c1        1 012     -0.140000
      8 CD2         3.3290    1.4400    0.8710 c2        1 012     -0.123000
      9 CE1         2.8560    3.6560   -0.7440 c1        1 012     -0.136500
     10 CE2         4.3950    2.2030    0.4000 c1        1 012     -0.124000
     11 CZ          4.1550    3.3100   -0.4080 c1        1 012     -0.136500
     12 C1          0.0460   -1.3040    1.5720 c3        1 012      0.014000
     13 OG         -1.3350   -1.1270    1.4240 oh        1 012     -0.331000
     14 C2          0.4500   -0.9610    3.0010 c3        1 012     -0.074000
     15 N2         -0.2790   -1.8070    3.9220 n3        1 012     -0.290000
     16 C20        -0.2950   -1.1990    5.2230 c3        1 012     -0.042000
     17 C21        -1.4810   -1.7540    6.0360 c2        1 012     -0.094000
     18 C22        -2.4710   -2.4930    5.4000 c2        1 012     -0.149000
     19 C23        -3.6080   -2.8840    6.1010 c1        1 012     -0.108000
     20 C24        -3.7550   -2.5340    7.4440 c1        1 012     -0.152000
     21 C25        -2.7690   -1.7960    8.0810 c1        1 012      0.049000
     22 C26        -1.6270   -1.4030    7.3780 c1        1 012     -0.171000
     23 N27        -2.9670   -1.3510    9.4620 n3        1 012     -0.244000
     24 C28        -4.1620   -0.6140    9.8230 c3        1 012     -0.103000
     25 C29        -1.9900   -1.6490   10.4520 c3        1 012     -0.103000
     26 C30         0.1270    0.5030   -3.0350 c3        1 012     -0.054000
     27 N31         0.9870    1.4080   -3.6860 n         1 012     -0.293000
     28 C32         1.6570    0.7060   -4.7270 c2        1 012      0.336000
     29 O33         2.7190    1.0180   -5.2300 o         1 012     -0.332000
     30 N34         0.8830   -0.4010   -5.0670 n         1 012     -0.282000
     31 C35        -0.1210   -0.5550   -4.0770 c3        1 012     -0.072000
     32 C36         1.0660   -1.2550   -6.2540 c3        1 012     -0.004000
     33 C41         1.0940   -0.3720   -7.5280 c2        1 012     -0.098000
     34 C42        -0.0960    0.0910   -8.0790 c2        1 012     -0.150000
     35 C43        -0.0700    0.9300   -9.1890 c1        1 012      0.073000
     36 C44         1.1450    1.3060   -9.7470 c1        1 012     -0.136500
     37 C45         2.3360    0.8440   -9.1980 c1        1 012     -0.136500
     38 C46         2.3100    0.0050   -8.0870 c1        1 012     -0.144000
     39 O47        -1.2780    1.3390   -9.7930 os        1 012     -0.214000
     40 C48        -1.3630    2.7370  -10.0160 c3        1 012     -0.076000
     41 HN         -0.7860   -0.5910   -0.6920 hn        1 012      0.227000
     42 HA          1.6960   -0.7240    0.4780 h1        1 012      0.120000
     43 HB          0.9390    0.9730    2.1320 hc        1 012      0.110500
     44 HBA        -0.0050    1.4730    0.9540 hc        1 012      0.110500
     45 HD1         0.8680    3.1380   -0.5110 ha        1 012      0.131000
     46 HD2         3.4970    0.6670    1.4340 ha        1 012      0.135000
     47 HE1         2.6890    4.4340   -1.3120 ha        1 012      0.136250
     48 HE2         5.3120    1.9600    0.6370 ha        1 012      0.136000
     49 HZ          4.9090    3.8500   -0.7420 ha        1 012      0.136250
     50 H1          0.2780   -2.2400    1.3820 h1        1 012      0.110000
     51 HOG        -1.6890   -1.8520    1.0540 ho        1 012      0.204000
     52 H2          1.4140   -1.1080    3.1150 h1        1 012      0.082500
     53 H2A         0.2400   -0.0210    3.1840 h1        1 012      0.082500
     54 HN2        -1.1380   -1.9130    3.6240 hn        1 012      0.165000
     55 H20         0.5410   -1.4030    5.6870 h1        1 012      0.099000
     56 H20A       -0.3900   -0.2310    5.1290 h1        1 012      0.099000
     57 H22        -2.3680   -2.7410    4.4590 ha        1 012      0.133000
     58 H23        -4.3000   -3.4020    5.6540 ha        1 012      0.131000
     59 H24        -4.5510   -2.8080    7.9340 ha        1 012      0.137000
     60 H26        -0.9310   -0.8820    7.8270 ha        1 012      0.132000
     61 H28        -4.1660   -0.4480   10.7970 h1        1 012      0.075500
     62 H28A       -4.9520   -1.1340    9.5790 h1        1 012      0.075500
     63 H28B       -4.1740    0.2450    9.3450 h1        1 012      0.075500
     64 H29        -1.1590   -1.1830   10.2410 h1        1 012      0.075500
     65 H29A       -2.3170   -1.3540   11.3360 h1        1 012      0.075500
     66 H29B       -1.8270   -2.6130   10.4690 h1        1 012      0.075500
     67 H30        -0.6630    0.8830   -2.5900 h1        1 012      0.134000
     68 HN31        1.0830    2.2970   -3.4890 hn        1 012      0.238000
     69 H35         0.0450   -1.4180   -3.6440 h1        1 012      0.105500
     70 H35A       -0.9720   -0.3320   -4.5050 h1        1 012      0.105500
     71 H36         0.3230   -1.8940   -6.3160 h1        1 012      0.117500
     72 H36A        1.9190   -1.7480   -6.1770 h1        1 012      0.117500
     73 H42        -0.9490   -0.1730   -7.6880 ha        1 012      0.146000
     74 H44         1.1630    1.8990  -10.5300 ha        1 012      0.136250
     75 H45         3.1940    1.1110   -9.5930 ha        1 012      0.136250
     76 H46         3.1430   -0.3190   -7.7020 ha        1 012      0.156000
     77 H48        -1.1420    3.2160   -9.1830 h1        1 012      0.084333
     78 H48A       -2.2780    2.9700  -10.2970 h1        1 012      0.084333
     79 H48B       -0.7280    2.9950  -10.7200 h1        1 012      0.084333
@<TRIPOS>BOND
     1    1    2 1   
     2    1   26 1   
     3    3    4 1   
     4    3   41 1   
     5    4    5 1   
     6    4   12 1   
     7    4   42 1   
     8    5    6 1   
     9    5   43 1   
    10    5   44 1   
    11    6    7 1   
    12    6    8 1   
    13    7   45 1   
    14    8   10 1   
    15    8   46 1   
    16    9   11 1   
    17    9   47 1   
    18   10   48 1   
    19   11   49 1   
    20   12   13 1   
    21   12   14 1   
    22   12   50 1   
    23   13   51 1   
    24   14   15 1   
    25   14   52 1   
    26   14   53 1   
    27   15   16 1   
    28   15   54 1   
    29   16   17 1   
    30   16   55 1   
    31   16   56 1   
    32   17   18 1   
    33   17   22 1   
    34   18   19 1   
    35   18   57 1   
    36   19   58 1   
    37   20   21 1   
    38   20   59 1   
    39   21   23 1   
    40   22   60 1   
    41   23   24 1   
    42   23   25 1   
    43   24   61 1   
    44   24   62 1   
    45   24   63 1   
    46   25   64 1   
    47   25   65 1   
    48   25   66 1   
    49   26   27 1   
    50   26   31 1   
    51   26   67 1   
    52   27   28 1   
    53   27   68 1   
    54   28   29 1   
    55   28   30 1   
    56   30   31 1   
    57   30   32 1   
    58   31   69 1   
    59   31   70 1   
    60   32   33 1   
    61   32   71 1   
    62   32   72 1   
    63   33   34 1   
    64   33   38 1   
    65   34   35 1   
    66   34   73 1   
    67   35   39 1   
    68   36   37 1   
    69   36   74 1   
    70   37   75 1   
    71   38   76 1   
    72   39   40 1   
    73   40   77 1   
    74   40   78 1   
    75   40   79 1   
@<TRIPOS>SUBSTRUCTURE
     1 012         1 TEMP              0 ****  ****    0 ROOT
