@<TRIPOS>MOLECULE
012
   79    82     1     0     0
SMALL
bcc


@<TRIPOS>ATOM
      1 C          -2.3860   -1.4610    0.0310 c         1 012      0.644100
      2 O          -2.4900   -1.6260    1.2650 o         1 012     -0.616100
      3 N          -1.1740   -1.2410   -0.5780 n         1 012     -0.550900
      4 CA          0.0560   -1.0780    0.1640 c3        1 012      0.075700
      5 CB          1.1090   -2.1390   -0.1950 c3        1 012     -0.049100
      6 CG          0.6350   -3.5470   -0.1250 ca        1 012     -0.081300
      7 CD1         1.1110   -4.4720   -1.0660 ca        1 012     -0.128000
      8 CD2        -0.2330   -3.9850    0.8810 ca        1 012     -0.128000
      9 CE1         0.7270   -5.8090   -0.9970 ca        1 012     -0.127500
     10 CE2        -0.6160   -5.3240    0.9470 ca        1 012     -0.127500
     11 CZ         -0.1360   -6.2390    0.0110 ca        1 012     -0.131000
     12 C1          0.6310    0.3520   -0.0470 c3        1 012      0.107100
     13 OG          0.9090    0.6110   -1.4110 oh        1 012     -0.600800
     14 C2          1.8710    0.5780    0.8340 c3        1 012      0.125800
     15 N2          2.2750    1.9710    0.8760 n3        1 012     -0.810200
     16 C20         3.6360    2.1720    1.3260 c3        1 012      0.200100
     17 C21         4.7230    1.7450    0.3770 ca        1 012     -0.097300
     18 C22         4.8890    2.4250   -0.8330 ca        1 012     -0.168000
     19 C23         5.9050    2.0370   -1.7010 ca        1 012     -0.095000
     20 C24         6.7550    0.9840   -1.3820 ca        1 012     -0.186000
     21 C25         6.5970    0.2730   -0.1670 ca        1 012      0.158600
     22 C26         5.5640    0.6860    0.7110 ca        1 012     -0.179000
     23 N27         7.3880   -0.8560    0.1280 nh        1 012     -0.654000
     24 C28         8.5900   -1.0380   -0.6450 c3        1 012      0.183100
     25 C29         7.4600   -1.2610    1.5100 c3        1 012      0.183100
     26 C30        -3.6110   -1.5450   -0.8940 c3        1 012     -0.023300
     27 N31        -4.8670   -1.8290   -0.2050 n         1 012     -0.487900
     28 C32        -5.7390   -0.7040   -0.3780 c         1 012      0.749500
     29 O33        -6.8450   -0.5850    0.1750 o         1 012     -0.612500
     30 N34        -5.2190    0.1930   -1.3730 n         1 012     -0.426800
     31 C35        -3.8420   -0.1930   -1.6600 c3        1 012      0.044000
     32 C36        -5.5450    1.5940   -1.2840 c3        1 012      0.123300
     33 C41        -4.8370    2.3800   -0.2140 ca        1 012     -0.108300
     34 C42        -3.7610    3.1990   -0.5460 ca        1 012     -0.149000
     35 C43        -3.1280    3.9450    0.4670 ca        1 012      0.120100
     36 C44        -3.5650    3.8670    1.7940 ca        1 012     -0.194000
     37 C45        -4.6440    3.0380    2.1050 ca        1 012     -0.094000
     38 C46        -5.2790    2.2970    1.1120 ca        1 012     -0.147000
     39 O47        -2.0780    4.7320    0.0320 os        1 012     -0.328900
     40 C48        -1.3650    5.4380    1.0400 c3        1 012      0.112700
     41 HN         -1.1350   -1.0440   -1.5500 hn        1 012      0.321500
     42 HA         -0.1870   -1.1760    1.2670 h1        1 012      0.097700
     43 HB          1.5090   -1.9310   -1.2240 hc        1 012      0.053700
     44 HBA         1.9620   -2.0260    0.5300 hc        1 012      0.053700
     45 HD1         1.7930   -4.1410   -1.8630 ha        1 012      0.139000
     46 HD2        -0.6370   -3.2680    1.6150 ha        1 012      0.139000
     47 HE1         1.1060   -6.5270   -1.7400 ha        1 012      0.133000
     48 HE2        -1.3010   -5.6560    1.7410 ha        1 012      0.133000
     49 HZ         -0.4380   -7.2950    0.0650 ha        1 012      0.132000
     50 H1         -0.1680    1.1090    0.2110 h1        1 012      0.099700
     51 HOG         1.6950    0.1060   -1.6540 ho        1 012      0.402000
     52 H2          1.6280    0.2640    1.8870 h1        1 012      0.043700
     53 H2A         2.7060   -0.0860    0.4590 h1        1 012      0.043700
     54 HN2         2.1360    2.3960   -0.0250 hn        1 012      0.369800
     55 H20         3.7510    3.2790    1.5170 h1        1 012      0.060700
     56 H20A        3.7620    1.6390    2.3100 h1        1 012      0.060700
     57 H22         4.2260    3.2630   -1.0910 ha        1 012      0.133000
     58 H23         6.0450    2.5730   -2.6520 ha        1 012      0.131000
     59 H24         7.5480    0.7150   -2.0950 ha        1 012      0.134000
     60 H26         5.4080    0.1740    1.6720 ha        1 012      0.134000
     61 H28         9.2680   -0.1410   -0.6100 h1        1 012      0.038700
     62 H28A        9.1550   -1.9290   -0.2640 h1        1 012      0.038700
     63 H28B        8.3080   -1.2350   -1.7140 h1        1 012      0.038700
     64 H29         6.4630   -1.6750    1.8190 h1        1 012      0.038700
     65 H29A        8.2260   -2.0710    1.6330 h1        1 012      0.038700
     66 H29B        7.7250   -0.4100    2.1960 h1        1 012      0.038700
     67 H30        -3.4380   -2.3810   -1.6310 h1        1 012      0.099700
     68 HN31       -4.7830   -2.1610    0.7350 hn        1 012      0.325500
     69 H35        -3.1110    0.5980   -1.3400 h1        1 012      0.066200
     70 H35A       -3.7400   -0.3620   -2.7650 h1        1 012      0.066200
     71 H36        -5.3160    2.0440   -2.2930 h1        1 012      0.077700
     72 H36A       -6.6590    1.6590   -1.1050 h1        1 012      0.077700
     73 H42        -3.4000    3.2820   -1.5810 ha        1 012      0.147000
     74 H44        -3.0740    4.4460    2.5880 ha        1 012      0.139000
     75 H45        -4.9920    2.9710    3.1460 ha        1 012      0.137000
     76 H46        -6.1280    1.6400    1.3610 ha        1 012      0.155000
     77 H48        -2.0310    6.1780    1.5470 h1        1 012      0.045367
     78 H48A       -0.9260    4.7300    1.7850 h1        1 012      0.045367
     79 H48B       -0.5570    5.9620    0.4690 h1        1 012      0.045367
@<TRIPOS>BOND
     1    1    2 2   
     2    1    3 1   
     3    1   26 1   
     4    3    4 1   
     5    3   41 1   
     6    4    5 1   
     7    4   12 1   
     8    4   42 1   
     9    5    6 1   
    10    5   43 1   
    11    5   44 1   
    12    6    7 ar  
    13    6    8 ar  
    14    7    9 ar  
    15    7   45 1   
    16    8   10 ar  
    17    8   46 1   
    18    9   11 ar  
    19    9   47 1   
    20   10   11 ar  
    21   10   48 1   
    22   11   49 1   
    23   12   13 1   
    24   12   14 1   
    25   12   50 1   
    26   13   51 1   
    27   14   15 1   
    28   14   52 1   
    29   14   53 1   
    30   15   16 1   
    31   15   54 1   
    32   16   17 1   
    33   16   55 1   
    34   16   56 1   
    35   17   18 ar  
    36   17   22 ar  
    37   18   19 ar  
    38   18   57 1   
    39   19   20 ar  
    40   19   58 1   
    41   20   21 ar  
    42   20   59 1   
    43   21   22 ar  
    44   21   23 1   
    45   22   60 1   
    46   23   24 1   
    47   23   25 1   
    48   24   61 1   
    49   24   62 1   
    50   24   63 1   
    51   25   64 1   
    52   25   65 1   
    53   25   66 1   
    54   26   27 1   
    55   26   31 1   
    56   26   67 1   
    57   27   28 1   
    58   27   68 1   
    59   28   29 2   
    60   28   30 1   
    61   30   31 1   
    62   30   32 1   
    63   31   69 1   
    64   31   70 1   
    65   32   33 1   
    66   32   71 1   
    67   32   72 1   
    68   33   34 ar  
    69   33   38 ar  
    70   34   35 ar  
    71   34   73 1   
    72   35   36 ar  
    73   35   39 1   
    74   36   37 ar  
    75   36   74 1   
    76   37   38 ar  
    77   37   75 1   
    78   38   76 1   
    79   39   40 1   
    80   40   77 1   
    81   40   78 1   
    82   40   79 1   
@<TRIPOS>SUBSTRUCTURE
     1 012         1 TEMP              0 ****  ****    0 ROOT
