@<TRIPOS>MOLECULE
012
   81    84     1     0     0
SMALL
bcc


@<TRIPOS>ATOM
      1 C          -1.6750   -0.2050   -0.6300 c         1 012      0.549100
      2 O          -2.6110   -0.6680    0.0100 o         1 012     -0.454100
      3 N          -0.8300    0.7970    0.1070 ny        1 012     -0.668800
      4 CA          0.0810    0.1790    1.1410 c3        1 012      0.118500
      5 CB          0.9350    1.2810    1.7920 c3        1 012     -0.049100
      6 CG          1.4600    2.2670    0.8100 ca        1 012     -0.191300
      7 CD1         1.1240    3.6210    0.9290 ca        1 012     -0.126500
      8 CD2         2.3560    1.8630   -0.1900 ca        1 012     -0.126500
      9 CE1         1.6740    4.5590    0.0550 ca        1 012     -0.113500
     10 CE2         2.9020    2.8020   -1.0620 ca        1 012     -0.113500
     11 CZ          2.5630    4.1510   -0.9400 ca        1 012     -0.087000
     12 C1         -0.7300   -0.6310    2.1900 c3        1 012      0.103100
     13 OG         -1.8030    0.1500    2.6840 oh        1 012     -0.608800
     14 C2          0.1640   -1.0000    3.3930 c3        1 012      0.103800
     15 N2         -0.5970   -1.7010    4.4600 ny        1 012     -0.767000
     16 C20         0.2390   -1.9220    5.6950 c3        1 012      0.184100
     17 C21        -0.5280   -2.7230    6.6920 ca        1 012     -0.141300
     18 C22        -0.7730   -4.0740    6.4360 ca        1 012     -0.192000
     19 C23        -1.4540   -4.8270    7.3920 ca        1 012     -0.071000
     20 C24        -1.8870   -4.2550    8.5770 ca        1 012     -0.160000
     21 C25        -1.6560   -2.8760    8.8540 ca        1 012      0.215600
     22 C26        -0.9590   -2.1190    7.8720 ca        1 012     -0.187000
     23 N27        -2.1330   -2.2820   10.0100 nh        1 012     -0.666000
     24 C28        -2.7470   -3.0980   11.0260 c3        1 012      0.191100
     25 C29        -1.6790   -0.9670   10.3730 c3        1 012      0.191100
     26 C30        -1.3490   -0.5420   -2.0860 c3        1 012     -0.018300
     27 N31        -0.0010   -0.1650   -2.4670 ns        1 012     -0.550900
     28 C32         0.7490   -1.3810   -2.7460 c         1 012      0.748500
     29 O33         1.9500   -1.3700   -3.0270 o         1 012     -0.534500
     30 N34        -0.0950   -2.5250   -2.6540 n         1 012     -0.430800
     31 C35        -1.4340   -2.1090   -2.2670 c3        1 012      0.059000
     32 C36         0.4390   -3.7870   -2.2000 c3        1 012      0.122300
     33 C41         0.9050   -3.8250   -0.7700 ca        1 012     -0.123300
     34 C42        -0.0160   -3.9700    0.2710 ca        1 012     -0.158000
     35 C43         0.4490   -4.0040    1.5910 ca        1 012      0.057100
     36 C44         1.8180   -3.9400    1.8840 ca        1 012     -0.149000
     37 C45         2.7250   -3.8150    0.8330 ca        1 012     -0.105000
     38 C46         2.2730   -3.7480   -0.4860 ca        1 012     -0.097000
     39 O47        -0.4680   -4.0260    2.6390 os        1 012     -0.435900
     40 C48        -0.9930   -5.3340    2.9110 c3        1 012      0.115700
     41 HN         -1.4460    1.4620    0.6000 hn        1 012      0.484300
     42 HA          0.7600   -0.5370    0.5850 hx        1 012      0.122700
     43 HB          1.8060    0.7740    2.2940 hc        1 012      0.087200
     44 HBA         0.3260    1.8020    2.5800 hc        1 012      0.087200
     45 HD1         0.4470    3.9570    1.7310 ha        1 012      0.138500
     46 HD2         2.6530    0.8060   -0.2730 ha        1 012      0.138500
     47 HE1         1.4170    5.6250    0.1630 ha        1 012      0.165000
     48 HE2         3.6150    2.4800   -1.8390 ha        1 012      0.165000
     49 HZ          3.0070    4.8960   -1.6220 ha        1 012      0.168000
     50 H1         -1.1010   -1.5840    1.7070 h1        1 012      0.092700
     51 HOG        -2.6230   -0.1570    2.2640 ho        1 012      0.452000
     52 H2          0.6070   -0.0710    3.8530 hx        1 012      0.119700
     53 H2A         0.9850   -1.6880    3.0320 hx        1 012      0.119700
     54 HN2        -1.4260   -1.1440    4.7060 hn        1 012      0.467800
     55 H20         0.5260   -0.9130    6.1060 hx        1 012      0.103700
     56 H20A        1.1700   -2.4730    5.3760 hx        1 012      0.103700
     57 H22        -0.4130   -4.5480    5.5110 ha        1 012      0.125000
     58 H23        -1.6400   -5.8990    7.2100 ha        1 012      0.154000
     59 H24        -2.4100   -4.8900    9.3110 ha        1 012      0.163000
     60 H26        -0.7390   -1.0550    8.0460 ha        1 012      0.140000
     61 H28        -3.6480   -3.6150   10.5980 h1        1 012      0.053033
     62 H28A       -2.0320   -3.8720   11.4180 h1        1 012      0.053033
     63 H28B       -3.0840   -2.4540   11.8810 h1        1 012      0.053033
     64 H29        -0.5560   -0.9110   10.3890 h1        1 012      0.053033
     65 H29A       -2.0690   -0.2170    9.6330 h1        1 012      0.053033
     66 H29B       -2.0640   -0.6910   11.3900 h1        1 012      0.053033
     67 H30        -2.1520   -0.0330   -2.6980 h1        1 012      0.139700
     68 HN31        0.0740    0.5330   -3.1810 hn        1 012      0.334500
     69 H35        -1.7970   -2.6150   -1.3340 h1        1 012      0.094200
     70 H35A       -2.1440   -2.3410   -3.1100 h1        1 012      0.094200
     71 H36         1.3070   -4.0300   -2.8850 h1        1 012      0.105200
     72 H36A       -0.3640   -4.5650   -2.3560 h1        1 012      0.105200
     73 H42        -1.0900   -4.0960    0.0690 ha        1 012      0.146000
     74 H44         2.1670   -4.0210    2.9240 ha        1 012      0.151000
     75 H45         3.8080   -3.7870    1.0430 ha        1 012      0.168000
     76 H46         3.0000   -3.6450   -1.3100 ha        1 012      0.174000
     77 H48        -1.4560   -5.7620    1.9900 h1        1 012      0.061367
     78 H48A       -1.7640   -5.1540    3.7020 h1        1 012      0.061367
     79 H48B       -0.1770   -5.9970    3.2870 h1        1 012      0.061367
     80 H21        -0.2280    1.3310   -0.5460 hn        1 012      0.484300
     81 H221       -0.9200   -2.6220    4.1180 hn        1 012      0.467800
@<TRIPOS>BOND
     1    1    2 2   
     2    1    3 1   
     3    1   26 1   
     4    3    4 1   
     5    3   41 1   
     6    3   80 1   
     7    4    5 1   
     8    4   12 1   
     9    4   42 1   
    10    5    6 1   
    11    5   43 1   
    12    5   44 1   
    13    6    7 ar  
    14    6    8 ar  
    15    7    9 ar  
    16    7   45 1   
    17    8   10 ar  
    18    8   46 1   
    19    9   11 ar  
    20    9   47 1   
    21   10   11 ar  
    22   10   48 1   
    23   11   49 1   
    24   12   13 1   
    25   12   14 1   
    26   12   50 1   
    27   13   51 1   
    28   14   15 1   
    29   14   52 1   
    30   14   53 1   
    31   15   16 1   
    32   15   54 1   
    33   15   81 1   
    34   16   17 1   
    35   16   55 1   
    36   16   56 1   
    37   17   18 ar  
    38   17   22 ar  
    39   18   19 ar  
    40   18   57 1   
    41   19   20 ar  
    42   19   58 1   
    43   20   21 ar  
    44   20   59 1   
    45   21   22 ar  
    46   21   23 1   
    47   22   60 1   
    48   23   24 1   
    49   23   25 1   
    50   24   61 1   
    51   24   62 1   
    52   24   63 1   
    53   25   64 1   
    54   25   65 1   
    55   25   66 1   
    56   26   27 1   
    57   26   31 1   
    58   26   67 1   
    59   27   28 1   
    60   27   68 1   
    61   28   29 2   
    62   28   30 1   
    63   30   31 1   
    64   30   32 1   
    65   31   69 1   
    66   31   70 1   
    67   32   33 1   
    68   32   71 1   
    69   32   72 1   
    70   33   34 ar  
    71   33   38 ar  
    72   34   35 ar  
    73   34   73 1   
    74   35   36 ar  
    75   35   39 1   
    76   36   37 ar  
    77   36   74 1   
    78   37   38 ar  
    79   37   75 1   
    80   38   76 1   
    81   39   40 1   
    82   40   77 1   
    83   40   78 1   
    84   40   79 1   
@<TRIPOS>SUBSTRUCTURE
     1 012         1 TEMP              0 ****  ****    0 ROOT
