@<TRIPOS>MOLECULE
012
   81    84     1     0     0
SMALL
bcc


@<TRIPOS>ATOM
      1 C          -1.6610   -0.1130   -0.5980 c         1 012      0.549100
      2 O          -2.6030   -0.5740    0.0350 o         1 012     -0.454100
      3 N          -0.7960    0.8590    0.1570 n4        1 012     -0.668800
      4 CA          0.1060    0.2040    1.1750 c3        1 012      0.118500
      5 CB          0.9800    1.2790    1.8460 c3        1 012     -0.049100
      6 CG          1.5200    2.2750    0.8830 ca        1 012     -0.191300
      7 CD1         1.2060    3.6320    1.0310 ca        1 012     -0.126500
      8 CD2         2.4070    1.8770   -0.1270 ca        1 012     -0.126500
      9 CE1         1.7700    4.5780    0.1740 ca        1 012     -0.113500
     10 CE2         2.9660    2.8240   -0.9820 ca        1 012     -0.113500
     11 CZ          2.6500    4.1760   -0.8320 ca        1 012     -0.087000
     12 C1         -0.7160   -0.6130    2.2100 c3        1 012      0.103100
     13 OG         -1.7740    0.1760    2.7230 oh        1 012     -0.608800
     14 C2          0.1740   -1.0210    3.4030 c3        1 012      0.103800
     15 N2         -0.5960   -1.7310    4.4570 n4        1 012     -0.767000
     16 C20         0.2380   -1.9900    5.6860 c3        1 012      0.184100
     17 C21        -0.5390   -2.7980    6.6680 ca        1 012     -0.141300
     18 C22        -0.8050   -4.1400    6.3850 ca        1 012     -0.192000
     19 C23        -1.4960   -4.9020    7.3280 ca        1 012     -0.071000
     20 C24        -1.9200   -4.3460    8.5250 ca        1 012     -0.160000
     21 C25        -1.6670   -2.9770    8.8280 ca        1 012      0.215600
     22 C26        -0.9600   -2.2120    7.8600 ca        1 012     -0.187000
     23 N27        -2.1340   -2.3980    9.9970 nh        1 012     -0.666000
     24 C28        -2.7590   -3.2250   10.9970 c3        1 012      0.191100
     25 C29        -1.6590   -1.0980   10.3840 c3        1 012      0.191100
     26 C30        -1.3450   -0.4260   -2.0620 c3        1 012     -0.018300
     27 N31         0.0080   -0.0620   -2.4410 n         1 012     -0.550900
     28 C32         0.7360   -1.2850   -2.7460 c         1 012      0.748500
     29 O33         1.9370   -1.2870   -3.0320 o         1 012     -0.534500
     30 N34        -0.1250   -2.4160   -2.6740 n         1 012     -0.430800
     31 C35        -1.4560   -1.9870   -2.2750 c3        1 012      0.059000
     32 C36         0.3890   -3.6960   -2.2480 c3        1 012      0.122300
     33 C41         0.8600   -3.7710   -0.8220 ca        1 012     -0.123300
     34 C42        -0.0600   -3.9220    0.2200 ca        1 012     -0.158000
     35 C43         0.4090   -3.9900    1.5370 ca        1 012      0.057100
     36 C44         1.7800   -3.9540    1.8270 ca        1 012     -0.149000
     37 C45         2.6850   -3.8220    0.7750 ca        1 012     -0.105000
     38 C46         2.2300   -3.7210   -0.5400 ca        1 012     -0.097000
     39 O47        -0.5040   -4.0190    2.5880 os        1 012     -0.435900
     40 C48        -1.0490   -5.3240    2.8360 c3        1 012      0.115700
     41 HN         -1.4000    1.5240    0.6650 hn        1 012      0.484300
     42 HA          0.7710   -0.5110    0.6030 hx        1 012      0.122700
     43 HB          0.3820    1.7930    2.6470 hc        1 012      0.087200
     44 HBA         1.8430    0.7470    2.3350 hc        1 012      0.087200
     45 HD1         0.5370    3.9630    1.8400 ha        1 012      0.138500
     46 HD2         2.6860    0.8170   -0.2320 ha        1 012      0.138500
     47 HE1         1.5310    5.6460    0.3040 ha        1 012      0.165000
     48 HE2         3.6720    2.5060   -1.7660 ha        1 012      0.165000
     49 HZ          3.1060    4.9270   -1.4990 ha        1 012      0.168000
     50 H1         -1.1040   -1.5500    1.7090 h1        1 012      0.092700
     51 HOG        -2.6000   -0.1080    2.2990 ho        1 012      0.452000
     52 H2          0.6340   -0.1100    3.8810 hx        1 012      0.119700
     53 H2A         0.9830   -1.7150    3.0250 hx        1 012      0.119700
     54 HN2        -1.4160   -1.1660    4.7160 hn        1 012      0.467800
     55 H20         1.1600   -2.5490    5.3550 hx        1 012      0.103700
     56 H20A        0.5420   -0.9930    6.1160 hx        1 012      0.103700
     57 H22        -0.4530   -4.6020    5.4510 ha        1 012      0.125000
     58 H23        -1.6990   -5.9670    7.1250 ha        1 012      0.154000
     59 H24        -2.4510   -4.9880    9.2470 ha        1 012      0.163000
     60 H26        -0.7230   -1.1550    8.0550 ha        1 012      0.140000
     61 H28        -2.0550   -4.0170   11.3720 h1        1 012      0.053033
     62 H28A       -3.0860   -2.5930   11.8650 h1        1 012      0.053033
     63 H28B       -3.6680   -3.7200   10.5600 h1        1 012      0.053033
     64 H29        -2.0390   -0.3270    9.6600 h1        1 012      0.053033
     65 H29A       -2.0390   -0.8360   11.4080 h1        1 012      0.053033
     66 H29B       -0.5360   -1.0590   10.4000 h1        1 012      0.053033
     67 H30        -2.1420    0.1080   -2.6610 h1        1 012      0.139700
     68 HN31        0.0910    0.6490   -3.1400 hn        1 012      0.334500
     69 H35        -2.1720   -2.1900   -3.1190 h1        1 012      0.094200
     70 H35A       -1.8240   -2.5060   -1.3510 h1        1 012      0.094200
     71 H36        -0.4260   -4.4580   -2.4170 h1        1 012      0.105200
     72 H36A        1.2520   -3.9380   -2.9410 h1        1 012      0.105200
     73 H42        -1.1360   -4.0270    0.0190 ha        1 012      0.146000
     74 H44         2.1310   -4.0610    2.8640 ha        1 012      0.151000
     75 H45         3.7690   -3.8150    0.9820 ha        1 012      0.168000
     76 H46         2.9560   -3.6130   -1.3660 ha        1 012      0.174000
     77 H48        -0.2420   -6.0070    3.1950 h1        1 012      0.061367
     78 H48A       -1.8150   -5.1480    3.6330 h1        1 012      0.061367
     79 H48B       -1.5220   -5.7260    1.9080 h1        1 012      0.061367
     80 H21        -0.1870    1.3950   -0.4870 hn        1 012      0.484300
     81 H221       -0.9340   -2.6400    4.0970 hn        1 012      0.467800
@<TRIPOS>BOND
     1    1    2 2   
     2    1    3 1   
     3    1   26 1   
     4    3    4 1   
     5    3   41 1   
     6    3   80 1   
     7    4    5 1   
     8    4   12 1   
     9    4   42 1   
    10    5    6 1   
    11    5   43 1   
    12    5   44 1   
    13    6    7 ar  
    14    6    8 ar  
    15    7    9 ar  
    16    7   45 1   
    17    8   10 ar  
    18    8   46 1   
    19    9   11 ar  
    20    9   47 1   
    21   10   11 ar  
    22   10   48 1   
    23   11   49 1   
    24   12   13 1   
    25   12   14 1   
    26   12   50 1   
    27   13   51 1   
    28   14   15 1   
    29   14   52 1   
    30   14   53 1   
    31   15   16 1   
    32   15   54 1   
    33   15   81 1   
    34   16   17 1   
    35   16   55 1   
    36   16   56 1   
    37   17   18 ar  
    38   17   22 ar  
    39   18   19 ar  
    40   18   57 1   
    41   19   20 ar  
    42   19   58 1   
    43   20   21 ar  
    44   20   59 1   
    45   21   22 ar  
    46   21   23 1   
    47   22   60 1   
    48   23   24 1   
    49   23   25 1   
    50   24   61 1   
    51   24   62 1   
    52   24   63 1   
    53   25   64 1   
    54   25   65 1   
    55   25   66 1   
    56   26   27 1   
    57   26   31 1   
    58   26   67 1   
    59   27   28 1   
    60   27   68 1   
    61   28   29 2   
    62   28   30 1   
    63   30   31 1   
    64   30   32 1   
    65   31   69 1   
    66   31   70 1   
    67   32   33 1   
    68   32   71 1   
    69   32   72 1   
    70   33   34 ar  
    71   33   38 ar  
    72   34   35 ar  
    73   34   73 1   
    74   35   36 ar  
    75   35   39 1   
    76   36   37 ar  
    77   36   74 1   
    78   37   38 ar  
    79   37   75 1   
    80   38   76 1   
    81   39   40 1   
    82   40   77 1   
    83   40   78 1   
    84   40   79 1   
@<TRIPOS>SUBSTRUCTURE
     1 012         1 TEMP              0 ****  ****    0 ROOT
