@<TRIPOS>MOLECULE
012
   82    85     1     0     0
SMALL
bcc


@<TRIPOS>ATOM
      1 C          -1.6240   -0.1130   -0.8370 c         1 012      0.552100
      2 O          -2.6180   -0.5210   -0.2490 o         1 012     -0.459100
      3 N          -0.8270    0.9210   -0.0860 n4        1 012     -0.670800
      4 CA          0.0430    0.3330    0.9970 c3        1 012      0.113500
      5 CB          0.8460    1.4600    1.6760 c3        1 012     -0.044100
      6 CG          1.3670    2.4580    0.7050 ca        1 012     -0.194300
      7 CD1         0.6480    3.6380    0.4630 ca        1 012     -0.130000
      8 CD2         2.6040    2.2620    0.0800 ca        1 012     -0.130000
      9 CE1         1.1620    4.6070   -0.3950 ca        1 012     -0.108500
     10 CE2         3.1140    3.2340   -0.7820 ca        1 012     -0.108500
     11 CZ          2.3960    4.4060   -1.0190 ca        1 012     -0.079000
     12 C1         -0.8020   -0.4840    2.0150 c3        1 012      0.106100
     13 OG         -1.8830    0.2870    2.5070 oh        1 012     -0.613800
     14 C2          0.0610   -0.8760    3.2350 c3        1 012      0.105800
     15 N2         -0.7490   -1.5320    4.3060 n4        1 012     -0.766000
     16 C20         0.0720   -1.7740    5.5360 c3        1 012      0.168100
     17 C21        -0.6540   -2.5560    6.5880 ca        1 012     -0.146300
     18 C22        -1.1270   -3.8440    6.3060 ca        1 012     -0.081000
     19 C23        -1.7150   -4.6060    7.3140 ca        1 012     -0.085000
     20 C24        -1.8200   -4.1080    8.6120 ca        1 012     -0.056000
     21 C25        -1.3340   -2.8200    8.9000 ca        1 012     -0.025400
     22 C26        -0.7600   -2.0340    7.8820 ca        1 012     -0.076000
     23 N27        -1.4090   -2.2920   10.2750 n4        1 012     -0.555800
     24 C28        -2.8220   -2.1950   10.7470 c3        1 012      0.084600
     25 C29        -0.5920   -3.1170   11.2150 c3        1 012      0.084600
     26 C30        -1.1670   -0.5450   -2.2330 c3        1 012     -0.017300
     27 N31         0.2360   -0.2560   -2.4700 n         1 012     -0.549900
     28 C32         0.9480   -1.5220   -2.5680 c         1 012      0.749500
     29 O33         2.1760   -1.5920   -2.6670 o         1 012     -0.531500
     30 N34         0.0370   -2.6110   -2.5210 n         1 012     -0.443800
     31 C35        -1.3170   -2.1150   -2.3410 c3        1 012      0.065000
     32 C36         0.4370   -3.8930   -2.0010 c3        1 012      0.126300
     33 C41         0.7840   -3.9220   -0.5360 ca        1 012     -0.112300
     34 C42        -0.2230   -4.0060    0.4310 ca        1 012     -0.160000
     35 C43         0.1370   -4.0610    1.7820 ca        1 012      0.048100
     36 C44         1.4800   -4.0550    2.1820 ca        1 012     -0.161000
     37 C45         2.4720   -3.9770    1.2060 ca        1 012     -0.100000
     38 C46         2.1280   -3.9050   -0.1460 ca        1 012     -0.091000
     39 O47        -0.8490   -4.0650    2.7700 os        1 012     -0.450900
     40 C48        -1.5960   -5.2900    2.8280 c3        1 012      0.117700
     41 HN         -1.4660    1.5970    0.3580 hn        1 012      0.485300
     42 HA          0.7630   -0.3740    0.4830 hx        1 012      0.128700
     43 HB          0.1930    1.9670    2.4380 hc        1 012      0.082200
     44 HBA         1.7110    0.9780    2.2090 hc        1 012      0.082200
     45 HD1        -0.3010    3.8260    0.9880 ha        1 012      0.135000
     46 HD2         3.1880    1.3500    0.2760 ha        1 012      0.135000
     47 HE1         0.6040    5.5420   -0.5690 ha        1 012      0.170000
     48 HE2         4.0940    3.0790   -1.2640 ha        1 012      0.170000
     49 HZ          2.8080    5.1820   -1.6880 ha        1 012      0.176000
     50 H1         -1.1700   -1.4280    1.5110 h1        1 012      0.090700
     51 HOG        -2.6720    0.0820    1.9780 ho        1 012      0.458000
     52 H2          0.8560   -1.6070    2.8940 hx        1 012      0.127200
     53 H2A         0.5390    0.0390    3.6880 hx        1 012      0.127200
     54 HN2        -1.5500   -0.9240    4.5290 hn        1 012      0.474300
     55 H20         0.9920   -2.3530    5.2200 hx        1 012      0.119200
     56 H20A        0.3990   -0.7700    5.9350 hx        1 012      0.119200
     57 H22        -1.0220   -4.2750    5.2930 ha        1 012      0.168000
     58 H23        -2.0910   -5.6230    7.0920 ha        1 012      0.195000
     59 H24        -2.2760   -4.7420    9.3950 ha        1 012      0.184000
     60 H26        -0.3770   -1.0210    8.0950 ha        1 012      0.162000
     61 H28        -3.2740   -3.2210   10.8060 hx        1 012      0.116033
     62 H28A       -2.8300   -1.7250   11.7690 hx        1 012      0.116033
     63 H28B       -3.4130   -1.5620   10.0330 hx        1 012      0.116033
     64 H29        -0.6270   -2.6430   12.2350 hx        1 012      0.116033
     65 H29A       -1.0130   -4.1560   11.2710 hx        1 012      0.116033
     66 H29B        0.4690   -3.1580   10.8500 hx        1 012      0.116033
     67 H30        -1.8680   -0.0320   -2.9560 h1        1 012      0.147700
     68 HN31        0.4320    0.3790   -3.2210 hn        1 012      0.340500
     69 H35        -1.8220   -2.5490   -1.4380 h1        1 012      0.095200
     70 H35A       -1.9250   -2.3610   -3.2570 h1        1 012      0.095200
     71 H36        -0.4020   -4.6210   -2.2050 h1        1 012      0.109200
     72 H36A        1.3400   -4.2160   -2.6040 h1        1 012      0.109200
     73 H42        -1.2820   -4.0730    0.1380 ha        1 012      0.148000
     74 H44         1.7430   -4.1540    3.2440 ha        1 012      0.140000
     75 H45         3.5350   -3.9980    1.4990 ha        1 012      0.172000
     76 H46         2.9220   -3.8480   -0.9120 ha        1 012      0.183000
     77 H48        -2.4150   -5.0730    3.5580 h1        1 012      0.062033
     78 H48A       -2.0160   -5.5390    1.8240 h1        1 012      0.062033
     79 H48B       -0.9340   -6.1140    3.1900 h1        1 012      0.062033
     80 H21        -0.2030    1.4480   -0.7260 hn        1 012      0.485300
     81 H221       -1.1170   -2.4330    3.9550 hn        1 012      0.474300
     82 H271       -1.0140   -1.3380   10.2710 hn        1 012      0.457800
@<TRIPOS>BOND
     1    1    2 2   
     2    1    3 1   
     3    1   26 1   
     4    3    4 1   
     5    3   41 1   
     6    3   80 1   
     7    4    5 1   
     8    4   12 1   
     9    4   42 1   
    10    5    6 1   
    11    5   43 1   
    12    5   44 1   
    13    6    7 ar  
    14    6    8 ar  
    15    7    9 ar  
    16    7   45 1   
    17    8   10 ar  
    18    8   46 1   
    19    9   11 ar  
    20    9   47 1   
    21   10   11 ar  
    22   10   48 1   
    23   11   49 1   
    24   12   13 1   
    25   12   14 1   
    26   12   50 1   
    27   13   51 1   
    28   14   15 1   
    29   14   52 1   
    30   14   53 1   
    31   15   16 1   
    32   15   54 1   
    33   15   81 1   
    34   16   17 1   
    35   16   55 1   
    36   16   56 1   
    37   17   18 ar  
    38   17   22 ar  
    39   18   19 ar  
    40   18   57 1   
    41   19   20 ar  
    42   19   58 1   
    43   20   21 ar  
    44   20   59 1   
    45   21   22 ar  
    46   21   23 1   
    47   22   60 1   
    48   23   24 1   
    49   23   25 1   
    50   23   82 1   
    51   24   61 1   
    52   24   62 1   
    53   24   63 1   
    54   25   64 1   
    55   25   65 1   
    56   25   66 1   
    57   26   27 1   
    58   26   31 1   
    59   26   67 1   
    60   27   28 1   
    61   27   68 1   
    62   28   29 2   
    63   28   30 1   
    64   30   31 1   
    65   30   32 1   
    66   31   69 1   
    67   31   70 1   
    68   32   33 1   
    69   32   71 1   
    70   32   72 1   
    71   33   34 ar  
    72   33   38 ar  
    73   34   35 ar  
    74   34   73 1   
    75   35   36 ar  
    76   35   39 1   
    77   36   37 ar  
    78   36   74 1   
    79   37   38 ar  
    80   37   75 1   
    81   38   76 1   
    82   39   40 1   
    83   40   77 1   
    84   40   78 1   
    85   40   79 1   
@<TRIPOS>SUBSTRUCTURE
     1 012         1 TEMP              0 ****  ****    0 ROOT
