@<TRIPOS>MOLECULE
013
   15    12     1     0     0
SMALL
bcc


@<TRIPOS>ATOM
      1 C1         -1.6510   -1.3820    1.0480 c1        1 013     -0.100000
      2 C2         -0.6240   -0.3970    0.6650 c1        1 013     -0.461000
      3 S3         -0.5660    0.6670    1.7610 ss        1 013      0.525000
      4 C4         -1.6240    0.2790    2.8520 c1        1 013     -0.343000
      5 N5         -2.2700   -0.9360    2.4330 n2        1 013     -0.103000
      6 C6          0.3140   -0.4740   -0.5930 c2        1 013      0.070000
      7 O7          1.0990    0.7050   -0.6680 os        1 013     -0.222000
      8 C10         1.8210    0.8110   -1.8140 c2        1 013      0.397000
      9 O24         2.6860   -0.0540   -2.0920 o         1 013     -0.403000
     10 H1         -1.9030   -2.1680    0.5410 DU        1 013      0.199000
     11 H4         -1.8100    0.7680    3.6610 DU        1 013      0.199000
     12 H61         0.9210   -1.2810   -0.5100 h4        1 013      0.123000
     13 H62A       -0.2550   -0.5590   -1.4400 h4        1 013      0.123000
     14 OXT         1.5480    1.8720   -2.7350 oh        1 013     -0.261000
     15 HXT         2.3140    2.1480   -3.1100 ho        1 013      0.257000
@<TRIPOS>BOND
     1    1    2 1   
     2    1    5 1   
     3    2    3 1   
     4    3    4 1   
     5    4    5 1   
     6    6    7 1   
     7    6   12 1   
     8    6   13 1   
     9    7    8 1   
    10    8    9 1   
    11    8   14 1   
    12   14   15 1   
@<TRIPOS>SUBSTRUCTURE
     1 013         1 TEMP              0 ****  ****    0 ROOT
