@<TRIPOS>MOLECULE
013
   15    15     1     0     0
SMALL
bcc


@<TRIPOS>ATOM
      1 C1          0.9990    1.2170   -0.0490 cc        1 013      0.365200
      2 C2          0.7330   -0.0340    0.5110 cd        1 013     -0.263700
      3 S3          2.0120   -1.0830    0.1940 ss        1 013     -0.059300
      4 C4          2.8410    0.1440   -0.6430 cd        1 013      0.371300
      5 N5          2.2090    1.3160   -0.7110 nc        1 013     -0.629000
      6 C6         -0.4750   -0.3670    1.2820 c3        1 013      0.227700
      7 O7         -1.5700   -0.7610    0.4240 os        1 013     -0.383900
      8 C10        -2.2850    0.2510   -0.1170 c         1 013      0.766200
      9 O24        -2.1480    1.4550    0.0940 o         1 013     -0.592000
     10 H1          0.3270    2.0860   -0.0070 h4        1 013      0.067100
     11 H4          3.8240    0.0010   -1.1010 h5        1 013      0.057100
     12 H61        -0.3340   -1.2890    1.9120 h1        1 013      0.083700
     13 H62A       -0.7930    0.5030    1.9190 h1        1 013      0.083700
     14 OXT        -3.2230   -0.2800   -0.9310 oh        1 013     -0.552100
     15 HXT        -3.7350    0.4580   -1.3070 ho        1 013      0.458000
@<TRIPOS>BOND
     1    1    2 2   
     2    1    5 1   
     3    1   10 1   
     4    2    3 1   
     5    2    6 1   
     6    3    4 1   
     7    4    5 2   
     8    4   11 1   
     9    6    7 1   
    10    6   12 1   
    11    6   13 1   
    12    7    8 1   
    13    8    9 2   
    14    8   14 1   
    15   14   15 1   
@<TRIPOS>SUBSTRUCTURE
     1 013         1 TEMP              0 ****  ****    0 ROOT
