@<TRIPOS>MOLECULE
013
   15    13     1     0     0
SMALL
bcc


@<TRIPOS>ATOM
      1 C1         -0.0750   -0.6080    0.8240 c2        1 013     -0.041000
      2 C2          0.8130    0.3630    0.5280 c2        1 013     -0.338000
      3 S3          1.3020    1.7250    1.3570 sh        1 013      0.176000
      4 C4         -1.4960   -0.7920    2.9380 c1        1 013      0.124000
      5 N5         -0.8290   -0.6880    1.9650 n2        1 013     -0.306000
      6 C6          2.3980    0.0160   -2.4930 c1        1 013      0.045000
      7 O7          3.0940    1.0910   -2.3520 os        1 013     -0.162000
      8 C10         4.0180    1.5650   -3.3040 c2        1 013      0.320000
      9 O24         4.2450    0.9950   -4.3570 o         1 013     -0.294000
     10 H1         -0.2530   -1.4430    0.1150 h4        1 013      0.159000
     11 H4          0.5820    1.6590    2.4620 hs        1 013      0.018000
     12 H61         1.3460    0.2800   -0.4470 h4        1 013      0.202000
     13 H62A        2.5190   -0.5920   -3.4170 ha        1 013      0.060000
     14 OXT         4.6000    2.7000   -2.9050 oh        1 013     -0.230000
     15 HXT         4.2530    2.9570   -2.0300 ho        1 013      0.267000
@<TRIPOS>BOND
     1    1    2 1   
     2    1    5 1   
     3    1   10 1   
     4    2    3 1   
     5    2   12 1   
     6    3   11 1   
     7    4    5 1   
     8    6    7 1   
     9    6   13 1   
    10    7    8 1   
    11    8    9 1   
    12    8   14 1   
    13   14   15 1   
@<TRIPOS>SUBSTRUCTURE
     1 013         1 TEMP              0 ****  ****    0 ROOT
