@<TRIPOS>MOLECULE
013
   14    12     1     0     0
SMALL
bcc


@<TRIPOS>ATOM
      1 C1          0.8960   -0.0550    0.2900 c2        1 013     -0.210000
      2 C2          1.2260    0.6180    1.3830 c2        1 013     -0.403000
      3 S3          0.6390    0.5720    2.9720 ss        1 013      0.431000
      4 C4         -0.5310   -0.5350    3.0150 c1        1 013     -0.350000
      5 N5         -1.3890   -1.3270    3.1090 n1        1 013     -0.056000
      6 C6          2.1890    0.3380   -2.2990 c1        1 013     -0.122000
      7 O7          3.1010    1.2270   -2.3170 os        1 013     -0.207000
      8 C10         3.8730    1.5680   -3.5450 c2        1 013      0.367000
      9 O24         3.5280    0.8940   -4.5290 o         1 013     -0.491000
     10 H1          1.4230    0.1220   -0.7180 ha        1 013      0.175500
     11 H4          0.1060   -0.8170    0.2790 ha        1 013      0.175500
     12 H61         2.0290    1.3790    1.3530 h4        1 013      0.165000
     13 H62A        1.9690   -0.2000   -3.2530 ha        1 013      0.016000
     14 OXT         4.6910    2.4590   -3.2860 o         1 013     -0.491000
@<TRIPOS>BOND
     1    1    2 1   
     2    1   10 1   
     3    1   11 1   
     4    2    3 1   
     5    2   12 1   
     6    3    4 1   
     7    4    5 1   
     8    6    7 1   
     9    6   13 1   
    10    7    8 1   
    11    8    9 1   
    12    8   14 1   
@<TRIPOS>SUBSTRUCTURE
     1 013         1 TEMP              0 ****  ****    0 ROOT
