@<TRIPOS>MOLECULE
014
   24    33     1     0     0
SMALL
bcc


@<TRIPOS>ATOM
      1 F           0.0000    0.0000    0.0000 f         1 014     -0.059000
      2 Cl          0.3840    0.0160   -2.9170 cl        1 014      0.100000
      3 N1          7.7330   -0.0150    1.5880 n2        1 014     -0.286000
      4 O1         11.8010   -0.0270    0.3690 o         1 014     -0.510000
      5 C2          9.3710   -0.0150    0.1170 DU        1 014     -0.487000
      6 N2          7.1810   -0.0060    0.3020 n3        1 014      0.218000
      7 O2         10.8880   -0.0070   -1.6540 o         1 014     -0.510000
      8 C3          9.0340   -0.0200    1.4910 c3        1 014     -0.217000
      9 N3          4.8160    0.0000    0.9200 n7        1 014     -0.212000
     10 C4          8.1870   -0.0060   -0.5930 c2        1 014     -0.190000
     11 N4          5.3240    0.0080   -1.2080 n2        1 014     -0.113000
     12 C5          5.8240    0.0000    0.0000 c2        1 014      0.042000
     13 C6          3.6220    0.0030    0.2210 c3        1 014      0.209000
     14 C7          2.2860   -0.0010    0.5990 c2        1 014      0.083000
     15 C8          1.3000    0.0030   -0.3670 c2        1 014     -0.076000
     16 C10         1.6370    0.0110   -1.7160 c3        1 014     -0.108000
     17 C11         2.9580    0.0140   -2.1060 c2        1 014     -0.069000
     18 C12         3.9670    0.0100   -1.1400 DU        1 014     -0.215000
     19 H3          9.7440    0.0660    0.6780 DU        1 014      0.401000
     20 H4          8.6950   -0.0140    0.3630 DU        1 014      0.232000
     21 H7          3.2620   -0.0030    0.1280 ha        1 014     -0.242000
     22 H11         2.6950   -0.0140   -1.0560 DU        1 014      0.127000
     23 HN3         4.4500    0.0240   -0.0110 DU        1 014      0.403000
     24 C1         10.7310   -0.0170   -0.4490 c2        1 014      0.479000
@<TRIPOS>BOND
     1    1   15 1   
     2    2   16 1   
     3    3    6 1   
     4    3    8 1   
     5    4   24 1   
     6    5    8 1   
     7    5   10 1   
     8    5   19 1   
     9    5   20 1   
    10    5   24 1   
    11    6   10 1   
    12    6   12 1   
    13    7   24 1   
    14    8   19 1   
    15    8   20 1   
    16    9   12 1   
    17    9   13 1   
    18    9   23 1   
    19   10   20 1   
    20   11   12 1   
    21   11   18 1   
    22   13   14 1   
    23   13   18 1   
    24   13   23 1   
    25   14   15 1   
    26   14   21 1   
    27   15   16 1   
    28   16   17 1   
    29   16   22 1   
    30   17   18 1   
    31   17   22 1   
    32   18   22 1   
    33   18   23 1   
@<TRIPOS>SUBSTRUCTURE
     1 014         1 TEMP              0 ****  ****    0 ROOT
