@<TRIPOS>MOLECULE
014
   24    26     1     0     0
SMALL
bcc


@<TRIPOS>ATOM
      1 F          -5.1120    1.4760   -0.0010 f         1 014     -0.140900
      2 CL         -5.2300   -1.5090   -0.0030 cl        1 014     -0.097400
      3 N1          2.6840    1.6590    0.0010 nc        1 014     -0.577800
      4 O1          6.5820    0.0170    0.0010 o         1 014     -0.819800
      5 C2          4.2210   -0.0810   -0.0000 cd        1 014     -0.260900
      6 N2          2.0340    0.4540   -0.0000 na        1 014      0.012300
      7 O2          5.6140   -2.0030   -0.0010 o         1 014     -0.819800
      8 C3          3.9950    1.3670    0.0010 cd        1 014      0.368200
      9 N3         -0.2100    1.4900    0.0000 na        1 014     -0.285300
     10 C4          2.9530   -0.6390   -0.0010 cc        1 014     -0.077300
     11 N4         -0.0680   -0.8370   -0.0020 nc        1 014     -0.607100
     12 C5          0.6400    0.3400   -0.0010 cd        1 014      0.581300
     13 C6         -1.5180    1.0080   -0.0010 ca        1 014     -0.059200
     14 C7         -2.7490    1.6570   -0.0000 ca        1 014     -0.164000
     15 C8         -3.9040    0.8590   -0.0010 ca        1 014      0.118900
     16 C10        -3.8150   -0.5580   -0.0020 ca        1 014     -0.035600
     17 C11        -2.5850   -1.2110   -0.0020 ca        1 014     -0.067000
     18 C12        -1.4160   -0.4450   -0.0020 ca        1 014      0.093400
     19 H3          4.7870    2.1200    0.0020 h4        1 014      0.059100
     20 H4          2.6120   -1.6750   -0.0020 h4        1 014      0.201000
     21 H7         -2.8350    2.7520    0.0010 ha        1 014      0.150000
     22 H11        -2.5270   -2.3110   -0.0030 ha        1 014      0.164000
     23 HN3         0.0800    2.4330    0.0010 hn        1 014      0.325700
     24 C1          5.5730   -0.7430   -0.0000 c         1 014      0.936200
@<TRIPOS>BOND
     1    1   15 1   
     2    2   16 1   
     3    3    6 1   
     4    3    8 2   
     5    4   24 1   
     6    5    8 1   
     7    5   10 2   
     8    5   24 1   
     9    6   10 1   
    10    6   12 1   
    11    7   24 1   
    12    8   19 1   
    13    9   12 1   
    14    9   13 1   
    15    9   23 1   
    16   10   20 1   
    17   11   12 2   
    18   11   18 1   
    19   13   14 ar  
    20   13   18 ar  
    21   14   15 ar  
    22   14   21 1   
    23   15   16 ar  
    24   16   17 ar  
    25   17   18 ar  
    26   17   22 1   
@<TRIPOS>SUBSTRUCTURE
     1 014         1 TEMP              0 ****  ****    0 ROOT
