@<TRIPOS>MOLECULE
014
   24    20     1     0     0
SMALL
bcc


@<TRIPOS>ATOM
      1 F          -5.6290    0.0110    0.2210 f         1 014     -0.106000
      2 CL         -5.3570   -0.2240   -2.5300 cl        1 014     -0.019000
      3 C1          5.1750   -0.5330    0.5130 c1        1 014      0.385000
      4 N1          2.0240    1.3010    0.1610 n2        1 014     -0.145000
      5 O1          5.7460   -0.5820    1.6340 o         1 014     -0.554500
      6 C2          3.7520   -0.0310    0.4110 c1        1 014     -0.175000
      7 N2          1.5630    0.0110    0.2410 n3        1 014     -0.143000
      8 O2          5.8110   -0.8320   -0.5310 o         1 014     -0.554500
      9 C3          3.3690    1.2710    0.2650 c1        1 014     -0.097000
     10 N3         -0.7930    0.0110    1.1250 n2        1 014     -0.211000
     11 C4          2.6270   -0.8040    0.3950 c1        1 014     -0.053000
     12 N4         -0.3240    0.0110   -1.0240 n2        1 014     -0.211000
     13 C5          0.2220    0.0110    0.2210 c2        1 014      0.216000
     14 C6         -1.9640    0.0110    0.4420 c1        1 014     -0.030000
     15 C7         -3.3060    0.0110    0.8690 c1        1 014     -0.164000
     16 C8         -4.3300    0.0110   -0.0640 c2        1 014      0.084000
     17 C10        -4.0350    0.0110   -1.4180 c2        1 014     -0.114000
     18 C11        -2.7140    0.0110   -1.8390 c1        1 014     -0.067000
     19 C12        -1.6730    0.0110   -0.8910 c1        1 014     -0.030000
     20 H3          3.9620    2.0460    0.2560 DU        1 014      0.224333
     21 H4          2.5980   -1.7760    0.4800 DU        1 014      0.224333
     22 H7         -3.5140    0.0130    1.8220 ha        1 014      0.150000
     23 H11        -2.5060    0.0190   -2.7930 ha        1 014      0.164000
     24 HN3        -0.7020    0.0090    2.0330 DU        1 014      0.224333
@<TRIPOS>BOND
     1    1   16 1   
     2    2   17 1   
     3    3    5 1   
     4    3    8 1   
     5    4    7 1   
     6    4    9 1   
     7    6    9 1   
     8    6   11 1   
     9    7   11 1   
    10    7   13 1   
    11   10   13 1   
    12   10   14 1   
    13   12   13 1   
    14   12   19 1   
    15   14   19 1   
    16   15   16 1   
    17   15   22 1   
    18   16   17 1   
    19   17   18 1   
    20   18   23 1   
@<TRIPOS>SUBSTRUCTURE
     1 014         1 TEMP              0 ****  ****    0 ROOT
