@<TRIPOS>MOLECULE
014
   24    23     1     0     0
SMALL
bcc


@<TRIPOS>ATOM
      1 F           0.7520    1.4430    0.5510 f         1 014     -0.160500
      2 CL          0.0570    0.1940   -2.1760 cl        1 014     -0.089400
      3 N1         11.1690    0.7520    4.8540 n1        1 014     -0.505800
      4 O1          8.7430   -0.2590    1.4620 o         1 014     -0.812800
      5 C2          8.9950   -0.1670   -0.9350 ce        1 014     -0.258300
      6 N2          6.7870   -1.2960   -1.5480 ne        1 014     -0.562700
      7 O2         10.6460    0.5220    0.6140 o         1 014     -0.812800
      8 C3         10.7510    0.5770    3.7840 c1        1 014      0.236300
      9 N3          5.1260    0.3350   -0.7180 ne        1 014     -0.592700
     10 C4          7.8340   -0.6690   -1.2500 c1        1 014      0.315500
     11 N4          4.7620   -0.9300   -2.7650 nf        1 014     -0.624300
     12 C5          5.5220   -0.6580   -1.7110 ce        1 014      0.926300
     13 C6          4.0850    0.3400   -0.0550 c1        1 014      0.394500
     14 C7          2.9650    0.5200    0.6350 ce        1 014     -0.310100
     15 C8          1.6920    0.7000   -0.0740 ce        1 014      0.191500
     16 C10         1.4820    0.0750   -1.2760 cf        1 014     -0.040600
     17 C11         2.5820   -0.7510   -1.7440 ce        1 014     -0.210000
     18 C12         3.4450   -0.4400   -2.7400 cf        1 014      0.094600
     19 H3         10.3580    0.4130    2.7790 ha        1 014      0.255500
     20 H4          9.7170    0.1290   -1.7140 ha        1 014      0.163000
     21 H7          2.9450    0.4950    1.7330 ha        1 014      0.181000
     22 H11         2.7950   -1.6060   -1.0700 ha        1 014      0.149000
     23 HN3         3.1940    0.2510   -3.5650 h4        1 014      0.154000
     24 C1          9.4850    0.0410    0.4880 c         1 014      0.917800
@<TRIPOS>BOND
     1    1   15 1   
     2    2   16 1   
     3    3    8 3   
     4    4   24 1   
     5    5   10 2   
     6    5   20 1   
     7    5   24 1   
     8    6   10 2   
     9    6   12 1   
    10    7   24 1   
    11    8   19 1   
    12    9   12 1   
    13    9   13 2   
    14   11   12 2   
    15   11   18 1   
    16   13   14 2   
    17   14   15 1   
    18   14   21 1   
    19   15   16 2   
    20   16   17 1   
    21   17   18 2   
    22   17   22 1   
    23   18   23 1   
@<TRIPOS>SUBSTRUCTURE
     1 014         1 TEMP              0 ****  ****    0 ROOT
