@<TRIPOS>MOLECULE
015
   45    42     1     0     0
SMALL
bcc


@<TRIPOS>ATOM
      1 N11        -2.7540    1.6780   -0.9820 n3        1 015     -0.320000
      2 C12        -1.4390    1.1950   -0.9840 c3        1 015     -0.023000
      3 C13        -0.8900    1.2000    0.4520 c3        1 015     -0.002000
      4 C14        -1.1890   -0.1440    1.1200 c3        1 015     -0.194000
      5 C15        -0.1500   -0.4250    2.1860 c3        1 015     -0.032000
      6 C26        -0.5700    2.0830   -1.8590 c3        1 015     -0.118000
      7 C28        -0.8330    1.7640   -3.3480 c2        1 015     -0.061000
      8 C31        -1.6930    2.5630   -4.0850 c1        1 015     -0.107000
      9 C32        -1.8960    2.3050   -5.4360 c1        1 015     -0.129500
     10 C33        -1.2380    1.2460   -6.0470 c1        1 015     -0.129500
     11 C34        -0.3770    0.4460   -5.3100 c1        1 015     -0.132000
     12 C35        -0.1740    0.7040   -3.9600 c2        1 015     -0.131000
     13 O41        -1.4970    2.2250    1.1790 oh        1 015     -0.342000
     14 C44         0.0760   -1.9700    2.2990 c3        1 015     -0.165000
     15 C45         1.5490   -2.2550    2.7510 c2        1 015     -0.079000
     16 C48         1.7960   -2.8080    4.0090 c2        1 015     -0.138000
     17 C49         3.1010   -3.1180    4.3910 c1        1 015     -0.125000
     18 C50         4.1550   -2.8760    3.5220 c1        1 015     -0.129500
     19 C51         3.9110   -2.3230    2.2650 c1        1 015     -0.129500
     20 C52         2.6030   -2.0130    1.8820 c1        1 015     -0.124000
     21 N58        -0.5940    0.0670    3.4040 n3        1 015     -0.345000
     22 H11        -2.8980    2.1650   -0.2190 hn        1 015      0.143500
     23 H12        -1.4290    0.2810   -1.3350 h1        1 015      0.100000
     24 H13         0.0800    1.3450    0.4300 h1        1 015      0.084000
     25 H141       -1.1660   -0.8440    0.4560 hc        1 015      0.093500
     26 H142       -2.0790   -0.1140    1.5330 hc        1 015      0.093500
     27 H15         0.6890    0.0100    1.9470 h1        1 015      0.102000
     28 H261        0.3640    1.9190   -1.6550 hc        1 015      0.094500
     29 H262       -0.7850    3.0340   -1.6810 hc        1 015      0.094500
     30 H31        -2.1520    3.3020   -3.6590 ha        1 015      0.133000
     31 H32        -2.5020    2.8680   -5.9550 ha        1 015      0.131000
     32 H33        -1.3810    1.0650   -6.9970 ha        1 015      0.131000
     33 H34         0.0920   -0.3060   -5.7450 ha        1 015      0.127000
     34 H35         0.4310    0.1430   -3.4430 ha        1 015      0.125000
     35 HO4        -0.8990    2.8310    1.3860 ho        1 015      0.220000
     36 H441       -0.5530   -2.3480    2.9680 hc        1 015      0.093500
     37 H442       -0.0850   -2.3900    1.4240 hc        1 015      0.093500
     38 H48         1.0630   -2.9780    4.6140 ha        1 015      0.128000
     39 H49         3.2740   -3.5060    5.2750 ha        1 015      0.133000
     40 H50         5.0710   -3.0940    3.7910 ha        1 015      0.131000
     41 H51         4.6490   -2.1550    1.6570 ha        1 015      0.131000
     42 H52         2.4340   -1.6310    1.0150 ha        1 015      0.133000
     43 H58         0.0920    0.5120    3.8220 hn        1 015      0.148000
     44 H2         -3.3370    0.9740   -1.0080 hn        1 015      0.143500
     45 H1         -0.8730   -0.6240    3.9290 hn        1 015      0.148000
@<TRIPOS>BOND
     1    1    2 1   
     2    1   22 1   
     3    1   44 1   
     4    2    3 1   
     5    2    6 1   
     6    2   23 1   
     7    3    4 1   
     8    3   13 1   
     9    3   24 1   
    10    4    5 1   
    11    4   25 1   
    12    4   26 1   
    13    5   14 1   
    14    5   21 1   
    15    5   27 1   
    16    6    7 1   
    17    6   28 1   
    18    6   29 1   
    19    7    8 1   
    20    7   12 1   
    21    8   30 1   
    22    9   10 1   
    23    9   31 1   
    24   10   32 1   
    25   11   12 1   
    26   11   33 1   
    27   12   34 1   
    28   13   35 1   
    29   14   15 1   
    30   14   36 1   
    31   14   37 1   
    32   15   16 1   
    33   15   20 1   
    34   16   17 1   
    35   16   38 1   
    36   17   39 1   
    37   18   19 1   
    38   18   40 1   
    39   19   41 1   
    40   20   42 1   
    41   21   43 1   
    42   21   45 1   
@<TRIPOS>SUBSTRUCTURE
     1 015         1 TEMP              0 ****  ****    0 ROOT
