@<TRIPOS>MOLECULE
015
   45    46     1     0     0
SMALL
bcc


@<TRIPOS>ATOM
      1 N11        -2.3570   -1.2400   -1.4000 n3        1 015     -0.887800
      2 C12        -1.9270   -0.4280   -0.2800 c3        1 015      0.174500
      3 C13        -0.5530   -0.8380    0.3290 c3        1 015      0.109100
      4 C14         0.5700   -0.6570   -0.6890 c3        1 015     -0.115400
      5 C15         1.9250   -0.3740   -0.0230 c3        1 015      0.165500
      6 C26        -2.9560   -0.4020    0.8640 c3        1 015     -0.032100
      7 C28        -4.2510    0.2010    0.4500 ca        1 015     -0.068300
      8 C31        -5.2450   -0.5870   -0.1410 ca        1 015     -0.119000
      9 C32        -6.4630   -0.0210   -0.5140 ca        1 015     -0.131500
     10 C33        -6.7000    1.3370   -0.3000 ca        1 015     -0.133000
     11 C34        -5.7130    2.1280    0.2880 ca        1 015     -0.131500
     12 C35        -4.4950    1.5640    0.6610 ca        1 015     -0.119000
     13 O41        -0.6730   -2.1990    0.7160 oh        1 015     -0.614800
     14 C44         2.9220    0.0300   -1.1320 c3        1 015     -0.079100
     15 C45         4.2510    0.3950   -0.5750 ca        1 015     -0.086300
     16 C48         5.2350   -0.5840   -0.3920 ca        1 015     -0.131000
     17 C49         6.4820   -0.2400    0.1280 ca        1 015     -0.125000
     18 C50         6.7570    1.0840    0.4690 ca        1 015     -0.129000
     19 C51         5.7810    2.0640    0.2880 ca        1 015     -0.125000
     20 C52         4.5340    1.7220   -0.2320 ca        1 015     -0.131000
     21 N58         2.3630   -1.4720    0.8170 n3        1 015     -0.912800
     22 H11        -1.6000   -1.3490   -2.0470 hn        1 015      0.348800
     23 H12        -1.8060    0.6270   -0.6680 h1        1 015      0.060700
     24 H13        -0.3510   -0.2000    1.2340 h1        1 015      0.044700
     25 H141        0.6430   -1.5740   -1.3300 hc        1 015      0.054200
     26 H142        0.3280    0.2110   -1.3550 hc        1 015      0.054200
     27 H15         1.8010    0.5200    0.6600 h1        1 015      0.062700
     28 H261       -3.1160   -1.4480    1.2400 hc        1 015      0.055200
     29 H262       -2.5170    0.1940    1.7090 hc        1 015      0.055200
     30 H31        -5.0560   -1.6560   -0.3210 ha        1 015      0.129000
     31 H32        -7.2370   -0.6470   -0.9810 ha        1 015      0.127500
     32 H33        -7.6610    1.7820   -0.5940 ha        1 015      0.128000
     33 H34        -5.8960    3.1990    0.4580 ha        1 015      0.127500
     34 H35        -3.7200    2.1920    1.1250 ha        1 015      0.129000
     35 HO4         0.0960   -2.4100    1.2590 ho        1 015      0.421000
     36 H441        3.0310   -0.8170   -1.8600 hc        1 015      0.054200
     37 H442        2.4930    0.9010   -1.6930 hc        1 015      0.054200
     38 H48         5.0260   -1.6280   -0.6680 ha        1 015      0.130500
     39 H49         7.2510   -1.0140    0.2660 ha        1 015      0.133500
     40 H50         7.7410    1.3550    0.8780 ha        1 015      0.134000
     41 H51         5.9950    3.1100    0.5540 ha        1 015      0.133500
     42 H52         3.7670    2.4980   -0.3750 ha        1 015      0.130500
     43 H58         2.4750   -2.3070    0.2750 hn        1 015      0.352800
     44 H2         -2.6360   -2.1480   -1.0800 hn        1 015      0.348800
     45 H1          3.2400   -1.2450    1.2460 hn        1 015      0.352800
@<TRIPOS>BOND
     1    1    2 1   
     2    1   22 1   
     3    1   44 1   
     4    2    3 1   
     5    2    6 1   
     6    2   23 1   
     7    3    4 1   
     8    3   13 1   
     9    3   24 1   
    10    4    5 1   
    11    4   25 1   
    12    4   26 1   
    13    5   14 1   
    14    5   21 1   
    15    5   27 1   
    16    6    7 1   
    17    6   28 1   
    18    6   29 1   
    19    7    8 ar  
    20    7   12 ar  
    21    8    9 ar  
    22    8   30 1   
    23    9   10 ar  
    24    9   31 1   
    25   10   11 ar  
    26   10   32 1   
    27   11   12 ar  
    28   11   33 1   
    29   12   34 1   
    30   13   35 1   
    31   14   15 1   
    32   14   36 1   
    33   14   37 1   
    34   15   16 ar  
    35   15   20 ar  
    36   16   17 ar  
    37   16   38 1   
    38   17   18 ar  
    39   17   39 1   
    40   18   19 ar  
    41   18   40 1   
    42   19   20 ar  
    43   19   41 1   
    44   20   42 1   
    45   21   43 1   
    46   21   45 1   
@<TRIPOS>SUBSTRUCTURE
     1 015         1 TEMP              0 ****  ****    0 ROOT
