@<TRIPOS>MOLECULE
016
   86    83     1     0     0
SMALL
bcc


@<TRIPOS>ATOM
      1 N30         1.2200    1.1600    4.2480 n         1 016     -0.331000
      2 O30         1.9230   -0.9590    5.2350 oh        1 016     -0.334000
      3 C31         2.6770    1.0890    4.2860 c3        1 016      0.037000
      4 C32         3.2430    2.2300    5.1820 c2        1 016     -0.105000
      5 C33         3.3140    3.5970    4.9710 c2        1 016     -0.102000
      6 C34         4.1230    4.3940    5.7920 c1        1 016     -0.138000
      7 C35         3.0940   -0.1780    4.8560 c3        1 016      0.034000
      8 C36         3.9860    1.6360    6.2270 c1        1 016     -0.068000
      9 C37         4.7930    2.4270    7.0480 c1        1 016     -0.127000
     10 C38         4.8650    3.8040    6.8340 c1        1 016     -0.127000
     11 C39         3.9080    0.1100    6.0570 c3        1 016     -0.129000
     12 C40        -1.5190   -1.6540   -2.6630 c1        1 016      0.296000
     13 O40        -0.7690   -2.5710   -2.3080 o         1 016     -0.389000
     14 C41        -2.4460   -1.8440   -3.8990 c3        1 016     -0.038000
     15 O41        -2.4950   -3.2820   -4.2600 os        1 016     -0.196000
     16 C42        -2.7180   -3.5270   -5.6670 c2        1 016      0.025000
     17 C43        -1.6670   -3.9780   -6.4740 c2        1 016     -0.048000
     18 C44        -0.3340   -4.4480   -5.8250 c3        1 016     -0.196000
     19 C45        -1.8690   -4.1650   -7.8290 c1        1 016     -0.130000
     20 C46        -3.1150   -3.9070   -8.3920 c1        1 016     -0.127000
     21 C47        -4.1710   -3.4550   -7.5850 c1        1 016     -0.127000
     22 C48        -3.9730   -3.2660   -6.2310 c1        1 016     -0.083000
     23 C49        -5.1470   -2.7980   -5.3300 c3        1 016     -0.183000
     24 C50        -2.3060   -0.3410    3.5050 c3        1 016     -0.130000
     25 N50        -1.5450    0.4250    2.3540 n         1 016     -0.325000
     26 O50         1.2040    2.4640    2.2880 o         1 016     -0.400000
     27 S50        -1.9530    0.3110    4.6890 ss        1 016      0.041000
     28 C51        -1.5980    1.9120    4.2600 c3        1 016     -0.136000
     29 C52        -0.7090    2.5420    5.3190 c3        1 016     -0.211500
     30 C53        -2.8930    2.7160    4.1210 c3        1 016     -0.211500
     31 C54        -0.9330    1.8660    3.0430 c3        1 016      0.005000
     32 C55         0.5390    1.9070    3.1560 c2        1 016      0.295000
     33 C60        -0.4730    0.1890   -1.3530 c3        1 016     -0.001000
     34 N60        -1.6460   -0.4720   -1.8440 n2        1 016     -0.368000
     35 O60        -1.7720    1.9250   -0.4120 oh        1 016     -0.315000
     36 C61         0.0430    1.1470   -2.4060 c3        1 016     -0.132000
     37 O61        -1.8790   -1.0710    0.5960 o         1 016     -0.364000
     38 C62         1.3360    0.5470   -3.0720 c2        1 016     -0.082000
     39 C63         2.5820    0.9050   -2.5960 c2        1 016     -0.120000
     40 C64         3.7320    0.5050   -3.2780 c1        1 016     -0.131000
     41 C65         3.6240   -0.2550   -4.4390 c1        1 016     -0.127000
     42 C66         2.3780   -0.6140   -4.9150 c1        1 016     -0.127000
     43 C67         1.2280   -0.2140   -4.2330 c1        1 016     -0.128000
     44 C68        -0.8180    0.9510   -0.1090 c3        1 016      0.011000
     45 C69        -1.3910   -0.0210    0.9480 c2        1 016      0.289000
     46 HN30        0.7290    0.7550    4.8950 hn        1 016      0.252000
     47 HO30        2.1630   -1.8220    5.3540 ho        1 016      0.228000
     48 H31         3.0250    1.1750    3.3990 h1        1 016      0.127000
     49 H33         2.8080    3.9970    4.2600 ha        1 016      0.145000
     50 H34         4.1720    5.3440    5.6440 ha        1 016      0.130000
     51 H35         3.6200   -0.6680    4.2140 h1        1 016      0.098000
     52 H37         5.3220    2.0060    7.7880 ha        1 016      0.131667
     53 H38         5.4280    4.3580    7.4050 ha        1 016      0.131667
     54 H39         3.5020   -0.2750    6.8170 hc        1 016      0.110000
     55 H39A        4.8020   -0.2530    5.9430 hc        1 016      0.110000
     56 H41        -3.3490   -1.5310   -3.6810 h1        1 016      0.116500
     57 H41A       -2.0950   -1.3260   -4.6550 h1        1 016      0.116500
     58 H44         0.2440   -3.6550   -5.6390 hc        1 016      0.097000
     59 H44A        0.1280   -5.0490   -6.4390 hc        1 016      0.097000
     60 H44B       -0.5210   -4.9120   -4.9990 hc        1 016      0.097000
     61 H45        -1.1050   -4.4940   -8.4160 ha        1 016      0.136000
     62 H46        -3.2570   -4.0440   -9.3730 ha        1 016      0.131667
     63 H47        -5.0110   -3.2810   -7.9670 ha        1 016      0.131667
     64 H49        -5.0740   -3.2310   -4.4470 hc        1 016      0.087333
     65 H49A       -6.0260   -3.0570   -5.7590 hc        1 016      0.087333
     66 H49B       -5.1110   -1.8680   -5.2270 hc        1 016      0.087333
     67 H50        -3.3230   -0.2850    3.3590 h2        1 016      0.129500
     68 H50A       -2.0320   -1.2320    3.5350 h2        1 016      0.129500
     69 H52        -0.0520    3.1860    4.8750 hc        1 016      0.095667
     70 H52A       -1.2790    3.0450    5.9710 hc        1 016      0.095667
     71 H52B       -0.2140    1.8430    5.7900 hc        1 016      0.095667
     72 H53        -2.6890    3.6290    4.0670 hc        1 016      0.095667
     73 H53A       -3.4690    2.5520    4.9080 hc        1 016      0.095667
     74 H53B       -3.3720    2.4330    3.2960 hc        1 016      0.095667
     75 H54        -1.1130    2.6380    2.4960 h1        1 016      0.140000
     76 H60         0.2590   -0.5140   -1.1370 h1        1 016      0.147000
     77 HN60       -2.5110   -0.0850   -1.6910 hn        1 016      0.228000
     78 HO60       -2.2140    2.1290    0.3050 ho        1 016      0.227000
     79 H61        -0.6750    1.2880   -3.1210 hc        1 016      0.104500
     80 H61A        0.2690    2.0420   -1.9710 hc        1 016      0.104500
     81 H63         2.6570    1.4380   -1.7830 ha        1 016      0.160000
     82 H64         4.5930    0.7530   -2.9480 ha        1 016      0.134000
     83 H65         4.4420   -0.5410   -4.9240 ha        1 016      0.131667
     84 H66         2.3010   -1.1460   -5.7270 ha        1 016      0.131667
     85 H67         0.3660   -0.4630   -4.5620 ha        1 016      0.127000
     86 H68        -0.0090    1.3830    0.2460 h1        1 016      0.137000
@<TRIPOS>BOND
     1    1    3 1   
     2    1   32 1   
     3    1   46 1   
     4    2    7 1   
     5    2   47 1   
     6    3    4 1   
     7    3    7 1   
     8    3   48 1   
     9    4    5 1   
    10    4    8 1   
    11    5    6 1   
    12    5   49 1   
    13    6   50 1   
    14    7   11 1   
    15    7   51 1   
    16    8   11 1   
    17    9   10 1   
    18    9   52 1   
    19   10   53 1   
    20   11   54 1   
    21   11   55 1   
    22   12   13 1   
    23   12   14 1   
    24   14   15 1   
    25   14   56 1   
    26   14   57 1   
    27   15   16 1   
    28   16   17 1   
    29   16   22 1   
    30   17   18 1   
    31   17   19 1   
    32   18   58 1   
    33   18   59 1   
    34   18   60 1   
    35   19   61 1   
    36   20   21 1   
    37   20   62 1   
    38   21   63 1   
    39   22   23 1   
    40   23   64 1   
    41   23   65 1   
    42   23   66 1   
    43   24   25 1   
    44   24   27 1   
    45   24   67 1   
    46   24   68 1   
    47   25   31 1   
    48   25   45 1   
    49   26   32 1   
    50   27   28 1   
    51   28   29 1   
    52   28   30 1   
    53   28   31 1   
    54   29   69 1   
    55   29   70 1   
    56   29   71 1   
    57   30   72 1   
    58   30   73 1   
    59   30   74 1   
    60   31   32 1   
    61   31   75 1   
    62   33   34 1   
    63   33   36 1   
    64   33   44 1   
    65   33   76 1   
    66   34   77 1   
    67   35   44 1   
    68   35   78 1   
    69   36   38 1   
    70   36   79 1   
    71   36   80 1   
    72   37   45 1   
    73   38   39 1   
    74   38   43 1   
    75   39   40 1   
    76   39   81 1   
    77   40   82 1   
    78   41   42 1   
    79   41   83 1   
    80   42   84 1   
    81   43   85 1   
    82   44   45 1   
    83   44   86 1   
@<TRIPOS>SUBSTRUCTURE
     1 016         1 TEMP              0 ****  ****    0 ROOT
