@<TRIPOS>MOLECULE
016
   86    90     1     0     0
SMALL
bcc


@<TRIPOS>ATOM
      1 N30         4.3510    0.2890   -0.2800 n         1 016     -0.526900
      2 O30         6.2520    0.8570    1.5630 oh        1 016     -0.604800
      3 C31         5.6900    0.4240   -0.7880 c3        1 016      0.149000
      4 C32         5.8650    1.6090   -1.7100 ca        1 016     -0.103300
      5 C33         5.0760    1.9660   -2.7910 ca        1 016     -0.093000
      6 C34         5.4420    3.0870   -3.5480 ca        1 016     -0.134000
      7 C35         6.8270    0.6150    0.2890 c3        1 016      0.115100
      8 C36         7.0090    2.3610   -1.3710 ca        1 016     -0.081300
      9 C37         7.3710    3.4690   -2.1240 ca        1 016     -0.121000
     10 C38         6.5760    3.8270   -3.2200 ca        1 016     -0.124000
     11 C39         7.6920    1.8080   -0.1700 c3        1 016     -0.071100
     12 C40        -2.3030   -0.0550    0.8220 c         1 016      0.668100
     13 O40        -1.5920   -0.4840    1.7550 o         1 016     -0.622100
     14 C41        -2.9770    1.3040    0.9880 c3        1 016      0.058400
     15 O41        -4.0640    1.4290    0.0620 os        1 016     -0.354900
     16 C42        -4.7270    2.6510    0.1760 ca        1 016      0.079100
     17 C43        -5.7370    2.8080    1.1420 ca        1 016     -0.074800
     18 C44        -6.0400    1.7420    2.1230 c3        1 016     -0.056800
     19 C45        -6.4600    4.0050    1.1600 ca        1 016     -0.130000
     20 C46        -6.1820    5.0160    0.2430 ca        1 016     -0.123000
     21 C47        -5.1800    4.8460   -0.7090 ca        1 016     -0.130000
     22 C48        -4.4360    3.6620   -0.7570 ca        1 016     -0.074800
     23 C49        -3.3870    3.4820   -1.7860 c3        1 016     -0.056800
     24 C50         1.3550   -3.1520    0.2580 c3        1 016      0.183100
     25 N50         1.3790   -1.7720   -0.1410 n         1 016     -0.448800
     26 O50         4.1700   -1.9410   -0.8070 o         1 016     -0.598100
     27 S50         2.0160   -3.2590    1.9300 ss        1 016     -0.330200
     28 C51         2.5890   -1.5370    1.9850 c3        1 016      0.057100
     29 C52         4.0320   -1.5360    2.4220 c3        1 016     -0.100100
     30 C53         1.7280   -0.7790    2.9710 c3        1 016     -0.100100
     31 C54         2.3740   -0.9720    0.5550 c3        1 016      0.040700
     32 C55         3.7180   -0.9400   -0.2200 c         1 016      0.653100
     33 C60        -1.8830   -2.0450   -0.5840 c3        1 016      0.077700
     34 N60        -2.4320   -0.7300   -0.3710 n         1 016     -0.546900
     35 O60        -1.0550   -1.5040   -2.8350 oh        1 016     -0.585800
     36 C61        -2.9100   -3.0490   -1.1410 c3        1 016     -0.051100
     37 O61         0.5440    0.0210   -1.2940 o         1 016     -0.609100
     38 C62        -4.0910   -3.2200   -0.2570 ca        1 016     -0.088300
     39 C63        -5.3570   -2.7940   -0.6760 ca        1 016     -0.121500
     40 C64        -6.4690   -2.9780    0.1460 ca        1 016     -0.127000
     41 C65        -6.3260   -3.5890    1.3910 ca        1 016     -0.129000
     42 C66        -5.0660   -4.0150    1.8150 ca        1 016     -0.127000
     43 C67        -3.9540   -3.8340    0.9950 ca        1 016     -0.121500
     44 C68        -0.6820   -2.0240   -1.5780 c3        1 016      0.071100
     45 HN30        4.0560    1.0050    0.3450 hn        1 016      0.318500
     46 HO30        6.9860    0.9930    2.1750 ho        1 016      0.408000
     47 H31         5.9400   -0.5190   -1.3660 h1        1 016      0.103700
     48 H33         4.1790    1.3850   -3.0510 ha        1 016      0.150000
     49 H34         4.8250    3.3820   -4.4100 ha        1 016      0.134000
     50 H35         7.4420   -0.3240    0.3370 h1        1 016      0.047700
     51 H37         8.2620    4.0570   -1.8670 ha        1 016      0.133000
     52 H38         6.8520    4.7040   -3.8240 ha        1 016      0.131000
     53 H39         7.7660    2.5790    0.6390 hc        1 016      0.061700
     54 H39A        8.7280    1.4660   -0.4220 hc        1 016      0.061700
     55 H41        -3.3640    1.3840    2.0390 h1        1 016      0.073700
     56 H41A       -2.2150    2.1040    0.7920 h1        1 016      0.073700
     57 H44        -5.4760    1.9230    3.0740 hc        1 016      0.050867
     58 H44A       -7.1310    1.7230    2.3630 hc        1 016      0.050867
     59 H44B       -5.7460    0.7390    1.7240 hc        1 016      0.050867
     60 H45        -7.2570    4.1430    1.9060 ha        1 016      0.136000
     61 H46        -6.7580    5.9530    0.2690 ha        1 016      0.134000
     62 H47        -4.9660    5.6470   -1.4330 ha        1 016      0.136000
     63 H49        -3.8450    3.0900   -2.7290 hc        1 016      0.050867
     64 H49A       -2.8840    4.4530   -2.0160 hc        1 016      0.050867
     65 H49B       -2.6150    2.7480   -1.4450 hc        1 016      0.050867
     66 H50         0.3170   -3.5720    0.2580 h2        1 016      0.078200
     67 H50A        2.0090   -3.7620   -0.4220 h2        1 016      0.078200
     68 H52         4.6540   -2.1750    1.7480 hc        1 016      0.058200
     69 H52A        4.4490   -0.4960    2.4170 hc        1 016      0.058200
     70 H52B        4.1110   -1.9390    3.4620 hc        1 016      0.058200
     71 H53         1.7660   -1.2750    3.9710 hc        1 016      0.058200
     72 H53A        2.1010    0.2690    3.0830 hc        1 016      0.058200
     73 H53B        0.6610   -0.7460    2.6310 hc        1 016      0.058200
     74 H54         1.9620    0.0820    0.6300 h1        1 016      0.109700
     75 H60        -1.5020   -2.4320    0.4100 h1        1 016      0.092700
     76 HN60       -3.0950   -0.4010   -1.0350 hn        1 016      0.331500
     77 HO60       -1.0600   -0.5360   -2.7730 ho        1 016      0.430000
     78 H61        -3.2250   -2.7190   -2.1680 hc        1 016      0.064700
     79 H61A       -2.3880   -4.0380   -1.2540 hc        1 016      0.064700
     80 H63        -5.4760   -2.3120   -1.6570 ha        1 016      0.132500
     81 H64        -7.4600   -2.6410   -0.1920 ha        1 016      0.133000
     82 H65        -7.2030   -3.7340    2.0380 ha        1 016      0.131000
     83 H66        -4.9500   -4.4960    2.7970 ha        1 016      0.133000
     84 H67        -2.9630   -4.1690    1.3330 ha        1 016      0.132500
     85 H68        -0.3570   -3.0800   -1.7940 h1        1 016      0.095700
     86 C69         0.4590   -1.1860   -0.9900 c         1 016      0.651100
@<TRIPOS>BOND
     1    1    3 1   
     2    1   32 1   
     3    1   45 1   
     4    2    7 1   
     5    2   46 1   
     6    3    4 1   
     7    3    7 1   
     8    3   47 1   
     9    4    5 ar  
    10    4    8 ar  
    11    5    6 ar  
    12    5   48 1   
    13    6   10 ar  
    14    6   49 1   
    15    7   11 1   
    16    7   50 1   
    17    8    9 ar  
    18    8   11 1   
    19    9   10 ar  
    20    9   51 1   
    21   10   52 1   
    22   11   53 1   
    23   11   54 1   
    24   12   13 2   
    25   12   14 1   
    26   12   34 1   
    27   14   15 1   
    28   14   55 1   
    29   14   56 1   
    30   15   16 1   
    31   16   17 ar  
    32   16   22 ar  
    33   17   18 1   
    34   17   19 ar  
    35   18   57 1   
    36   18   58 1   
    37   18   59 1   
    38   19   20 ar  
    39   19   60 1   
    40   20   21 ar  
    41   20   61 1   
    42   21   22 ar  
    43   21   62 1   
    44   22   23 1   
    45   23   63 1   
    46   23   64 1   
    47   23   65 1   
    48   24   25 1   
    49   24   27 1   
    50   24   66 1   
    51   24   67 1   
    52   25   31 1   
    53   25   86 1   
    54   26   32 2   
    55   27   28 1   
    56   28   29 1   
    57   28   30 1   
    58   28   31 1   
    59   29   68 1   
    60   29   69 1   
    61   29   70 1   
    62   30   71 1   
    63   30   72 1   
    64   30   73 1   
    65   31   32 1   
    66   31   74 1   
    67   33   34 1   
    68   33   36 1   
    69   33   44 1   
    70   33   75 1   
    71   34   76 1   
    72   35   44 1   
    73   35   77 1   
    74   36   38 1   
    75   36   78 1   
    76   36   79 1   
    77   37   86 2   
    78   38   39 ar  
    79   38   43 ar  
    80   39   40 ar  
    81   39   80 1   
    82   40   41 ar  
    83   40   81 1   
    84   41   42 ar  
    85   41   82 1   
    86   42   43 ar  
    87   42   83 1   
    88   43   84 1   
    89   44   85 1   
    90   44   86 1   
@<TRIPOS>SUBSTRUCTURE
     1 016         1 TEMP              0 ****  ****    0 ROOT
