@<TRIPOS>MOLECULE
017
   77    79     1     0     0
SMALL
bcc


@<TRIPOS>ATOM
      1 N1         -0.4770    0.6340   -0.7620 nv        1 017     -0.770200
      2 C2          0.6560    0.2710   -0.1450 ca        1 017      0.333600
      3 C3          0.6430   -0.5830    1.0180 ca        1 017     -0.234000
      4 C4          1.8000   -0.9250    1.6490 ca        1 017      0.067000
      5 C5          3.0880   -0.4690    1.2070 ca        1 017     -0.729500
      6 C6          3.0860    0.3590    0.0320 ca        1 017      0.067000
      7 C7          1.9460    0.7180   -0.6170 ca        1 017     -0.234000
      8 S8          4.3690   -0.7880    1.9470 s4        1 017      1.705300
      9 O9          5.5300   -0.1890    1.5710 o         1 017     -0.468900
     10 O10         4.3300   -1.4910    3.1200 o         1 017     -0.468900
     11 N11         4.9370   -2.9590    0.8080 n7        1 017     -0.896200
     12 C12         5.3970   -2.8000   -0.5750 c3        1 017      0.127800
     13 C13         6.7150   -2.0330   -0.7690 c3        1 017     -0.083700
     14 C14         7.9060   -2.9660   -0.7890 c3        1 017     -0.097100
     15 C15         6.6400   -1.2690   -2.0780 c3        1 017     -0.097100
     16 C16         5.8630   -3.7190    1.6460 c3        1 017      0.109800
     17 C17         5.1620   -4.4310    2.8160 c3        1 017      0.096100
     18 O18         4.3850   -5.5300    2.3890 oh        1 017     -0.597800
     19 C19         6.2000   -4.8700    3.8780 c3        1 017      0.104500
     20 N20         5.4930   -5.5680    5.0210 ny        1 017     -0.636800
     21 C21         4.7150   -4.6070    5.8560 c         1 017      0.616100
     22 O22         5.2290   -3.8940    6.7050 o         1 017     -0.410000
     23 O23         3.4050   -4.6660    5.5430 os        1 017     -0.401900
     24 C24         2.5150   -3.7340    6.2390 c3        1 017      0.138100
     25 C25         2.7670   -2.3000    5.7530 c3        1 017      0.097400
     26 O26         1.7420   -1.9500    4.8200 os        1 017     -0.431600
     27 C27         0.7010   -2.9190    4.8340 c3        1 017      0.319900
     28 O28         0.6900   -3.4180    3.5040 os        1 017     -0.445600
     29 C29         0.9470   -4.8330    3.4970 c3        1 017      0.123400
     30 C30         0.9120   -5.3280    4.9430 c3        1 017     -0.099400
     31 C31         1.0850   -4.0750    5.7930 c3        1 017     -0.112700
     32 C32         7.2870   -5.7850    3.2950 c3        1 017     -0.051100
     33 C33         7.9470   -7.6320    4.8500 ca        1 017     -0.132500
     34 C34         8.8030   -8.1710    5.8090 ca        1 017     -0.108500
     35 C35         9.8910   -7.4290    6.2740 ca        1 017     -0.087000
     36 C36        10.1230   -6.1460    5.7750 ca        1 017     -0.108500
     37 C37         9.2700   -5.6040    4.8140 ca        1 017     -0.132500
     38 C38         8.1750   -6.3420    4.3490 ca        1 017     -0.176300
     39 H11        -0.4580    1.2320   -1.5590 hn        1 017      0.471300
     40 H12        -1.3630    0.3280   -0.4260 hn        1 017      0.471300
     41 H3         -0.3210   -0.9590    1.4030 ha        1 017      0.178000
     42 H4          1.7490   -1.5750    2.5540 ha        1 017      0.183500
     43 H6          4.0640    0.7200   -0.3460 ha        1 017      0.183500
     44 H7          2.0000    1.3650   -1.5100 ha        1 017      0.178000
     45 H121        4.5690   -2.2410   -1.1050 h1        1 017      0.063700
     46 H122        5.4960   -3.8050   -1.0800 h1        1 017      0.063700
     47 H13         6.8580   -1.2860    0.0640 hc        1 017      0.073700
     48 H141        8.0540   -3.4510    0.2050 hc        1 017      0.047367
     49 H142        8.8330   -2.3910   -1.0340 hc        1 017      0.047367
     50 H143        7.7770   -3.7630   -1.5620 hc        1 017      0.047367
     51 H151        7.6010   -0.7280   -2.2580 hc        1 017      0.047367
     52 H152        5.8150   -0.5160   -2.0490 hc        1 017      0.047367
     53 H153        6.4620   -1.9640   -2.9340 hc        1 017      0.047367
     54 H161        6.4160   -4.4970    1.0400 h1        1 017      0.080700
     55 H162        6.6230   -2.9920    2.0520 h1        1 017      0.080700
     56 H17         4.4070   -3.7430    3.3140 h1        1 017      0.124700
     57 H18         4.8850   -6.0330    1.7290 ho        1 017      0.428000
     58 H19         6.6900   -3.9480    4.3170 hx        1 017      0.127700
     59 H20         6.2050   -6.0320    5.6140 hn        1 017      0.490300
     60 H24         2.6850   -3.8600    7.3390 h1        1 017      0.113700
     61 H251        3.7460   -2.1920    5.2180 h1        1 017      0.088200
     62 H252        2.7090   -1.5760    6.6090 h1        1 017      0.088200
     63 H27        -0.2690   -2.3970    5.0340 h2        1 017      0.121700
     64 H291        0.1490   -5.2930    2.8620 h1        1 017      0.062200
     65 H292        1.9560   -4.9880    3.0320 h1        1 017      0.062200
     66 H301        1.7040   -6.0910    5.1320 hc        1 017      0.078200
     67 H302       -0.0770   -5.8040    5.1700 hc        1 017      0.078200
     68 H31         0.4250   -4.1010    6.6970 hc        1 017      0.117700
     69 H321        6.8110   -6.6150    2.7060 hc        1 017      0.085200
     70 H322        7.8910   -5.1610    2.5790 hc        1 017      0.085200
     71 H35        10.5720   -7.8610    7.0250 ha        1 017      0.167000
     72 H36        10.9890   -5.5640    6.1310 ha        1 017      0.162500
     73 H37         9.4710   -4.6000    4.4100 ha        1 017      0.134500
     74 H33         7.1220   -8.2420    4.4540 ha        1 017      0.134500
     75 H111        4.0540   -3.4530    0.7810 hn        1 017      0.386800
     76 H202        4.8540   -6.2730    4.6230 hn        1 017      0.490300
     77 H34         8.6300   -9.1910    6.1890 ha        1 017      0.162500
@<TRIPOS>BOND
     1    1    2 1   
     2    1   39 1   
     3    1   40 1   
     4    2    3 ar  
     5    2    7 ar  
     6    3    4 ar  
     7    3   41 1   
     8    4    5 ar  
     9    4   42 1   
    10    5    6 ar  
    11    5    8 1   
    12    6    7 ar  
    13    6   43 1   
    14    7   44 1   
    15    8    9 1   
    16    8   10 1   
    17   11   12 1   
    18   11   16 1   
    19   11   75 1   
    20   12   13 1   
    21   12   45 1   
    22   12   46 1   
    23   13   14 1   
    24   13   15 1   
    25   13   47 1   
    26   14   48 1   
    27   14   49 1   
    28   14   50 1   
    29   15   51 1   
    30   15   52 1   
    31   15   53 1   
    32   16   17 1   
    33   16   54 1   
    34   16   55 1   
    35   17   18 1   
    36   17   19 1   
    37   17   56 1   
    38   18   57 1   
    39   19   20 1   
    40   19   32 1   
    41   19   58 1   
    42   20   21 1   
    43   20   59 1   
    44   20   76 1   
    45   21   22 2   
    46   21   23 1   
    47   23   24 1   
    48   24   25 1   
    49   24   31 1   
    50   24   60 1   
    51   25   26 1   
    52   25   61 1   
    53   25   62 1   
    54   26   27 1   
    55   27   28 1   
    56   27   31 1   
    57   27   63 1   
    58   28   29 1   
    59   29   30 1   
    60   29   64 1   
    61   29   65 1   
    62   30   31 1   
    63   30   66 1   
    64   30   67 1   
    65   31   68 1   
    66   32   38 1   
    67   32   69 1   
    68   32   70 1   
    69   33   34 ar  
    70   33   38 ar  
    71   33   74 1   
    72   34   35 ar  
    73   34   77 1   
    74   35   36 ar  
    75   35   71 1   
    76   36   37 ar  
    77   36   72 1   
    78   37   38 ar  
    79   37   73 1   
@<TRIPOS>SUBSTRUCTURE
     1 017         1 TEMP              0 ****  ****    0 ROOT
