@<TRIPOS>MOLECULE
017
   75    72     1     0     0
SMALL
bcc


@<TRIPOS>ATOM
      1 N1         -3.4030    5.1800   -5.5550 n3        1 017     -0.356000
      2 C2         -2.3450    4.6660   -4.7500 c2        1 017      0.150000
      3 C3         -2.2740    4.9960   -3.4040 c2        1 017     -0.233000
      4 C4         -1.2270    4.5080   -2.6190 c1        1 017      0.038000
      5 C5         -0.2570    3.6950   -3.1840 c1        1 017     -0.903000
      6 C6         -0.3290    3.3660   -4.5320 c1        1 017      0.027000
      7 C7         -1.3770    3.8540   -5.3150 c1        1 017     -0.239000
      8 S8          1.2040    3.2470   -2.2300 s4        1 017      2.068800
      9 O9          2.3940    3.8070   -2.8040 o         1 017     -0.549400
     10 O10         1.1960    3.8750   -0.9400 o         1 017     -0.549400
     11 N11         1.3220    1.5730   -2.0940 n2        1 017     -0.819000
     12 C12         1.2890    0.7430   -3.2960 c3        1 017     -0.016000
     13 C13         2.5230    1.0660   -4.1840 c3        1 017     -0.135000
     14 C14         3.5090   -0.0860   -4.1160 c3        1 017     -0.205500
     15 C15         2.0720    1.2660   -5.6300 c3        1 017     -0.205500
     16 C16         1.6570    0.9610   -0.7840 c3        1 017     -0.013000
     17 C17         0.5220    0.0120   -0.3550 c3        1 017     -0.003000
     18 O18         0.3380   -0.9600   -1.3290 oh        1 017     -0.326000
     19 C19         0.8860   -0.6550    0.9680 c3        1 017     -0.010000
     20 N20        -0.1810   -1.5330    1.3730 n         1 017     -0.331000
     21 C21        -0.8850   -1.2990    2.6370 c2        1 017      0.384000
     22 O22        -0.6270   -0.3160    3.3030 o         1 017     -0.401000
     23 O23        -1.9240   -2.2320    3.0810 os        1 017     -0.273000
     24 C24        -2.5310   -1.8800    4.3810 c3        1 017      0.020000
     25 C25        -3.3010   -0.8630    4.2480 c3        1 017     -0.031000
     26 O26        -4.4360   -1.1000    5.2310 os        1 017     -0.275000
     27 C27        -4.2870   -2.5980    5.6820 c3        1 017      0.139000
     28 O28        -5.6030   -3.3840    5.4830 os        1 017     -0.275000
     29 C29        -5.3970   -4.1890    4.2340 c3        1 017     -0.026000
     30 C30        -4.3380   -3.7090    3.7040 c3        1 017     -0.182000
     31 C31        -3.4840   -3.0980    4.9060 c3        1 017     -0.169000
     32 C32         2.1580   -1.4520    0.8010 c3        1 017     -0.135000
     33 C33         3.1020   -2.8800    2.5960 c1        1 017     -0.136000
     34 C34         4.0990   -3.1480    3.5220 c1        1 017     -0.125000
     35 C35         4.8740   -2.1130    4.0270 c1        1 017     -0.125000
     36 C36         4.6510   -0.8080    3.6060 c1        1 017     -0.125000
     37 C37         3.6520   -0.5390    2.6790 c1        1 017     -0.125000
     38 C38         2.8770   -1.5730    2.1730 c1        1 017     -0.093000
     39 H11        -4.1200    5.5810   -5.1630 hn        1 017      0.212000
     40 H12        -3.3510    5.1280   -6.4630 hn        1 017      0.212000
     41 H3         -2.9570    5.5680   -3.0050 ha        1 017      0.143000
     42 H4         -1.1780    4.7400   -1.6740 ha        1 017      0.163000
     43 H6          0.3520    2.7940   -4.9310 ha        1 017      0.155000
     44 H7         -1.4270    3.6220   -6.2620 ha        1 017      0.138000
     45 H121        0.4680    0.9270   -3.7990 h1        1 017      0.095000
     46 H122        1.3100   -0.2000   -3.0410 h1        1 017      0.095000
     47 H13         2.9530    1.8810   -3.8610 hc        1 017      0.118000
     48 H141        3.7960   -0.2150   -3.1900 hc        1 017      0.073333
     49 H142        4.2900    0.1180   -4.6780 hc        1 017      0.073333
     50 H143        3.0780   -0.9030   -4.4410 hc        1 017      0.073333
     51 H151        2.8540    1.2820   -6.2160 hc        1 017      0.073333
     52 H152        1.5840    2.1250   -5.7070 hc        1 017      0.073333
     53 H153        1.4790    0.5280   -5.8930 hc        1 017      0.073333
     54 H161        1.7640    1.6670   -0.1110 h1        1 017      0.114000
     55 H162        2.4860    0.4600   -0.8620 h1        1 017      0.114000
     56 H17        -0.3090    0.5270   -0.2440 h1        1 017      0.107000
     57 H18        -0.5280   -1.1600   -1.3880 ho        1 017      0.208000
     58 H19         1.0200    0.0290    1.6510 h1        1 017      0.110000
     59 H20        -0.4150   -2.2430    0.8440 hn        1 017      0.240000
     60 H24        -1.8340   -1.6910    5.0380 h1        1 017      0.130000
     61 H251       -2.8220   -0.0420    4.4740 h1        1 017      0.104000
     62 H252       -3.6490   -0.8150    3.3300 h1        1 017      0.104000
     63 H27        -3.9710   -2.6610    6.6060 h2        1 017      0.141000
     64 H291       -6.1630   -4.0800    3.6270 h1        1 017      0.091500
     65 H292       -5.2690   -5.1360    4.4550 h1        1 017      0.091500
     66 H301       -3.8320   -4.4200    3.2560 hc        1 017      0.104000
     67 H302       -4.5700   -3.0080    3.0670 hc        1 017      0.104000
     68 H31        -2.9550   -3.7910    5.3480 hc        1 017      0.125000
     69 H321        1.9430   -2.3410    0.4690 hc        1 017      0.112500
     70 H322        2.7530   -0.9940    0.1560 hc        1 017      0.112500
     71 H33         2.5570   -3.6080    2.2410 ha        1 017      0.133000
     72 H34         4.2570   -4.0710    3.8200 ha        1 017      0.136250
     73 H35         5.5860   -2.3040    4.6880 ha        1 017      0.136250
     74 H36         5.2000   -0.0730    3.9640 ha        1 017      0.136250
     75 H37         3.4950    0.3760    2.3830 ha        1 017      0.136250
@<TRIPOS>BOND
     1    1    2 1   
     2    1   39 1   
     3    1   40 1   
     4    2    3 1   
     5    2    7 1   
     6    3    4 1   
     7    3   41 1   
     8    4   42 1   
     9    5    6 1   
    10    5    8 1   
    11    6   43 1   
    12    7   44 1   
    13    8    9 1   
    14    8   10 1   
    15   11   12 1   
    16   11   16 1   
    17   12   13 1   
    18   12   45 1   
    19   12   46 1   
    20   13   14 1   
    21   13   15 1   
    22   13   47 1   
    23   14   48 1   
    24   14   49 1   
    25   14   50 1   
    26   15   51 1   
    27   15   52 1   
    28   15   53 1   
    29   16   17 1   
    30   16   54 1   
    31   16   55 1   
    32   17   18 1   
    33   17   19 1   
    34   17   56 1   
    35   18   57 1   
    36   19   20 1   
    37   19   32 1   
    38   19   58 1   
    39   20   21 1   
    40   20   59 1   
    41   21   22 1   
    42   21   23 1   
    43   23   24 1   
    44   24   25 1   
    45   24   31 1   
    46   24   60 1   
    47   25   26 1   
    48   25   61 1   
    49   25   62 1   
    50   26   27 1   
    51   27   28 1   
    52   27   31 1   
    53   27   63 1   
    54   28   29 1   
    55   29   30 1   
    56   29   64 1   
    57   29   65 1   
    58   30   31 1   
    59   30   66 1   
    60   30   67 1   
    61   31   68 1   
    62   32   38 1   
    63   32   69 1   
    64   32   70 1   
    65   33   38 1   
    66   33   71 1   
    67   34   35 1   
    68   34   72 1   
    69   35   73 1   
    70   36   37 1   
    71   36   74 1   
    72   37   75 1   
@<TRIPOS>SUBSTRUCTURE
     1 017         1 TEMP              0 ****  ****    0 ROOT
