@<TRIPOS>MOLECULE
017
   77    79     1     0     0
SMALL
bcc


@<TRIPOS>ATOM
      1 N1         -0.3510    0.7710   -0.7770 nh        1 017     -0.770200
      2 C2          0.7670    0.3790   -0.1510 ca        1 017      0.333600
      3 C3          0.7240   -0.4840    1.0040 ca        1 017     -0.234000
      4 C4          1.8670   -0.8560    1.6440 ca        1 017      0.067000
      5 C5          3.1690   -0.4230    1.2190 ca        1 017     -0.729500
      6 C6          3.1960    0.4140    0.0510 ca        1 017      0.067000
      7 C7          2.0710    0.8030   -0.6060 ca        1 017     -0.234000
      8 S8          4.4350   -0.7750    1.9690 s4        1 017      1.705300
      9 O9          5.6130   -0.1980    1.6090 o         1 017     -0.468900
     10 O10         4.3700   -1.4870    3.1350 o         1 017     -0.468900
     11 N11         4.9680   -2.9490    0.8170 n3        1 017     -0.896200
     12 C12         5.4460   -2.7870   -0.5600 c3        1 017      0.127800
     13 C13         6.7830   -2.0470   -0.7330 c3        1 017     -0.083700
     14 C14         7.9540   -3.0070   -0.7490 c3        1 017     -0.097100
     15 C15         6.7390   -1.2700   -2.0360 c3        1 017     -0.097100
     16 C16         5.8680   -3.7350    1.6570 c3        1 017      0.109800
     17 C17         5.1390   -4.4420    2.8130 c3        1 017      0.096100
     18 O18         4.3420   -5.5190    2.3680 oh        1 017     -0.597800
     19 C19         6.1570   -4.9150    3.8820 c3        1 017      0.104500
     20 N20         5.4230   -5.6060    5.0110 n4        1 017     -0.636800
     21 C21         4.6580   -4.6360    5.8470 c         1 017      0.616100
     22 O22         5.1790   -3.9410    6.7060 o         1 017     -0.410000
     23 O23         3.3500   -4.6630    5.5210 os        1 017     -0.401900
     24 C24         2.4740   -3.7170    6.2160 c3        1 017      0.138100
     25 C25         2.7620   -2.2850    5.7450 c3        1 017      0.097400
     26 O26         1.7550   -1.9050    4.8050 os        1 017     -0.431600
     27 C27         0.6920   -2.8510    4.8000 c3        1 017      0.319900
     28 O28         0.6820   -3.3380    3.4660 os        1 017     -0.445600
     29 C29         0.9080   -4.7580    3.4500 c3        1 017      0.123400
     30 C30         0.8490   -5.2650    4.8910 c3        1 017     -0.099400
     31 C31         1.0410   -4.0240    5.7530 c3        1 017     -0.112700
     32 C32         7.2280   -5.8490    3.3000 c3        1 017     -0.051100
     33 C33         7.8300   -7.7240    4.8450 ca        1 017     -0.132500
     34 C34         8.6620   -8.2930    5.8070 ca        1 017     -0.108500
     35 C35         9.7630   -7.5800    6.2890 ca        1 017     -0.087000
     36 C36        10.0300   -6.2990    5.8040 ca        1 017     -0.108500
     37 C37         9.2000   -5.7280    4.8400 ca        1 017     -0.132500
     38 C38         8.0930   -6.4360    4.3590 ca        1 017     -0.176300
     39 H11        -0.3120    1.3750   -1.5690 hn        1 017      0.471300
     40 H12        -1.2480    0.4810   -0.4530 hn        1 017      0.471300
     41 H3         -0.2520   -0.8420    1.3760 ha        1 017      0.178000
     42 H4          1.7940   -1.5110    2.5420 ha        1 017      0.183500
     43 H6          4.1850    0.7590   -0.3140 ha        1 017      0.183500
     44 H7          2.1470    1.4560   -1.4940 ha        1 017      0.178000
     45 H121        4.6370   -2.2050   -1.0930 h1        1 017      0.063700
     46 H122        5.5290   -3.7890   -1.0730 h1        1 017      0.063700
     47 H13         6.9340   -1.3120    0.1080 hc        1 017      0.073700
     48 H141        7.8160   -3.7930   -1.5300 hc        1 017      0.047367
     49 H142        8.8960   -2.4500   -0.9800 hc        1 017      0.047367
     50 H143        8.0810   -3.5030    0.2420 hc        1 017      0.047367
     51 H151        7.7140   -0.7490   -2.2010 hc        1 017      0.047367
     52 H152        6.5550   -1.9540   -2.9000 hc        1 017      0.047367
     53 H153        5.9310   -0.5000   -2.0090 hc        1 017      0.047367
     54 H161        6.6400   -3.0290    2.0770 h1        1 017      0.081200
     55 H162        6.4100   -4.5200    1.0490 h1        1 017      0.081200
     56 H17         4.3950   -3.7420    3.3100 h1        1 017      0.124700
     57 H18         4.8370   -6.0270    1.7090 ho        1 017      0.428000
     58 H19         6.6630   -4.0080    4.3340 hx        1 017      0.127700
     59 H20         4.7720   -6.2930    4.6000 hn        1 017      0.490300
     60 H24         2.6310   -3.8570    7.3170 h1        1 017      0.113700
     61 H251        2.7110   -1.5680    6.6060 h1        1 017      0.088200
     62 H252        3.7490   -2.1950    5.2200 h1        1 017      0.088200
     63 H27        -0.2680   -2.3090    4.9960 h2        1 017      0.121700
     64 H291        0.1070   -5.1960    2.8030 h1        1 017      0.062200
     65 H292        1.9180   -4.9320    2.9930 h1        1 017      0.062200
     66 H301       -0.1520   -5.7210    5.1040 hc        1 017      0.078200
     67 H302        1.6220   -6.0460    5.0810 hc        1 017      0.078200
     68 H31         0.3720   -4.0420    6.6510 hc        1 017      0.117700
     69 H321        7.8540   -5.2320    2.5970 hc        1 017      0.085200
     70 H322        6.7390   -6.6620    2.6990 hc        1 017      0.085200
     71 H35        10.4270   -8.0350    7.0430 ha        1 017      0.167000
     72 H36        10.9060   -5.7410    6.1740 ha        1 017      0.162500
     73 H37         9.4280   -4.7250    4.4480 ha        1 017      0.134500
     74 H33         6.9940   -8.3120    4.4350 ha        1 017      0.134500
     75 H111        4.0750   -3.4220    0.7760 hn        1 017      0.386800
     76 H202        6.1180   -6.0920    5.6070 hn        1 017      0.490300
     77 H34         8.4620   -9.3120    6.1760 ha        1 017      0.162500
@<TRIPOS>BOND
     1    1    2 1   
     2    1   39 1   
     3    1   40 1   
     4    2    3 ar  
     5    2    7 ar  
     6    3    4 ar  
     7    3   41 1   
     8    4    5 ar  
     9    4   42 1   
    10    5    6 ar  
    11    5    8 1   
    12    6    7 ar  
    13    6   43 1   
    14    7   44 1   
    15    8    9 1   
    16    8   10 1   
    17   11   12 1   
    18   11   16 1   
    19   11   75 1   
    20   12   13 1   
    21   12   45 1   
    22   12   46 1   
    23   13   14 1   
    24   13   15 1   
    25   13   47 1   
    26   14   48 1   
    27   14   49 1   
    28   14   50 1   
    29   15   51 1   
    30   15   52 1   
    31   15   53 1   
    32   16   17 1   
    33   16   54 1   
    34   16   55 1   
    35   17   18 1   
    36   17   19 1   
    37   17   56 1   
    38   18   57 1   
    39   19   20 1   
    40   19   32 1   
    41   19   58 1   
    42   20   21 1   
    43   20   59 1   
    44   20   76 1   
    45   21   22 2   
    46   21   23 1   
    47   23   24 1   
    48   24   25 1   
    49   24   31 1   
    50   24   60 1   
    51   25   26 1   
    52   25   61 1   
    53   25   62 1   
    54   26   27 1   
    55   27   28 1   
    56   27   31 1   
    57   27   63 1   
    58   28   29 1   
    59   29   30 1   
    60   29   64 1   
    61   29   65 1   
    62   30   31 1   
    63   30   66 1   
    64   30   67 1   
    65   31   68 1   
    66   32   38 1   
    67   32   69 1   
    68   32   70 1   
    69   33   34 ar  
    70   33   38 ar  
    71   33   74 1   
    72   34   35 ar  
    73   34   77 1   
    74   35   36 ar  
    75   35   71 1   
    76   36   37 ar  
    77   36   72 1   
    78   37   38 ar  
    79   37   73 1   
@<TRIPOS>SUBSTRUCTURE
     1 017         1 TEMP              0 ****  ****    0 ROOT
