@<TRIPOS>MOLECULE
017
   78    81     1     0     0
SMALL
bcc


@<TRIPOS>ATOM
      1 N1          0.0910    1.5740   -0.9970 n4        1 017     -0.725000
      2 C2          1.2130    0.9000   -0.3350 ca        1 017      0.056600
      3 C3          0.9830    0.1100    0.8040 ca        1 017     -0.117000
      4 C4          2.0670   -0.4850    1.4510 ca        1 017      0.027500
      5 C5          3.3810   -0.3110    0.9840 ca        1 017     -0.438500
      6 C6          3.5800    0.4600   -0.1760 ca        1 017      0.027500
      7 C7          2.5150    1.0670   -0.8380 ca        1 017     -0.117000
      8 S8          4.6770   -0.8380    1.8590 sy        1 017      1.451200
      9 O9          5.8560   -0.2340    1.4920 o         1 017     -0.553800
     10 O10         4.3690   -1.0700    3.1880 o         1 017     -0.553800
     11 N11         4.8460   -2.6180    1.2290 n4        1 017     -0.619300
     12 C12         5.1660   -2.7270   -0.2270 c3        1 017      0.107800
     13 C13         6.5710   -2.2930   -0.6780 c3        1 017     -0.090700
     14 C14         7.5510   -3.4490   -0.6710 c3        1 017     -0.104600
     15 C15         6.4510   -1.7340   -2.0860 c3        1 017     -0.104600
     16 C16         5.8220   -3.3690    2.0660 c3        1 017      0.091800
     17 C17         5.1810   -3.9580    3.3420 c3        1 017      0.096100
     18 O18         4.2640   -4.9480    2.9240 oh        1 017     -0.607800
     19 C19         6.2710   -4.5900    4.2470 c3        1 017      0.125500
     20 N20         5.6340   -5.3700    5.3770 n4        1 017     -0.632800
     21 C21         4.6320   -4.5600    6.1240 c         1 017      0.608100
     22 O22         4.9050   -3.8410    7.0710 o         1 017     -0.381000
     23 O23         3.4030   -4.7500    5.5930 os        1 017     -0.428900
     24 C24         2.3190   -3.8940    6.0770 c3        1 017      0.137100
     25 C25         2.4740   -2.4970    5.4560 c3        1 017      0.092400
     26 O26         1.8870   -2.5650    4.1450 os        1 017     -0.466600
     27 C27         0.8850   -3.5840    4.1440 c3        1 017      0.313900
     28 O28         1.2680   -4.3990    3.0440 os        1 017     -0.466600
     29 C29         1.0950   -5.7870    3.4100 c3        1 017      0.118400
     30 C30         1.0380   -5.8770    4.9360 c3        1 017     -0.104400
     31 C31         1.0300   -4.4380    5.4340 c3        1 017     -0.113700
     32 C32         7.2300   -5.5120    3.4740 c3        1 017     -0.046100
     33 C33         7.6860   -7.6130    4.7520 ca        1 017     -0.134000
     34 C34         8.5050   -8.3920    5.5660 ca        1 017     -0.105000
     35 C35         9.7230   -7.8840    6.0250 ca        1 017     -0.077000
     36 C36        10.1200   -6.5960    5.6670 ca        1 017     -0.105000
     37 C37         9.3030   -5.8130    4.8500 ca        1 017     -0.134000
     38 C38         8.0810   -6.3160    4.3910 ca        1 017     -0.195300
     39 H11         0.0040    2.5370   -0.6330 hn        1 017      0.489467
     40 H12        -0.7900    1.0710   -0.8170 hn        1 017      0.489467
     41 H3         -0.0330   -0.0440    1.2120 ha        1 017      0.197000
     42 H4          1.8760   -1.0870    2.3700 ha        1 017      0.209500
     43 H6          4.6080    0.6190   -0.5680 ha        1 017      0.209500
     44 H7          2.7210    1.6780   -1.7380 ha        1 017      0.197000
     45 H121        5.0050   -3.7990   -0.5470 hx        1 017      0.095700
     46 H122        4.3900   -2.0910   -0.7480 hx        1 017      0.095700
     47 H13         6.9740   -1.4790   -0.0100 hc        1 017      0.084700
     48 H141        8.4790   -3.1550   -1.2260 hc        1 017      0.060200
     49 H142        7.1230   -4.3490   -1.1760 hc        1 017      0.060200
     50 H143        7.8530   -3.7200    0.3680 hc        1 017      0.060200
     51 H151        7.4600   -1.4110   -2.4480 hc        1 017      0.060200
     52 H152        6.0580   -2.5060   -2.7910 hc        1 017      0.060200
     53 H153        5.7740   -0.8450   -2.1030 hc        1 017      0.060200
     54 H161        6.6750   -2.6800    2.3290 hx        1 017      0.127700
     55 H162        6.2290   -4.2350    1.4570 hx        1 017      0.127700
     56 H17         4.6610   -3.1450    3.9330 h1        1 017      0.092700
     57 H18         3.3930   -4.7410    3.3110 ho        1 017      0.462000
     58 H19         6.8620   -3.7530    4.7320 hx        1 017      0.125700
     59 H20         5.1760   -6.2040    4.9730 hn        1 017      0.499300
     60 H24         2.3230   -3.9020    7.1960 h1        1 017      0.136700
     61 H251        1.9120   -1.7400    6.0640 h1        1 017      0.094200
     62 H252        3.5330   -2.1670    5.3150 h1        1 017      0.094200
     63 H27        -0.1160   -3.1220    3.9620 h2        1 017      0.110700
     64 H291        0.1460   -6.1440    2.9330 h1        1 017      0.077700
     65 H292        1.9700   -6.3290    2.9700 h1        1 017      0.077700
     66 H301        0.1040   -6.4060    5.2600 hc        1 017      0.089200
     67 H302        1.9030   -6.4560    5.3410 hc        1 017      0.089200
     68 H31         0.1850   -4.2590    6.1490 hc        1 017      0.129700
     69 H321        6.6350   -6.1840    2.7980 hc        1 017      0.089700
     70 H322        7.8790   -4.8550    2.8320 hc        1 017      0.089700
     71 H35        10.3770   -8.5080    6.6600 ha        1 017      0.176000
     72 H36        11.0880   -6.1990    6.0160 ha        1 017      0.170000
     73 H37         9.6370   -4.8070    4.5520 ha        1 017      0.133000
     74 H33         6.7550   -8.0410    4.3490 ha        1 017      0.133000
     75 H131        0.2490    1.6180   -2.0150 hn        1 017      0.489467
     76 H111        3.9440   -3.0960    1.3500 hn        1 017      0.456800
     77 H202        6.3880   -5.6820    6.0200 hn        1 017      0.499300
     78 H34         8.2020   -9.4180    5.8330 ha        1 017      0.170000
@<TRIPOS>BOND
     1    1    2 1   
     2    1   39 1   
     3    1   40 1   
     4    1   75 1   
     5    2    3 ar  
     6    2    7 ar  
     7    3    4 ar  
     8    3   41 1   
     9    4    5 ar  
    10    4   42 1   
    11    5    6 ar  
    12    5    8 1   
    13    6    7 ar  
    14    6   43 1   
    15    7   44 1   
    16    8    9 2   
    17    8   10 2   
    18    8   11 1   
    19   11   12 1   
    20   11   16 1   
    21   11   76 1   
    22   12   13 1   
    23   12   45 1   
    24   12   46 1   
    25   13   14 1   
    26   13   15 1   
    27   13   47 1   
    28   14   48 1   
    29   14   49 1   
    30   14   50 1   
    31   15   51 1   
    32   15   52 1   
    33   15   53 1   
    34   16   17 1   
    35   16   54 1   
    36   16   55 1   
    37   17   18 1   
    38   17   19 1   
    39   17   56 1   
    40   18   57 1   
    41   19   20 1   
    42   19   32 1   
    43   19   58 1   
    44   20   21 1   
    45   20   59 1   
    46   20   77 1   
    47   21   22 2   
    48   21   23 1   
    49   23   24 1   
    50   24   25 1   
    51   24   31 1   
    52   24   60 1   
    53   25   26 1   
    54   25   61 1   
    55   25   62 1   
    56   26   27 1   
    57   27   28 1   
    58   27   31 1   
    59   27   63 1   
    60   28   29 1   
    61   29   30 1   
    62   29   64 1   
    63   29   65 1   
    64   30   31 1   
    65   30   66 1   
    66   30   67 1   
    67   31   68 1   
    68   32   38 1   
    69   32   69 1   
    70   32   70 1   
    71   33   34 ar  
    72   33   38 ar  
    73   33   74 1   
    74   34   35 ar  
    75   34   78 1   
    76   35   36 ar  
    77   35   71 1   
    78   36   37 ar  
    79   36   72 1   
    80   37   38 ar  
    81   37   73 1   
@<TRIPOS>SUBSTRUCTURE
     1 017         1 TEMP              0 ****  ****    0 ROOT
