@<TRIPOS>MOLECULE
017
   75    78     1     0     0
SMALL
bcc


@<TRIPOS>ATOM
      1 N1         -1.3570    5.2300   -1.0830 nh        1 017     -0.857200
      2 C2         -1.8930    3.9680   -1.1830 ca        1 017      0.246600
      3 C3         -1.0700    2.8460   -1.4720 ca        1 017     -0.241000
      4 C4         -1.6120    1.5750   -1.5070 ca        1 017      0.035000
      5 C5         -2.9750    1.3440   -1.2640 ca        1 017     -0.470500
      6 C6         -3.7860    2.4570   -0.9880 ca        1 017      0.035000
      7 C7         -3.2770    3.7410   -0.9480 ca        1 017     -0.241000
      8 S8         -3.6270   -0.1870   -1.3400 sy        1 017      1.516200
      9 O9         -5.0360   -0.0820   -1.3940 o         1 017     -0.659800
     10 O10        -3.0200   -0.9180   -2.3890 o         1 017     -0.659800
     11 N11        -3.1780   -0.8640    0.0900 n3        1 017     -0.798500
     12 C12        -3.8120   -0.4760    1.3240 c3        1 017      0.221800
     13 C13        -5.1310   -1.2000    1.6480 c3        1 017     -0.095700
     14 C14        -4.9150   -2.6750    1.9000 c3        1 017     -0.087100
     15 C15        -5.7540   -0.5410    2.8620 c3        1 017     -0.087100
     16 C16        -2.1040   -1.8080    0.1780 c3        1 017      0.195800
     17 C17        -0.7980   -1.2460    0.7840 c3        1 017      0.076100
     18 O18        -0.7840   -1.3370    2.1950 oh        1 017     -0.593800
     19 C19         0.4370   -1.9550    0.1610 c3        1 017      0.066700
     20 N20         1.6840   -1.2910    0.4980 n         1 017     -0.496900
     21 C21         1.9710   -0.0880   -0.1210 c         1 017      0.733100
     22 O22         1.4660    0.3910   -1.1510 o         1 017     -0.593000
     23 O23         3.0000    0.5990    0.5030 os        1 017     -0.433900
     24 C24         3.5120    1.7350   -0.2020 c3        1 017      0.132100
     25 C25         2.7750    3.0150    0.2350 c3        1 017      0.105400
     26 O26         3.7520    4.0520    0.3390 os        1 017     -0.419600
     27 C27         5.0570    3.4960    0.4390 c3        1 017      0.319900
     28 O28         5.4630    3.7200    1.7780 os        1 017     -0.419600
     29 C29         5.4890    2.4830    2.5040 c3        1 017      0.123400
     30 C30         5.4400    1.3370    1.4950 c3        1 017     -0.102400
     31 C31         4.9820    1.9670    0.1840 c3        1 017     -0.113700
     32 C32         0.4680   -3.4360    0.5730 c3        1 017     -0.041100
     33 C33         2.5860   -4.7680    0.4310 ca        1 017     -0.121500
     34 C34         3.5060   -5.5220   -0.2960 ca        1 017     -0.126000
     35 C35         3.3130   -5.7370   -1.6600 ca        1 017     -0.127000
     36 C36         2.1950   -5.1970   -2.2960 ca        1 017     -0.126000
     37 C37         1.2730   -4.4440   -1.5720 ca        1 017     -0.121500
     38 C38         1.4640   -4.2230   -0.2020 ca        1 017     -0.082300
     39 H11        -0.4360    5.3820   -1.4130 hn        1 017      0.425800
     40 H12        -1.9710    6.0060   -1.0620 hn        1 017      0.425800
     41 H3          0.0060    2.9780   -1.6650 ha        1 017      0.141500
     42 H4         -0.9460    0.7220   -1.7420 ha        1 017      0.156500
     43 H6         -4.8660    2.2960   -0.8100 ha        1 017      0.156500
     44 H7         -3.9460    4.5870   -0.7320 ha        1 017      0.141500
     45 H121       -3.0930   -0.6310    2.1800 h1        1 017      0.053700
     46 H122       -4.0330    0.6320    1.2620 h1        1 017      0.053700
     47 H13        -5.8330   -1.0800    0.7730 hc        1 017      0.081700
     48 H141       -4.6010   -3.1940    0.9630 hc        1 017      0.033533
     49 H142       -4.1270   -2.8330    2.6760 hc        1 017      0.033533
     50 H143       -5.8620   -3.1460    2.2590 hc        1 017      0.033533
     51 H151       -5.9470    0.5410    2.6650 hc        1 017      0.033533
     52 H152       -6.7250   -1.0340    3.1080 hc        1 017      0.033533
     53 H153       -5.0790   -0.6260    3.7480 hc        1 017      0.033533
     54 H161       -2.4350   -2.6850    0.8090 h1        1 017      0.068200
     55 H162       -1.8830   -2.1950   -0.8620 h1        1 017      0.068200
     56 H17        -0.7150   -0.1360    0.5840 h1        1 017      0.096700
     57 H18        -1.0060   -2.2460    2.4340 ho        1 017      0.399000
     58 H19         0.3280   -1.8920   -0.9660 h1        1 017      0.100700
     59 H20         2.0090   -1.4030    1.4330 hn        1 017      0.320500
     60 H24         3.4130    1.5730   -1.3100 h1        1 017      0.090700
     61 H251        2.0320    3.3560   -0.5280 h1        1 017      0.063200
     62 H252        2.2820    2.8790    1.2300 h1        1 017      0.063200
     63 H27         5.7290    4.0930   -0.2270 h2        1 017      0.101700
     64 H291        6.4360    2.4960    3.0990 h1        1 017      0.052200
     65 H292        4.6050    2.4700    3.1910 h1        1 017      0.052200
     66 H301        6.4550    0.8850    1.3670 hc        1 017      0.067200
     67 H302        4.7490    0.5300    1.8410 hc        1 017      0.067200
     68 H31         5.6460    1.6600   -0.6600 hc        1 017      0.080700
     69 H321        0.6730   -3.5230    1.6730 hc        1 017      0.056200
     70 H322       -0.5580   -3.8580    0.3860 hc        1 017      0.056200
     71 H34         4.3860   -5.9460    0.2090 ha        1 017      0.134000
     72 H35         4.0390   -6.3320   -2.2320 ha        1 017      0.133000
     73 H36         2.0390   -5.3650   -3.3720 ha        1 017      0.134000
     74 H37         0.3920   -4.0200   -2.0780 ha        1 017      0.132000
     75 H33         2.7450   -4.6010    1.5070 ha        1 017      0.132000
@<TRIPOS>BOND
     1    1    2 1   
     2    1   39 1   
     3    1   40 1   
     4    2    3 ar  
     5    2    7 ar  
     6    3    4 ar  
     7    3   41 1   
     8    4    5 ar  
     9    4   42 1   
    10    5    6 ar  
    11    5    8 1   
    12    6    7 ar  
    13    6   43 1   
    14    7   44 1   
    15    8    9 2   
    16    8   10 2   
    17    8   11 1   
    18   11   12 1   
    19   11   16 1   
    20   12   13 1   
    21   12   45 1   
    22   12   46 1   
    23   13   14 1   
    24   13   15 1   
    25   13   47 1   
    26   14   48 1   
    27   14   49 1   
    28   14   50 1   
    29   15   51 1   
    30   15   52 1   
    31   15   53 1   
    32   16   17 1   
    33   16   54 1   
    34   16   55 1   
    35   17   18 1   
    36   17   19 1   
    37   17   56 1   
    38   18   57 1   
    39   19   20 1   
    40   19   32 1   
    41   19   58 1   
    42   20   21 1   
    43   20   59 1   
    44   21   22 2   
    45   21   23 1   
    46   23   24 1   
    47   24   25 1   
    48   24   31 1   
    49   24   60 1   
    50   25   26 1   
    51   25   61 1   
    52   25   62 1   
    53   26   27 1   
    54   27   28 1   
    55   27   31 1   
    56   27   63 1   
    57   28   29 1   
    58   29   30 1   
    59   29   64 1   
    60   29   65 1   
    61   30   31 1   
    62   30   66 1   
    63   30   67 1   
    64   31   68 1   
    65   32   38 1   
    66   32   69 1   
    67   32   70 1   
    68   33   34 ar  
    69   33   38 ar  
    70   33   75 1   
    71   34   35 ar  
    72   34   71 1   
    73   35   36 ar  
    74   35   72 1   
    75   36   37 ar  
    76   36   73 1   
    77   37   38 ar  
    78   37   74 1   
@<TRIPOS>SUBSTRUCTURE
     1 017         1 TEMP              0 ****  ****    0 ROOT
