@<TRIPOS>MOLECULE
018
   29    30     1     0     0
SMALL
bcc


@<TRIPOS>ATOM
      1 OAR         0.6470   -2.6140   -0.5400 o         1 018     -0.224500
      2 NAQ        -0.5260   -2.3880   -0.3700 no        1 018      0.328200
      3 OAP        -1.3290   -3.2830   -0.3660 o         1 018     -0.224500
      4 CAI        -1.0110   -1.0060   -0.1750 ca        1 018     -0.295200
      5 CAH        -2.4100   -0.8270   -0.1810 ca        1 018      0.033000
      6 CAD        -2.9620    0.4310   -0.0240 ca        1 018     -0.255300
      7 CAC        -4.4710    0.6150   -0.0170 c3        1 018      0.700200
      8 FAA        -5.0370    0.5880    1.2350 f         1 018     -0.235967
      9 FAG        -4.8970    1.8090   -0.5480 f         1 018     -0.235967
     10 FAB        -5.1680   -0.3360   -0.7210 f         1 018     -0.235967
     11 CAJ        -0.1330    0.1160    0.0130 ca        1 018      0.303600
     12 CAF        -0.7590    1.3990    0.1630 ca        1 018     -0.240000
     13 CAE        -2.1260    1.5480    0.1450 ca        1 018      0.005000
     14 NAK         1.2220    0.0020    0.0640 nh        1 018     -0.746600
     15 CAL         2.0940    1.1410    0.2360 c3        1 018      0.283100
     16 CAM         3.5340    0.7740    0.2350 cc        1 018     -0.150300
     17 CAN         4.1540   -0.0970   -0.6420 cd        1 018     -0.169100
     18 SAO         5.7860   -0.2090   -0.3390 ss        1 018      0.075200
     19 CAT         5.7440    0.8670    0.9350 cd        1 018     -0.177100
     20 CAS         4.4690    1.3370    1.1630 cc        1 018     -0.140000
     21 HAH        -3.0730   -1.7050   -0.3190 ha        1 018      0.185000
     22 HAF        -0.1320    2.2940    0.2980 ha        1 018      0.152000
     23 HAE        -2.5780    2.5480    0.2590 ha        1 018      0.157000
     24 HNAK        1.6620   -0.8890   -0.0470 hn        1 018      0.478800
     25 HAL         1.9080    1.8800   -0.6020 h1        1 018      0.056700
     26 HALA        1.8420    1.6560    1.2110 h1        1 018      0.056700
     27 HAN         3.6610   -0.6500   -1.4420 h4        1 018      0.181000
     28 HAT         6.6290    1.1460    1.5050 h4        1 018      0.177000
     29 HAS         4.1850    2.0460    1.9440 ha        1 018      0.157000
@<TRIPOS>BOND
     1    1    2 1   
     2    2    3 1   
     3    2    4 1   
     4    4    5 ar  
     5    4   11 ar  
     6    5    6 ar  
     7    5   21 1   
     8    6    7 1   
     9    6   13 ar  
    10    7    8 1   
    11    7    9 1   
    12    7   10 1   
    13   11   12 ar  
    14   11   14 1   
    15   12   13 ar  
    16   12   22 1   
    17   13   23 1   
    18   14   15 1   
    19   14   24 1   
    20   15   16 1   
    21   15   25 1   
    22   15   26 1   
    23   16   17 2   
    24   16   20 1   
    25   17   18 1   
    26   17   27 1   
    27   18   19 1   
    28   19   20 2   
    29   19   28 1   
    30   20   29 1   
@<TRIPOS>SUBSTRUCTURE
     1 018         1 TEMP              0 ****  ****    0 ROOT
