@<TRIPOS>MOLECULE
018
   29    24     1     0     0
SMALL
bcc


@<TRIPOS>ATOM
      1 OAR        -1.3440    0.8030    2.0300 o         1 018     -0.341700
      2 NAQ        -0.6070    1.7310    1.7330 n2        1 018      0.528700
      3 OAP        -0.4790    2.7970    2.5780 os        1 018     -0.353000
      4 CAI         0.0890    1.7170    0.4970 c2        1 018     -0.250000
      5 CAH         0.5050    2.9080   -0.0770 c2        1 018      0.033000
      6 CAD         1.1460    2.8980   -1.3060 c1        1 018     -0.248000
      7 CAC         1.6610    4.1910   -1.9000 c2        1 018      0.479000
      8 FAA         2.9490    4.3510   -1.5720 f         1 018     -0.164667
      9 FAG         1.5420    4.1480   -3.2330 f         1 018     -0.164667
     10 FAB         0.9480    5.2170   -1.4210 f         1 018     -0.164667
     11 CAJ         0.3140    0.5160   -0.1580 c1        1 018      0.222000
     12 CAF         0.9550    0.5060   -1.3870 c1        1 018     -0.240000
     13 CAE         1.3710    1.6970   -1.9610 c2        1 018      0.005000
     14 NAK        -0.0600   -0.7080    0.4570 n3        1 018     -0.302000
     15 CAL        -0.6370   -1.7490   -0.3230 c3        1 018      0.039000
     16 CAM        -1.0870   -2.8710    0.5860 c2        1 018     -0.143000
     17 CAN        -2.3410   -2.9250    1.3120 c1        1 018     -0.439000
     18 SAO        -2.3750   -4.2560    2.1090 ss        1 018      0.615000
     19 CAT        -1.0500   -5.0100    1.8160 c1        1 018     -0.447000
     20 CAS        -0.2660   -4.1970    0.9070 c1        1 018     -0.140000
     21 HAH         0.3380    3.7550    0.3800 ha        1 018      0.185000
     22 HAF         1.1130   -0.3390   -1.8480 ha        1 018      0.152000
     23 HAE         1.8220    1.6910   -2.8270 ha        1 018      0.157000
     24 HNAK        0.0910   -0.8360    1.3480 hn        1 018      0.274000
     25 HAL         0.0270   -2.0890   -0.9570 h1        1 018      0.096000
     26 HALA       -1.4090   -1.3990   -0.8150 h1        1 018      0.096000
     27 HAN        -3.0410   -2.2450    1.3020 DU        1 018      0.171667
     28 HAT        -0.7910   -5.8770    2.1800 DU        1 018      0.171667
     29 HAS         0.6150   -4.4230    0.5520 DU        1 018      0.171667
@<TRIPOS>BOND
     1    1    2 2   
     2    2    4 1   
     3    4    5 1   
     4    4   11 1   
     5    5    6 1   
     6    5   21 1   
     7    6   13 1   
     8    7    8 1   
     9    7    9 1   
    10    7   10 1   
    11   11   14 1   
    12   12   13 1   
    13   12   22 1   
    14   13   23 1   
    15   14   15 1   
    16   14   24 1   
    17   15   16 1   
    18   15   25 1   
    19   15   26 1   
    20   16   17 1   
    21   16   20 1   
    22   17   18 1   
    23   18   19 1   
    24   19   20 1   
@<TRIPOS>SUBSTRUCTURE
     1 018         1 TEMP              0 ****  ****    0 ROOT
