@<TRIPOS>MOLECULE
018
   29    30     1     0     0
SMALL
bcc


@<TRIPOS>ATOM
      1 OAR         0.0190    0.0130    0.1290 o         1 018     -0.224500
      2 NAQ         1.1350    0.4440   -0.0300 no        1 018      0.328200
      3 OAP         1.6670    1.1000    0.8260 o         1 018     -0.224500
      4 CAI         1.8740    0.1890   -1.2840 ca        1 018     -0.295200
      5 CAH         3.0840    0.8940   -1.4510 ca        1 018      0.033000
      6 CAD         3.8400    0.7380   -2.5990 ca        1 018     -0.255300
      7 CAC         5.1500    1.4900   -2.7660 c3        1 018      0.700200
      8 FAA         6.2590    0.7910   -2.3530 f         1 018     -0.235967
      9 FAG         5.4410    1.8360   -4.0640 f         1 018     -0.235967
     10 FAB         5.2240    2.6750   -2.0760 f         1 018     -0.235967
     11 CAJ         1.4130   -0.7190   -2.2970 ca        1 018      0.303600
     12 CAF         2.2330   -0.8370   -3.4700 ca        1 018     -0.240000
     13 CAE         3.4040   -0.1320   -3.6120 ca        1 018      0.005000
     14 NAK         0.2730   -1.4530   -2.1780 nh        1 018     -0.746600
     15 CAL        -0.1870   -2.3500   -3.2130 c3        1 018      0.283100
     16 CAM        -1.4680   -3.0210   -2.8700 cc        1 018     -0.150300
     17 CAN        -2.5820   -2.4210   -2.3120 cd        1 018     -0.169100
     18 SAO        -3.8280   -3.5050   -2.1180 ss        1 018      0.075200
     19 CAT        -2.9690   -4.7870   -2.7530 cd        1 018     -0.177100
     20 CAS        -1.6960   -4.4130   -3.1250 cc        1 018     -0.140000
     21 HAH         3.4290    1.5850   -0.6560 ha        1 018      0.185000
     22 HAF         1.9190   -1.5100   -4.2830 ha        1 018      0.152000
     23 HAE         4.0100   -0.2400   -4.5280 ha        1 018      0.157000
     24 HNAK       -0.3030   -1.3690   -1.3660 hn        1 018      0.478800
     25 HAL        -0.3320   -1.7660   -4.1730 h1        1 018      0.056700
     26 HALA        0.6050   -3.1340   -3.4030 h1        1 018      0.056700
     27 HAN        -2.6610   -1.3710   -2.0280 h4        1 018      0.181000
     28 HAT        -3.3840   -5.7900   -2.8470 h4        1 018      0.177000
     29 HAS        -0.9430   -5.0730   -3.5590 ha        1 018      0.157000
@<TRIPOS>BOND
     1    1    2 1   
     2    2    3 1   
     3    2    4 1   
     4    4    5 ar  
     5    4   11 ar  
     6    5    6 ar  
     7    5   21 1   
     8    6    7 1   
     9    6   13 ar  
    10    7    8 1   
    11    7    9 1   
    12    7   10 1   
    13   11   12 ar  
    14   11   14 1   
    15   12   13 ar  
    16   12   22 1   
    17   13   23 1   
    18   14   15 1   
    19   14   24 1   
    20   15   16 1   
    21   15   25 1   
    22   15   26 1   
    23   16   17 2   
    24   16   20 1   
    25   17   18 1   
    26   17   27 1   
    27   18   19 1   
    28   19   20 2   
    29   19   28 1   
    30   20   29 1   
@<TRIPOS>SUBSTRUCTURE
     1 018         1 TEMP              0 ****  ****    0 ROOT
