@<TRIPOS>MOLECULE
019
   27    24     1     0     0
SMALL
bcc


@<TRIPOS>ATOM
      1 C21         3.3550    1.5070   -1.4260 c1        1 019      0.402000
      2 N74         1.9830    1.7140   -1.8260 n2        1 019     -0.365000
      3 C75         1.0010    2.1500   -0.8510 c3        1 019      0.049000
      4 O76         4.0620    0.6460   -2.0190 o         1 019     -0.571500
      5 C77         0.4940    0.9420   -0.0630 c2        1 019     -0.112000
      6 C80         1.2730    0.1510    0.8710 c1        1 019     -0.403000
      7 S81         0.3440   -0.8860    1.4950 ss        1 019      0.381000
      8 C82        -1.0590   -0.6810    0.8840 c1        1 019     -0.296000
      9 N83        -0.9790    0.4090   -0.0480 n2        1 019     -0.112000
     10 C85        -2.3060   -1.4650    1.2330 c2        1 019     -0.033000
     11 C86        -2.0270   -2.9590    1.0890 c3        1 019     -0.209000
     12 C90        -2.7130   -1.1610    2.6760 c3        1 019     -0.209000
     13 C95         1.6030    1.5580   -3.2120 c3        1 019     -0.069000
     14 H751        1.4170    2.7930   -0.2330 h1        1 019      0.090500
     15 H752        0.2520    2.5770   -1.3110 h1        1 019      0.090500
     16 H80         2.2200    0.2630    1.0640 DU        1 019      0.239000
     17 H85        -3.0310   -1.2090    0.6290 ha        1 019      0.103000
     18 H861       -1.2750   -3.2090    1.6670 hc        1 019      0.074500
     19 H862       -1.8020   -3.1620    0.1520 hc        1 019      0.074500
     20 H863       -2.8230   -3.4660    1.3510 hc        1 019      0.074500
     21 H901       -2.9440   -0.2070    2.7580 hc        1 019      0.074500
     22 H902       -1.9650   -1.3680    3.2780 hc        1 019      0.074500
     23 H903       -3.4900   -1.7080    2.9190 hc        1 019      0.074500
     24 H951        0.6250    1.5960   -3.2900 h1        1 019      0.050000
     25 H952        1.9250    0.6900   -3.5440 h1        1 019      0.050000
     26 H953        2.0040    2.2820   -3.7460 h1        1 019      0.050000
     27 OXT         3.8540    2.2040   -0.4960 o         1 019     -0.571500
@<TRIPOS>BOND
     1    1    4 1   
     2    1   27 1   
     3    2    3 1   
     4    2   13 1   
     5    3    5 1   
     6    3   14 1   
     7    3   15 1   
     8    5    6 1   
     9    5    9 1   
    10    6    7 1   
    11    7    8 1   
    12    8    9 1   
    13   10   11 1   
    14   10   12 1   
    15   10   17 1   
    16   11   18 1   
    17   11   19 1   
    18   11   20 1   
    19   12   21 1   
    20   12   22 1   
    21   12   23 1   
    22   13   24 1   
    23   13   25 1   
    24   13   26 1   
@<TRIPOS>SUBSTRUCTURE
     1 019         1 TEMP              0 ****  ****    0 ROOT
