@<TRIPOS>MOLECULE
019
   27    27     1     0     0
SMALL
bcc


@<TRIPOS>ATOM
      1 C21        -3.5900   -0.1800    0.2400 c         1 019      0.999600
      2 N74        -2.5300   -1.0280   -0.3070 n         1 019     -0.507800
      3 C75        -1.5350   -0.4180   -1.1350 c3        1 019      0.070700
      4 O76        -3.6980    1.0000   -0.2150 o         1 019     -0.836800
      5 C77        -0.4680    0.3850   -0.4240 cc        1 019      0.310600
      6 C80        -0.7720    1.4960    0.3510 cd        1 019     -0.193400
      7 S81         0.6250    2.1820    0.9770 ss        1 019     -0.211300
      8 C82         1.5920    0.9780    0.1890 cd        1 019      0.375700
      9 N83         0.8920    0.0910   -0.5150 nc        1 019     -0.633000
     10 C85         3.0750    0.9950    0.3350 c3        1 019     -0.082000
     11 C86         3.5670   -0.2710    1.0080 c3        1 019     -0.084100
     12 C90         3.7510    1.1790   -1.0110 c3        1 019     -0.084100
     13 C95        -2.1020   -2.1460    0.4720 c3        1 019      0.087300
     14 H751       -1.0380   -1.2200   -1.7540 h1        1 019      0.051700
     15 H752       -2.0640    0.3050   -1.8230 h1        1 019      0.051700
     16 H80        -1.8010    1.8450    0.5140 h4        1 019      0.239000
     17 H85         3.3440    1.8740    0.9900 hc        1 019      0.039700
     18 H861        3.3320   -1.1640    0.3800 hc        1 019      0.035367
     19 H862        4.6730   -0.2190    1.1570 hc        1 019      0.035367
     20 H863        3.0760   -0.4000    2.0020 hc        1 019      0.035367
     21 H901        3.3950    2.1170   -1.5000 hc        1 019      0.035367
     22 H902        4.8570    1.2420   -0.8760 hc        1 019      0.035367
     23 H903        3.5190    0.3190   -1.6840 hc        1 019      0.035367
     24 H951       -1.7850   -2.9840   -0.2080 h1        1 019      0.010367
     25 H952       -1.2260   -1.9040    1.1380 h1        1 019      0.010367
     26 H953       -2.9550   -2.4950    1.1140 h1        1 019      0.010367
     27 OXT        -4.3540   -0.6850    1.1120 o         1 019     -0.836800
@<TRIPOS>BOND
     1    1    2 1   
     2    1    4 1   
     3    1   27 1   
     4    2    3 1   
     5    2   13 1   
     6    3    5 1   
     7    3   14 1   
     8    3   15 1   
     9    5    6 2   
    10    5    9 1   
    11    6    7 1   
    12    6   16 1   
    13    7    8 1   
    14    8    9 2   
    15    8   10 1   
    16   10   11 1   
    17   10   12 1   
    18   10   17 1   
    19   11   18 1   
    20   11   19 1   
    21   11   20 1   
    22   12   21 1   
    23   12   22 1   
    24   12   23 1   
    25   13   24 1   
    26   13   25 1   
    27   13   26 1   
@<TRIPOS>SUBSTRUCTURE
     1 019         1 TEMP              0 ****  ****    0 ROOT
