@<TRIPOS>MOLECULE
01B
   26    24     1     0     0
SMALL
bcc


@<TRIPOS>ATOM
      1 C1         -0.1850    0.3320    1.1350 c3        1 01B     -0.046000
      2 C2          0.7240    0.5670    2.3200 c3        1 01B     -0.086000
      3 N2         -1.5250    0.1770    1.5890 n3        1 01B     -0.332000
      4 O2          0.4170   -0.3570    3.3370 oh        1 01B     -0.369000
      5 C3          0.5230    1.9720    2.8380 c2        1 01B      0.310000
      6 OXT         1.0670    2.9440    2.2510 o         1 01B     -0.567500
      7 C6          0.2490   -0.9200    0.4080 c3        1 01B     -0.123000
      8 C7          0.0690   -0.7260   -1.0800 c2        1 01B     -0.033000
      9 C8         -1.0540   -1.2350   -1.7140 c2        1 01B     -0.108000
     10 C9         -1.1980   -1.0970   -3.0850 c1        1 01B     -0.139000
     11 C10        -0.2200   -0.4490   -3.8230 c1        1 01B     -0.146500
     12 C11         0.9030    0.0600   -3.1900 c1        1 01B     -0.146500
     13 C12         1.0470   -0.0780   -1.8180 c1        1 01B     -0.136000
     14 O3         -0.1740    2.1700    3.8680 o         1 01B     -0.567500
     15 H1         -0.1320    1.0960    0.5280 h1        1 01B      0.104000
     16 H2          1.6550    0.4510    2.0440 h1        1 01B      0.091000
     17 HN2        -2.0260    0.8900    1.3080 hn        1 01B      0.144500
     18 HN2A       -1.5350    0.1370    2.5040 hn        1 01B      0.144500
     19 HO2         1.1220   -0.4560    3.8710 ho        1 01B      0.219000
     20 H6         -0.2950   -1.6750    0.7070 hc        1 01B      0.088000
     21 H6A         1.1910   -1.0990    0.6020 hc        1 01B      0.088000
     22 H8         -1.7470   -1.6840   -1.1940 ha        1 01B      0.141000
     23 H9         -1.9880   -1.4550   -3.5320 ha        1 01B      0.116000
     24 H10        -0.3150   -0.3620   -4.7910 ha        1 01B      0.113000
     25 H11         1.5920    0.5170   -3.7100 ha        1 01B      0.113000
     26 H12         1.8370    0.2810   -1.3720 ha        1 01B      0.128000
@<TRIPOS>BOND
     1    1    2 1   
     2    1    3 1   
     3    1    7 1   
     4    1   15 1   
     5    2    4 1   
     6    2    5 1   
     7    2   16 1   
     8    3   17 1   
     9    3   18 1   
    10    4   19 1   
    11    5    6 1   
    12    5   14 1   
    13    7    8 1   
    14    7   20 1   
    15    7   21 1   
    16    8    9 1   
    17    8   13 1   
    18    9   10 1   
    19    9   22 1   
    20   10   23 1   
    21   11   12 1   
    22   11   24 1   
    23   12   25 1   
    24   13   26 1   
@<TRIPOS>SUBSTRUCTURE
     1 01B         1 TEMP              0 ****  ****    0 ROOT
