@<TRIPOS>MOLECULE
01B
   26    26     1     0     0
SMALL
bcc


@<TRIPOS>ATOM
      1 C1          0.6910    0.0430   -0.0140 c3        1 01B      0.151500
      2 C2          2.0460   -0.0950   -0.7560 c3        1 01B     -0.024900
      3 N2          0.6730   -0.6290    1.2770 n3        1 01B     -0.899800
      4 O2          2.3050   -1.4650   -1.0200 oh        1 01B     -0.641800
      5 C3          3.1590    0.5210    0.1320 c         1 01B      0.890600
      6 OXT         3.4630    1.7300   -0.0240 o         1 01B     -0.832800
      7 C6         -0.4240   -0.4480   -0.9510 c3        1 01B     -0.037100
      8 C7         -1.7900   -0.1580   -0.4430 ca        1 01B     -0.040300
      9 C8         -2.3980   -1.0030    0.4960 ca        1 01B     -0.122000
     10 C9         -3.6870   -0.7380    0.9540 ca        1 01B     -0.139500
     11 C10        -4.3860    0.3730    0.4810 ca        1 01B     -0.153000
     12 C11        -3.7870    1.2220   -0.4490 ca        1 01B     -0.139500
     13 C12        -2.4970    0.9590   -0.9070 ca        1 01B     -0.122000
     14 O3          3.6760   -0.2660    0.9810 o         1 01B     -0.832800
     15 H1          0.5350    1.1450    0.1810 h1        1 01B      0.064700
     16 H2          1.9980    0.4140   -1.7520 h1        1 01B      0.051700
     17 HN2         0.8830   -1.6010    1.1350 hn        1 01B      0.349300
     18 HN2A        1.4170   -0.2460    1.8390 hn        1 01B      0.349300
     19 HO2         2.9190   -1.7680   -0.3320 ho        1 01B      0.420000
     20 H6         -0.2760    0.0550   -1.9440 hc        1 01B      0.048700
     21 H6A        -0.3010   -1.5520   -1.1160 hc        1 01B      0.048700
     22 H8         -1.8380   -1.8670    0.8840 ha        1 01B      0.134500
     23 H9         -4.1510   -1.4030    1.6960 ha        1 01B      0.115000
     24 H10        -5.4020    0.5810    0.8440 ha        1 01B      0.112000
     25 H11        -4.3300    2.1030   -0.8180 ha        1 01B      0.115000
     26 H12        -2.0250    1.6360   -1.6340 ha        1 01B      0.134500
@<TRIPOS>BOND
     1    1    2 1   
     2    1    3 1   
     3    1    7 1   
     4    1   15 1   
     5    2    4 1   
     6    2    5 1   
     7    2   16 1   
     8    3   17 1   
     9    3   18 1   
    10    4   19 1   
    11    5    6 1   
    12    5   14 1   
    13    7    8 1   
    14    7   20 1   
    15    7   21 1   
    16    8    9 ar  
    17    8   13 ar  
    18    9   10 ar  
    19    9   22 1   
    20   10   11 ar  
    21   10   23 1   
    22   11   12 ar  
    23   11   24 1   
    24   12   13 ar  
    25   12   25 1   
    26   13   26 1   
@<TRIPOS>SUBSTRUCTURE
     1 01B         1 TEMP              0 ****  ****    0 ROOT
