@<TRIPOS>MOLECULE
01C
   32    33     1     0     0
SMALL
bcc


@<TRIPOS>ATOM
      1 N           0.6890    0.5600   -2.2740 n3        1 01C     -0.895800
      2 CA          0.5330   -0.0950   -1.0000 c3        1 01C      0.098500
      3 CB         -0.6980   -1.0300   -0.9560 c3        1 01C      0.011800
      4 CG         -1.9570   -0.2800   -0.9500 cc        1 01C     -0.160400
      5 CD1        -2.4740    0.5120   -1.9770 cd        1 01C     -0.068100
      6 CD2        -2.9210   -0.2510    0.1330 ca        1 01C     -0.083800
      7 CE2        -4.0120    0.5860   -0.3140 ca        1 01C     -0.049200
      8 NE1        -3.7140    1.0310   -1.6060 na        1 01C     -0.192400
      9 CZ2        -5.1260    0.8240    0.5060 ca        1 01C     -0.142000
     10 CH2        -5.1420    0.2320    1.7590 ca        1 01C     -0.114000
     11 CZ3        -4.0840   -0.5820    2.2030 ca        1 01C     -0.153000
     12 CE3        -2.9770   -0.8270    1.4030 ca        1 01C     -0.088000
     13 C           1.7440   -0.9340   -0.5860 c         1 01C      0.488100
     14 O           2.4740   -1.5340   -1.3680 o         1 01C     -0.454100
     15 C1          2.0640   -0.9920    0.9380 c3        1 01C      0.287600
     16 F11         0.9460   -1.0190    1.7320 f         1 01C     -0.194800
     17 F12         2.7250   -2.1400    1.2940 f         1 01C     -0.194800
     18 C2          2.9670    0.2920    1.3290 c3        1 01C      0.588900
     19 F21         2.2680    1.4650    1.2600 f         1 01C     -0.213967
     20 F22         3.4570    0.2220    2.6010 f         1 01C     -0.213967
     21 F23         4.0510    0.4520    0.5140 f         1 01C     -0.213967
     22 HN3         1.4630    1.1930   -2.2620 hn        1 01C      0.365800
     23 H25         0.3960    0.7090   -0.2130 h1        1 01C      0.101700
     24 H261       -0.6670   -1.7340   -1.8310 hc        1 01C      0.059700
     25 H262       -0.6300   -1.6470   -0.0180 hc        1 01C      0.059700
     26 H30        -2.0350    0.7510   -2.9490 h4        1 01C      0.176000
     27 HN33       -4.2650    1.6500   -2.1370 hn        1 01C      0.299700
     28 H34        -5.9550    1.4590    0.1660 ha        1 01C      0.132000
     29 H35        -6.0010    0.4000    2.4250 ha        1 01C      0.130000
     30 H36        -4.1410   -1.0290    3.2060 ha        1 01C      0.131000
     31 H37        -2.1520   -1.4610    1.7590 ha        1 01C      0.134000
     32 H2          0.8050   -0.1040   -3.0140 hn        1 01C      0.365800
@<TRIPOS>BOND
     1    1    2 1   
     2    1   22 1   
     3    1   32 1   
     4    2    3 1   
     5    2   13 1   
     6    2   23 1   
     7    3    4 1   
     8    3   24 1   
     9    3   25 1   
    10    4    5 2   
    11    4    6 1   
    12    5    8 1   
    13    5   26 1   
    14    6    7 ar  
    15    6   12 ar  
    16    7    8 1   
    17    7    9 ar  
    18    8   27 1   
    19    9   10 ar  
    20    9   28 1   
    21   10   11 ar  
    22   10   29 1   
    23   11   12 ar  
    24   11   30 1   
    25   12   31 1   
    26   13   14 2   
    27   13   15 1   
    28   15   16 1   
    29   15   17 1   
    30   15   18 1   
    31   18   19 1   
    32   18   20 1   
    33   18   21 1   
@<TRIPOS>SUBSTRUCTURE
     1 01C         1 TEMP              0 ****  ****    0 ROOT
