@<TRIPOS>MOLECULE
01C
   32    27     1     0     0
SMALL
bcc


@<TRIPOS>ATOM
      1 N          -1.1560   -0.3070   -1.3530 n3        1 01C     -0.326000
      2 CA          0.2470   -0.5370   -1.2870 c3        1 01C     -0.051000
      3 CB          0.6950   -0.5090    0.1560 c3        1 01C     -0.072000
      4 CG          0.2840    0.8020    0.7850 c2        1 01C     -0.170000
      5 CD1         0.7940    1.9820    0.2820 c1        1 01C     -0.042000
      6 CD2        -0.5000    1.1090    1.8750 c1        1 01C     -0.072000
      7 CE2        -0.4750    2.4690    2.0440 c1        1 01C     -0.005000
      8 NE1         0.3280    3.0080    1.0550 n1        1 01C     -0.215000
      9 CZ2        -1.1930    3.0600    3.0980 c1        1 01C     -0.124000
     10 CH2        -1.9270    2.2660    3.9680 c1        1 01C     -0.124000
     11 CZ3        -1.9520    0.8890    3.7970 c1        1 01C     -0.124000
     12 CE3        -1.2440    0.3050    2.7570 c1        1 01C     -0.124000
     13 C           0.5660   -1.8860   -1.8870 c2        1 01C      0.156000
     14 O           0.0380   -2.8870   -1.4450 o         1 01C     -0.225000
     15 C1          1.5280   -1.9880   -3.0490 c3        1 01C      0.191000
     16 F11         1.2080   -1.0750   -3.9750 f         1 01C     -0.127000
     17 F12         2.7760   -1.7670   -2.6170 f         1 01C     -0.127000
     18 C2          1.4410   -3.3700   -3.6540 c3        1 01C      0.385000
     19 F21         0.3440   -3.4550   -4.4170 f         1 01C     -0.141000
     20 F22         2.5260   -3.5970   -4.4050 f         1 01C     -0.141000
     21 F23         1.3760   -4.2820   -2.6760 f         1 01C     -0.141000
     22 HN3        -1.3440    0.2310   -2.0700 hn        1 01C      0.160500
     23 H25         0.7160    0.1610   -1.7870 h1        1 01C      0.146000
     24 H261        1.6680   -0.6000    0.1980 hc        1 01C      0.098500
     25 H262        0.2770   -1.2480    0.6410 hc        1 01C      0.098500
     26 H30         1.3860    2.0680   -0.4900 DU        1 01C      0.214500
     27 HN33        0.5140    3.8930    0.9390 DU        1 01C      0.214500
     28 H34        -1.1750    4.0280    3.2190 ha        1 01C      0.131500
     29 H35        -2.4250    2.6770    4.7000 ha        1 01C      0.131500
     30 H36        -2.4690    0.3310    4.4090 ha        1 01C      0.131500
     31 H37        -1.2620   -0.6640    2.6370 ha        1 01C      0.131500
     32 H2         -1.5920   -1.1070   -1.4490 hn        1 01C      0.160500
@<TRIPOS>BOND
     1    1    2 1   
     2    1   22 1   
     3    1   32 1   
     4    2    3 1   
     5    2   13 1   
     6    2   23 1   
     7    3    4 1   
     8    3   24 1   
     9    3   25 1   
    10    4    5 1   
    11    4    6 1   
    12    5    8 1   
    13    6    7 1   
    14    9   10 1   
    15    9   28 1   
    16   10   29 1   
    17   11   12 1   
    18   11   30 1   
    19   12   31 1   
    20   13   14 1   
    21   13   15 1   
    22   15   16 1   
    23   15   17 1   
    24   15   18 1   
    25   18   19 1   
    26   18   20 1   
    27   18   21 1   
@<TRIPOS>SUBSTRUCTURE
     1 01C         1 TEMP              0 ****  ****    0 ROOT
