@<TRIPOS>MOLECULE
01E
   87    82     1     0     0
SMALL
bcc


@<TRIPOS>ATOM
      1 CA          5.4940   -3.2810    1.0970 c3        1 01E     -0.173000
      2 CB          6.5050   -3.1010    2.2240 c3        1 01E     -0.048000
      3 CG1         5.9820   -2.0560    3.2160 c3        1 01E     -0.211000
      4 CG2         6.7140   -4.4730    2.9690 c3        1 01E     -0.211000
      5 CG3         7.8160   -2.6340    1.6530 c3        1 01E     -0.211000
      6 C           5.1340   -1.8650    0.4720 c2        1 01E      0.312000
      7 O           5.6930   -0.8360    0.8980 o         1 01E     -0.376000
      8 N           4.1370   -1.7710   -0.6800 n         1 01E     -0.376000
      9 CA1         3.6530   -0.5130   -1.0940 c3        1 01E      0.026000
     10 CB1         3.9870   -0.2930   -2.6040 c3        1 01E     -0.060000
     11 CG11        3.2110   -1.3770   -3.4890 c3        1 01E     -0.214333
     12 CG21        3.5470    1.1380   -3.0310 c3        1 01E     -0.214333
     13 CG31        5.5370   -0.4520   -2.8250 c3        1 01E     -0.214333
     14 C1          2.1440   -0.4540   -0.8920 c2        1 01E      0.294000
     15 O1          1.4100   -1.1780   -1.5490 o         1 01E     -0.372000
     16 N1          1.5670    0.5100    0.0560 n         1 01E     -0.371000
     17 CA2         0.2020    0.3590    0.5010 c3        1 01E      0.018000
     18 CB2         0.1810    0.1140    2.0010 c3        1 01E     -0.201000
     19 CG         -0.2490   -1.3200    2.2700 c2        1 01E      0.341000
     20 OD1        -0.3340   -2.1170    1.3430 o         1 01E     -0.364000
     21 ND2        -0.5170   -1.7530    3.6280 n         1 01E     -0.187000
     22 CE1        -0.8760   -3.0090    4.0130 c1        1 01E     -0.109500
     23 CH1        -1.0470   -3.0030    5.3890 c1        1 01E     -0.174000
     24 CE2        -0.4630   -0.9650    4.7480 c1        1 01E     -0.109500
     25 CH2        -0.7920   -1.7450    5.8360 c1        1 01E     -0.174000
     26 C2         -0.5670    1.6110    0.1850 c2        1 01E      0.275000
     27 O2          0.0030    2.6900    0.1850 o         1 01E     -0.371000
     28 N2         -2.0160    1.5550    0.0330 n         1 01E     -0.350000
     29 CA3        -2.7510    2.7520   -0.2700 c3        1 01E     -0.001000
     30 C3         -4.2190    2.5340    0.0300 c3        1 01E     -0.011000
     31 O3         -4.6190    1.2980   -0.4780 oh        1 01E     -0.340000
     32 CB3        -2.5780    3.0920   -1.7290 c3        1 01E     -0.221000
     33 C11        -5.0450    3.6400   -0.6160 c2        1 01E      0.301000
     34 O11        -4.4970    4.6320   -1.0510 o         1 01E     -0.374000
     35 N21        -6.5050    3.5120   -0.6970 n         1 01E     -0.348000
     36 C31        -7.2070    4.1270   -1.7520 c3        1 01E      0.002000
     37 C4         -8.2050    3.1210   -2.3630 c2        1 01E     -0.097000
     38 C5         -7.7570    2.1510   -3.2710 c2        1 01E     -0.119000
     39 C6         -8.6510    1.2090   -3.7840 c1        1 01E     -0.099000
     40 C7         -9.9870    1.2330   -3.3960 c1        1 01E     -0.259000
     41 I7        -11.3210   -0.2660   -4.0950 i         1 01E      0.141000
     42 C8        -10.4340    2.2000   -2.4910 c1        1 01E     -0.100000
     43 C9         -9.5380    3.1450   -1.9750 c1        1 01E     -0.125000
     44 HA1         4.6830   -3.6960    1.4510 hc        1 01E      0.111000
     45 HA2         5.8820   -3.8600    0.3960 hc        1 01E      0.111000
     46 H11         6.3690   -1.1600    2.9930 hc        1 01E      0.079444
     47 H12         6.2480   -2.3120    4.1360 hc        1 01E      0.079444
     48 H13         5.0050   -2.0130    3.1590 hc        1 01E      0.079444
     49 H21         5.8930   -4.7130    3.4510 hc        1 01E      0.079444
     50 H22         7.4550   -4.3890    3.6080 hc        1 01E      0.079444
     51 H23         6.9280   -5.1810    2.3080 hc        1 01E      0.079444
     52 H31         7.9960   -3.1140    0.7950 hc        1 01E      0.079444
     53 H32         7.7710   -1.6430    1.4790 hc        1 01E      0.079444
     54 H33         8.5400   -2.8240    2.2940 hc        1 01E      0.079444
     55 H           3.8670   -2.5260   -1.1080 hn        1 01E      0.241000
     56 HA          4.0790    0.1920   -0.5600 h1        1 01E      0.141000
     57 HG11        3.3910   -2.2620   -3.1440 hc        1 01E      0.083222
     58 HG12        3.5220   -1.3180   -4.4360 hc        1 01E      0.083222
     59 HG13        2.2430   -1.2010   -3.4500 hc        1 01E      0.083222
     60 HG21        2.6060    1.1260   -3.2940 hc        1 01E      0.083222
     61 HG22        4.0890    1.4330   -3.7790 hc        1 01E      0.083222
     62 HG23        3.6670    1.7500   -2.2830 hc        1 01E      0.083222
     63 HG31        5.7710   -0.1410   -3.7200 hc        1 01E      0.083222
     64 HG32        5.7890   -1.4100   -2.7300 hc        1 01E      0.083222
     65 HG33        6.0170    0.0780   -2.1610 hc        1 01E      0.083222
     66 H1          2.0630    1.2230    0.3400 hn        1 01E      0.248000
     67 HA3        -0.2120   -0.4040    0.0390 h1        1 01E      0.154000
     68 HB2        -0.4450    0.7250    2.4220 hc        1 01E      0.139000
     69 HB3         1.0900    0.2630    2.3730 hc        1 01E      0.139000
     70 HE1        -0.9890   -3.7670    3.4310 DU        1 01E      0.170000
     71 HH1        -1.3060   -3.7730    5.9440 DU        1 01E      0.170000
     72 HE2        -0.2320   -0.0220    4.7720 DU        1 01E      0.170000
     73 HH2        -0.8360   -1.4410    6.7820 DU        1 01E      0.170000
     74 H2         -2.4670    0.7530    0.1610 hn        1 01E      0.238000
     75 HA4        -2.4150    3.4850    0.2750 h1        1 01E      0.154000
     76 HB1        -1.6360    2.9270   -1.9970 hc        1 01E      0.091000
     77 HB21       -2.7980    4.0350   -1.8730 hc        1 01E      0.091000
     78 HB31       -3.1740    2.5310   -2.2690 hc        1 01E      0.091000
     79 HN2        -6.9480    2.9790   -0.1060 hn        1 01E      0.238000
     80 H311       -6.5880    4.4090   -2.4230 h1        1 01E      0.112000
     81 H321       -7.6970    4.9090   -1.4080 h1        1 01E      0.112000
     82 H5         -6.8090    2.1340   -3.5450 ha        1 01E      0.158000
     83 H6         -8.3340    0.5220   -4.4260 ha        1 01E      0.146000
     84 H8        -11.3710    2.2170   -2.2180 ha        1 01E      0.144000
     85 H9         -9.8540    3.8250   -1.3370 ha        1 01E      0.136000
     86 H43        -4.3580    2.5470    0.9910 h1        1 01E      0.110000
     87 H44        -5.2350    0.9500    0.0520 ho        1 01E      0.231000
@<TRIPOS>BOND
     1    1    2 1   
     2    1    6 1   
     3    1   44 1   
     4    1   45 1   
     5    2    3 1   
     6    2    4 1   
     7    2    5 1   
     8    3   46 1   
     9    3   47 1   
    10    3   48 1   
    11    4   49 1   
    12    4   50 1   
    13    4   51 1   
    14    5   52 1   
    15    5   53 1   
    16    5   54 1   
    17    6    7 1   
    18    6    8 1   
    19    8    9 1   
    20    8   55 1   
    21    9   10 1   
    22    9   14 1   
    23    9   56 1   
    24   10   11 1   
    25   10   12 1   
    26   10   13 1   
    27   11   57 1   
    28   11   58 1   
    29   11   59 1   
    30   12   60 1   
    31   12   61 1   
    32   12   62 1   
    33   13   63 1   
    34   13   64 1   
    35   13   65 1   
    36   14   15 1   
    37   14   16 1   
    38   16   17 1   
    39   16   66 1   
    40   17   18 1   
    41   17   26 1   
    42   17   67 1   
    43   18   19 1   
    44   18   68 1   
    45   18   69 1   
    46   19   20 1   
    47   19   21 1   
    48   21   22 1   
    49   21   24 1   
    50   22   23 1   
    51   23   25 1   
    52   24   25 1   
    53   26   27 1   
    54   26   28 1   
    55   28   29 1   
    56   28   74 1   
    57   29   30 1   
    58   29   32 1   
    59   29   75 1   
    60   30   31 1   
    61   30   33 1   
    62   30   86 1   
    63   31   87 1   
    64   32   76 1   
    65   32   77 1   
    66   32   78 1   
    67   33   34 1   
    68   33   35 1   
    69   35   36 1   
    70   35   79 1   
    71   36   37 1   
    72   36   80 1   
    73   36   81 1   
    74   37   38 1   
    75   37   43 1   
    76   38   39 1   
    77   38   82 1   
    78   39   83 1   
    79   40   41 1   
    80   40   42 1   
    81   42   84 1   
    82   43   85 1   
@<TRIPOS>SUBSTRUCTURE
     1 01E         1 TEMP              0 ****  ****    0 ROOT
