@<TRIPOS>MOLECULE
01E
   87    88     1     0     0
SMALL
bcc


@<TRIPOS>ATOM
      1 CA         -7.9380   -1.2340    0.2140 c3        1 01E     -0.144400
      2 CB         -8.6440   -2.4320   -0.4230 c3        1 01E     -0.049000
      3 CG1        -8.4690   -3.6680    0.4470 c3        1 01E     -0.092767
      4 CG2       -10.1280   -2.0950   -0.5230 c3        1 01E     -0.092767
      5 CG3        -8.1080   -2.7090   -1.8190 c3        1 01E     -0.092767
      6 C          -6.4640   -1.4710    0.4850 c         1 01E      0.672100
      7 O          -6.0500   -1.7990    1.6150 o         1 01E     -0.614100
      8 N          -5.5820   -1.2780   -0.5630 n         1 01E     -0.568900
      9 CA1        -4.1630   -1.4510   -0.4270 c3        1 01E      0.055700
     10 CB1        -3.5610   -2.5640   -1.3340 c3        1 01E     -0.058000
     11 CG11       -4.0330   -2.4420   -2.7730 c3        1 01E     -0.096100
     12 CG21       -2.0430   -2.4580   -1.2870 c3        1 01E     -0.096100
     13 CG31       -3.9810   -3.9170   -0.7770 c3        1 01E     -0.096100
     14 C1         -3.4620   -0.1010   -0.7320 c         1 01E      0.657100
     15 O1         -3.5670    0.4630   -1.8410 o         1 01E     -0.627100
     16 N1         -2.6960    0.4570    0.2740 n         1 01E     -0.556900
     17 CA2        -2.1530    1.7870    0.1590 c3        1 01E      0.049700
     18 CB2        -2.0010    2.4980    1.5100 c3        1 01E     -0.162400
     19 CG         -3.3460    2.8100    2.1270 c         1 01E      0.563900
     20 OD1        -4.4210    2.5990    1.5480 o         1 01E     -0.550100
     21 ND2        -3.3470    3.3760    3.4110 n         1 01E     -0.094200
     22 CE1        -4.5020    3.7120    4.1500 cc        1 01E     -0.135300
     23 CH1        -4.1060    4.2520    5.3680 cd        1 01E     -0.179000
     24 CE2        -2.2200    3.7190    4.1880 cc        1 01E     -0.135300
     25 CH2        -2.6600    4.2570    5.3910 cd        1 01E     -0.179000
     26 C2         -0.7570    1.7780   -0.5210 c         1 01E      0.648100
     27 O2          0.2540    2.2010    0.0830 o         1 01E     -0.657100
     28 N2         -0.6920    1.2920   -1.8000 n         1 01E     -0.547900
     29 CA3         0.5630    1.2360   -2.5190 c3        1 01E      0.080700
     30 C3          1.0780    2.6530   -2.9250 c3        1 01E      0.059100
     31 O3          0.8320    2.9430   -4.2800 oh        1 01E     -0.581800
     32 CB3         0.4810    0.3300   -3.7440 c3        1 01E     -0.109100
     33 C11         2.5800    2.7380   -2.6190 c         1 01E      0.624100
     34 O11         3.4040    2.6460   -3.5550 o         1 01E     -0.626100
     35 N21         2.9470    2.9600   -1.3120 n         1 01E     -0.546900
     36 C31         4.3240    2.9850   -0.9020 c3        1 01E      0.129300
     37 C4          4.9000    1.6460   -0.5290 ca        1 01E     -0.104300
     38 C5          5.2390    0.7350   -1.5350 ca        1 01E     -0.120500
     39 C6          5.7980   -0.4980   -1.2030 ca        1 01E     -0.101000
     40 C7          6.0210   -0.8280    0.1350 ca        1 01E      0.026900
     41 I7          6.8310   -2.6150    0.6160 i         1 01E     -0.145900
     42 C8          5.6830    0.0790    1.1390 ca        1 01E     -0.101000
     43 C9          5.1220    1.3130    0.8090 ca        1 01E     -0.120500
     44 HA1        -8.0750   -0.3310   -0.4370 hc        1 01E      0.073700
     45 HA2        -8.4150   -1.0180    1.2080 hc        1 01E      0.073700
     46 H11        -8.9250   -3.5020    1.4520 hc        1 01E      0.039811
     47 H12        -8.9620   -4.5470   -0.0320 hc        1 01E      0.039811
     48 H13        -7.3830   -3.8940    0.5850 hc        1 01E      0.039811
     49 H21       -10.2820   -1.2110   -1.1870 hc        1 01E      0.039811
     50 H22       -10.6900   -2.9620   -0.9470 hc        1 01E      0.039811
     51 H23       -10.5440   -1.8630    0.4870 hc        1 01E      0.039811
     52 H31        -7.0970   -3.1830   -1.7700 hc        1 01E      0.039811
     53 H32        -8.7910   -3.4110   -2.3570 hc        1 01E      0.039811
     54 H33        -8.0370   -1.7640   -2.4090 hc        1 01E      0.039811
     55 H          -5.9250   -1.0410   -1.4650 hn        1 01E      0.327500
     56 HA         -3.9550   -1.7590    0.6460 h1        1 01E      0.098700
     57 HG11       -3.9210   -1.3910   -3.1360 hc        1 01E      0.043367
     58 HG12       -3.4260   -3.1140   -3.4280 hc        1 01E      0.043367
     59 HG13       -5.1040   -2.7450   -2.8670 hc        1 01E      0.043367
     60 HG21       -1.6830   -2.4310   -0.2300 hc        1 01E      0.043367
     61 HG22       -1.5860   -3.3420   -1.7940 hc        1 01E      0.043367
     62 HG23       -1.6970   -1.5330   -1.8110 hc        1 01E      0.043367
     63 HG31       -5.0940   -4.0020   -0.7380 hc        1 01E      0.043367
     64 HG32       -3.5860   -4.7330   -1.4300 hc        1 01E      0.043367
     65 HG33       -3.5770   -4.0590    0.2540 hc        1 01E      0.043367
     66 H1         -2.7090    0.0470    1.1780 hn        1 01E      0.324500
     67 HA3        -2.8450    2.4030   -0.4990 h1        1 01E      0.108700
     68 HB2        -1.3810    1.8770    2.2100 hc        1 01E      0.101700
     69 HB3        -1.4430    3.4590    1.3370 hc        1 01E      0.101700
     70 HE1        -5.4930    3.5280    3.7310 h4        1 01E      0.178500
     71 HH1        -4.7550    4.6080    6.1630 ha        1 01E      0.159000
     72 HE2        -1.2080    3.5550    3.8170 h4        1 01E      0.178500
     73 HH2        -2.0390    4.6180    6.2060 ha        1 01E      0.159000
     74 H2         -1.5290    1.0700   -2.2940 hn        1 01E      0.349500
     75 HA4         1.3200    0.7910   -1.8010 h1        1 01E      0.068700
     76 HB1        -0.2370    0.7380   -4.4970 hc        1 01E      0.055033
     77 HB21        1.4940    0.2740   -4.2120 hc        1 01E      0.055033
     78 HB31        0.1600   -0.6990   -3.4550 hc        1 01E      0.055033
     79 HN2         2.2560    2.8240   -0.6030 hn        1 01E      0.341500
     80 H311        4.9400    3.4130   -1.7480 h1        1 01E      0.070700
     81 H321        4.3990    3.6820   -0.0180 h1        1 01E      0.070700
     82 H5          5.0600    1.0020   -2.5900 ha        1 01E      0.148500
     83 H6          6.0630   -1.2050   -2.0050 ha        1 01E      0.144500
     84 H8          5.8540   -0.1700    2.1990 ha        1 01E      0.144500
     85 H9          4.8570    2.0220    1.6070 ha        1 01E      0.148500
     86 H43         0.5240    3.4590   -2.3610 h1        1 01E      0.100700
     87 H44         1.5380    2.5410   -4.8090 ho        1 01E      0.426000
@<TRIPOS>BOND
     1    1    2 1   
     2    1    6 1   
     3    1   44 1   
     4    1   45 1   
     5    2    3 1   
     6    2    4 1   
     7    2    5 1   
     8    3   46 1   
     9    3   47 1   
    10    3   48 1   
    11    4   49 1   
    12    4   50 1   
    13    4   51 1   
    14    5   52 1   
    15    5   53 1   
    16    5   54 1   
    17    6    7 2   
    18    6    8 1   
    19    8    9 1   
    20    8   55 1   
    21    9   10 1   
    22    9   14 1   
    23    9   56 1   
    24   10   11 1   
    25   10   12 1   
    26   10   13 1   
    27   11   57 1   
    28   11   58 1   
    29   11   59 1   
    30   12   60 1   
    31   12   61 1   
    32   12   62 1   
    33   13   63 1   
    34   13   64 1   
    35   13   65 1   
    36   14   15 2   
    37   14   16 1   
    38   16   17 1   
    39   16   66 1   
    40   17   18 1   
    41   17   26 1   
    42   17   67 1   
    43   18   19 1   
    44   18   68 1   
    45   18   69 1   
    46   19   20 2   
    47   19   21 1   
    48   21   22 1   
    49   21   24 1   
    50   22   23 2   
    51   22   70 1   
    52   23   25 1   
    53   23   71 1   
    54   24   25 2   
    55   24   72 1   
    56   25   73 1   
    57   26   27 2   
    58   26   28 1   
    59   28   29 1   
    60   28   74 1   
    61   29   30 1   
    62   29   32 1   
    63   29   75 1   
    64   30   31 1   
    65   30   33 1   
    66   30   86 1   
    67   31   87 1   
    68   32   76 1   
    69   32   77 1   
    70   32   78 1   
    71   33   34 2   
    72   33   35 1   
    73   35   36 1   
    74   35   79 1   
    75   36   37 1   
    76   36   80 1   
    77   36   81 1   
    78   37   38 ar  
    79   37   43 ar  
    80   38   39 ar  
    81   38   82 1   
    82   39   40 ar  
    83   39   83 1   
    84   40   41 1   
    85   40   42 ar  
    86   42   43 ar  
    87   42   84 1   
    88   43   85 1   
@<TRIPOS>SUBSTRUCTURE
     1 01E         1 TEMP              0 ****  ****    0 ROOT
