@<TRIPOS>MOLECULE
01F
   12    11     1     0     0
SMALL
bcc


@<TRIPOS>ATOM
      1 C          -0.9420   -0.0860   -0.0010 c         1 01F      0.763200
      2 O          -1.2080   -1.2880   -0.0020 o         1 01F     -0.591000
      3 O1          0.2870    0.4720   -0.0010 os        1 01F     -0.389900
      4 C1          1.3760   -0.4840   -0.0010 c3        1 01F      0.142400
      5 C2          2.6390    0.3400   -0.0010 c3        1 01F     -0.104100
      6 H241        1.2860   -1.1250    0.9130 h1        1 01F      0.057700
      7 H242        1.2860   -1.1240   -0.9170 h1        1 01F      0.057700
      8 H251        2.6830    0.9930   -0.9050 hc        1 01F      0.054033
      9 H252        2.6830    0.9920    0.9050 hc        1 01F      0.054033
     10 H253        3.5190   -0.3480   -0.0010 hc        1 01F      0.054033
     11 OXT        -1.8630    0.9020   -0.0000 oh        1 01F     -0.554100
     12 HXT        -2.7410    0.4810   -0.0010 ho        1 01F      0.457000
@<TRIPOS>BOND
     1    1    2 2   
     2    1    3 1   
     3    1   11 1   
     4    3    4 1   
     5    4    5 1   
     6    4    6 1   
     7    4    7 1   
     8    5    8 1   
     9    5    9 1   
    10    5   10 1   
    11   11   12 1   
@<TRIPOS>SUBSTRUCTURE
     1 01F         1 TEMP              0 ****  ****    0 ROOT
