@<TRIPOS>MOLECULE
01F
   12    10     1     0     0
SMALL
bcc


@<TRIPOS>ATOM
      1 C           0.2600    0.2640   -1.6660 c1        1 01F      0.394000
      2 O           1.3230   -0.3210   -1.7290 o         1 01F     -0.402000
      3 O1         -0.4140    0.3660   -0.4380 o         1 01F     -0.228000
      4 C1          0.2720   -0.2270    0.6400 c3        1 01F     -0.008000
      5 C2         -0.5950   -0.1750    1.8790 c3        1 01F     -0.222000
      6 H241        0.4760   -1.1600    0.4230 h1        1 01F      0.097000
      7 H242        1.1060    0.2600    0.8040 h1        1 01F      0.097000
      8 H251       -1.0510    0.6910    1.9220 hc        1 01F      0.093333
      9 H252       -0.0340   -0.2890    2.6750 hc        1 01F      0.093333
     10 H253       -1.2600   -0.8930    1.8420 hc        1 01F      0.093333
     11 OXT        -0.3040    0.8250   -2.8270 oh        1 01F     -0.263000
     12 HXT         0.2220    0.6560   -3.5240 ho        1 01F      0.256000
@<TRIPOS>BOND
     1    1    2 1   
     2    1   11 1   
     3    3    4 1   
     4    4    5 1   
     5    4    6 1   
     6    4    7 1   
     7    5    8 1   
     8    5    9 1   
     9    5   10 1   
    10   11   12 1   
@<TRIPOS>SUBSTRUCTURE
     1 01F         1 TEMP              0 ****  ****    0 ROOT
