@<TRIPOS>MOLECULE
01F
   12    10     1     0     0
SMALL
bcc


@<TRIPOS>ATOM
      1 C          -0.0610    0.0420   -0.3500 c         1 01F      0.774200
      2 O           0.8960    0.6300    0.1400 o         1 01F     -0.538000
      3 O1         -1.0380   -0.5720    0.3570 oh        1 01F     -0.587600
      4 C1          0.4010   -0.0520    3.3720 c2        1 01F     -0.233000
      5 C2         -0.8570    0.1930    3.7130 c2        1 01F     -0.233000
      6 H241       -0.8610   -0.4790    1.3120 ho        1 01F      0.466500
      7 H242        0.9140    0.4810    2.5550 ha        1 01F      0.118000
      8 H251        1.0180   -0.8020    3.8860 ha        1 01F      0.118000
      9 H252       -1.3660   -0.3350    4.5310 ha        1 01F      0.118000
     10 H253       -1.4710    0.9530    3.2100 ha        1 01F      0.118000
     11 OXT        -0.2650   -0.0700   -1.6730 oh        1 01F     -0.587600
     12 HXT        -1.0810   -0.5760   -1.8360 ho        1 01F      0.466500
@<TRIPOS>BOND
     1    1    2 2   
     2    1    3 1   
     3    1   11 1   
     4    3    6 1   
     5    4    5 2   
     6    4    7 1   
     7    4    8 1   
     8    5    9 1   
     9    5   10 1   
    10   11   12 1   
@<TRIPOS>SUBSTRUCTURE
     1 01F         1 TEMP              0 ****  ****    0 ROOT
