@<TRIPOS>MOLECULE
01F
   11     9     1     0     0
SMALL
bcc


@<TRIPOS>ATOM
      1 C          -0.0460    0.2020   -0.6010 c         1 01F      0.497100
      2 O           0.9050   -0.1210    0.1620 o         1 01F     -0.581500
      3 O1         -1.2560    0.4340    0.0600 oh        1 01F     -0.709100
      4 C1          0.3820   -0.2770    3.3480 c2        1 01F     -0.236000
      5 C2         -0.8070    0.0030    3.8650 c2        1 01F     -0.236000
      6 H241       -1.1090    0.2930    1.0020 ho        1 01F      0.383000
      7 H242        0.5970   -0.2290    2.2600 ha        1 01F      0.116250
      8 H251        1.2350   -0.5760    3.9720 ha        1 01F      0.116250
      9 H252       -1.0200   -0.0440    4.9410 ha        1 01F      0.116250
     10 H253       -1.6610    0.3030    3.2430 ha        1 01F      0.116250
     11 OXT        -0.1140    0.3550   -1.8400 o         1 01F     -0.581500
@<TRIPOS>BOND
     1    1    2 1   
     2    1    3 1   
     3    1   11 1   
     4    3    6 1   
     5    4    5 2   
     6    4    7 1   
     7    4    8 1   
     8    5    9 1   
     9    5   10 1   
@<TRIPOS>SUBSTRUCTURE
     1 01F         1 TEMP              0 ****  ****    0 ROOT
