@<TRIPOS>MOLECULE
01F
   11     9     1     0     0
SMALL
bcc


@<TRIPOS>ATOM
      1 C           0.0870    0.2830   -0.7230 c         1 01F      0.496100
      2 O           0.2040    1.0750    0.2520 o         1 01F     -0.580500
      3 O1         -0.3390   -1.0010   -0.3650 oh        1 01F     -0.709100
      4 C1         -0.4390   -0.1550    3.1560 c2        1 01F     -0.234500
      5 C2         -0.4490    0.3480    4.3830 c2        1 01F     -0.234500
      6 H241       -0.4610   -1.0140    0.5900 ho        1 01F      0.381000
      7 H242       -0.1820    0.4360    2.2520 ha        1 01F      0.115500
      8 H251       -0.6880   -1.2060    2.9540 ha        1 01F      0.115500
      9 H252       -0.2010    1.3970    4.5910 ha        1 01F      0.115500
     10 H253       -0.7050   -0.2440    5.2710 ha        1 01F      0.115500
     11 OXT         0.2790    0.4240   -1.9500 o         1 01F     -0.580500
@<TRIPOS>BOND
     1    1    2 1   
     2    1    3 1   
     3    1   11 1   
     4    3    6 1   
     5    4    5 2   
     6    4    7 1   
     7    4    8 1   
     8    5    9 1   
     9    5   10 1   
@<TRIPOS>SUBSTRUCTURE
     1 01F         1 TEMP              0 ****  ****    0 ROOT
