@<TRIPOS>MOLECULE
01H
   23    22     1     0     0
SMALL
bcc


@<TRIPOS>ATOM
      1 N1         -0.0480   -0.0010   -0.0850 nz        1 01H     -0.837600
      2 C2          1.4380    0.0020    0.0280 c3        1 01H      0.102800
      3 C3          1.9480   -0.0020    1.4730 c3        1 01H     -0.104400
      4 C4          3.4750    0.0020    1.4660 c3        1 01H     -0.115400
      5 C5          3.9770   -0.0020    2.9100 c3        1 01H      0.118800
      6 N6          5.5250    0.0010    2.9380 ny        1 01H     -0.613800
      7 N7          6.1120   -0.0020    4.2410 nz        1 01H     -0.667400
      8 HN11       -0.3140    0.0020   -1.0840 hn        1 01H      0.485133
      9 HN12       -0.4510   -0.8400    0.3540 hn        1 01H      0.485133
     10 H21A        1.8160    0.9230   -0.5100 hx        1 01H      0.130700
     11 H22A        1.8210   -0.9120   -0.5180 hx        1 01H      0.130700
     12 H31         1.5680    0.9040    2.0190 hc        1 01H      0.095700
     13 H32         1.5730   -0.9150    2.0120 hc        1 01H      0.095700
     14 H41         3.8380    0.9160    0.9200 hc        1 01H      0.105700
     15 H42         3.8430   -0.9070    0.9130 hc        1 01H      0.105700
     16 H51         3.6220    0.9230    3.4550 hx        1 01H      0.146700
     17 H52         3.6270   -0.9330    3.4490 hx        1 01H      0.146700
     18 HN6         5.8630   -0.8460    2.4140 hn        1 01H      0.530800
     19 HN7         5.8140   -0.8560    4.7760 hn        1 01H      0.548467
     20 H2          7.1650    0.0010    4.1750 hn        1 01H      0.548467
     21 H13        -0.4550    0.8310    0.3610 hn        1 01H      0.485133
     22 H62         5.8590    0.8530    2.4200 hn        1 01H      0.530800
     23 H73         5.8100    0.8480    4.7820 hn        1 01H      0.548467
@<TRIPOS>BOND
     1    1    2 1   
     2    1    8 1   
     3    1    9 1   
     4    1   21 1   
     5    2    3 1   
     6    2   10 1   
     7    2   11 1   
     8    3    4 1   
     9    3   12 1   
    10    3   13 1   
    11    4    5 1   
    12    4   14 1   
    13    4   15 1   
    14    5    6 1   
    15    5   16 1   
    16    5   17 1   
    17    6    7 1   
    18    6   18 1   
    19    6   22 1   
    20    7   19 1   
    21    7   20 1   
    22    7   23 1   
@<TRIPOS>SUBSTRUCTURE
     1 01H         1 TEMP              0 ****  ****    0 ROOT
