@<TRIPOS>MOLECULE
01H
   23    22     1     0     0
SMALL
bcc


@<TRIPOS>ATOM
      1 N1         -0.0460    0.0000   -0.0880 n4        1 01H     -0.837600
      2 C2          1.4390    0.0000    0.0270 c3        1 01H      0.102800
      3 C3          1.9480   -0.0000    1.4720 c3        1 01H     -0.104400
      4 C4          3.4750   -0.0000    1.4660 c3        1 01H     -0.115400
      5 C5          3.9760   -0.0010    2.9110 c3        1 01H      0.118800
      6 N6          5.5240   -0.0010    2.9400 n4        1 01H     -0.613800
      7 N7          6.1100   -0.0010    4.2440 n4        1 01H     -0.667400
      8 HN11       -0.3110    0.0010   -1.0870 hn        1 01H      0.485133
      9 HN12       -0.4520   -0.8350    0.3540 hn        1 01H      0.485133
     10 H21A        1.8200    0.9180   -0.5150 hx        1 01H      0.130700
     11 H22A        1.8200   -0.9170   -0.5160 hx        1 01H      0.130700
     12 H31         1.5700    0.9090    2.0150 hc        1 01H      0.095700
     13 H32         1.5700   -0.9100    2.0140 hc        1 01H      0.095700
     14 H41         3.8410    0.9120    0.9170 hc        1 01H      0.105700
     15 H42         3.8410   -0.9110    0.9160 hc        1 01H      0.105700
     16 H51         3.6230    0.9270    3.4530 hx        1 01H      0.146700
     17 H52         3.6230   -0.9290    3.4520 hx        1 01H      0.146700
     18 HN6         5.8610   -0.8500    2.4190 hn        1 01H      0.530800
     19 HN7         5.8100   -0.8530    4.7810 hn        1 01H      0.548467
     20 H2          7.1630   -0.0010    4.1790 hn        1 01H      0.548467
     21 H13        -0.4520    0.8350    0.3550 hn        1 01H      0.485133
     22 H62         5.8610    0.8490    2.4200 hn        1 01H      0.530800
     23 H73         5.8090    0.8500    4.7820 hn        1 01H      0.548467
@<TRIPOS>BOND
     1    1    2 1   
     2    1    8 1   
     3    1    9 1   
     4    1   21 1   
     5    2    3 1   
     6    2   10 1   
     7    2   11 1   
     8    3    4 1   
     9    3   12 1   
    10    3   13 1   
    11    4    5 1   
    12    4   14 1   
    13    4   15 1   
    14    5    6 1   
    15    5   16 1   
    16    5   17 1   
    17    6    7 1   
    18    6   18 1   
    19    6   22 1   
    20    7   19 1   
    21    7   20 1   
    22    7   23 1   
@<TRIPOS>SUBSTRUCTURE
     1 01H         1 TEMP              0 ****  ****    0 ROOT
