@<TRIPOS>MOLECULE
01H
   20    19     1     0     0
SMALL
bcc


@<TRIPOS>ATOM
      1 N1          3.7170   -0.3180   -0.0510 n3        1 01H     -0.916800
      2 C2          2.5030    0.4620   -0.0060 c3        1 01H      0.159800
      3 C3          1.2360   -0.3930   -0.0130 c3        1 01H     -0.082400
      4 C4          0.0110    0.4970   -0.0170 c3        1 01H     -0.082400
      5 C5         -1.2520   -0.3600   -0.0280 c3        1 01H      0.139800
      6 N6         -2.4730    0.4580   -0.1050 n3        1 01H     -0.609000
      7 N7         -3.6480   -0.2150    0.1860 n3        1 01H     -0.674600
      8 HN11        4.5150    0.2740    0.0610 hn        1 01H      0.348800
      9 HN12        3.7240   -1.0190    0.6620 hn        1 01H      0.348800
     10 H21A        2.4590    1.1420    0.8970 h1        1 01H      0.025200
     11 H22A        2.4980    1.1260   -0.9180 h1        1 01H      0.025200
     12 H31         1.2280   -1.0540   -0.9190 hc        1 01H      0.048700
     13 H32         1.2180   -1.0600    0.8880 hc        1 01H      0.048700
     14 H41         0.0210    1.1570    0.8900 hc        1 01H      0.048700
     15 H42         0.0320    1.1640   -0.9180 hc        1 01H      0.048700
     16 H51        -1.2370   -1.0210   -0.9400 h1        1 01H      0.038200
     17 H52        -1.2300   -1.0350    0.8770 h1        1 01H      0.038200
     18 HN6        -2.3950    1.1910    0.5940 hn        1 01H      0.358800
     19 HN7        -4.3800    0.2840   -0.3090 hn        1 01H      0.344300
     20 H2         -3.6100   -1.1400   -0.2250 hn        1 01H      0.344300
@<TRIPOS>BOND
     1    1    2 1   
     2    1    8 1   
     3    1    9 1   
     4    2    3 1   
     5    2   10 1   
     6    2   11 1   
     7    3    4 1   
     8    3   12 1   
     9    3   13 1   
    10    4    5 1   
    11    4   14 1   
    12    4   15 1   
    13    5    6 1   
    14    5   16 1   
    15    5   17 1   
    16    6    7 1   
    17    6   18 1   
    18    7   19 1   
    19    7   20 1   
@<TRIPOS>SUBSTRUCTURE
     1 01H         1 TEMP              0 ****  ****    0 ROOT
