@<TRIPOS>MOLECULE
01H
   20    19     1     0     0
SMALL
bcc


@<TRIPOS>ATOM
      1 N1         -3.0810    0.0480   -1.7320 n3        1 01H     -0.916800
      2 C2         -1.6570    0.0480   -1.7320 c3        1 01H      0.159800
      3 C3         -1.1460    0.0480   -0.2880 c3        1 01H     -0.082400
      4 C4          0.3890    0.0480   -0.2870 c3        1 01H     -0.082400
      5 C5          0.9020    0.0560    1.1600 c3        1 01H      0.138800
      6 N6          2.3360    0.0610    1.1590 n3        1 01H     -0.609000
      7 N7          2.8010   -0.5160    2.3350 n3        1 01H     -0.674600
      8 HN11       -3.3850    0.7930   -2.1620 hn        1 01H      0.348800
      9 HN12       -3.3850   -0.6970   -2.1620 hn        1 01H      0.348800
     10 H21A       -1.3310    0.8450   -2.1920 h1        1 01H      0.025200
     11 H22A       -1.3310   -0.7490   -2.1920 h1        1 01H      0.025200
     12 H31        -1.4720   -0.7490    0.1720 hc        1 01H      0.048700
     13 H32        -1.4710    0.8450    0.1720 hc        1 01H      0.048700
     14 H41         0.7150    0.8420   -0.7530 hc        1 01H      0.048700
     15 H42         0.7150   -0.7520   -0.7430 hc        1 01H      0.048700
     16 H51         0.5790   -0.7390    1.6240 h1        1 01H      0.038200
     17 H52         0.5740    0.8550    1.6160 h1        1 01H      0.038200
     18 HN6         2.6370    0.9190    1.1020 hn        1 01H      0.359800
     19 HN7         3.2660   -1.2760    2.1380 hn        1 01H      0.344300
     20 H2          3.3480    0.0720    2.7660 hn        1 01H      0.344300
@<TRIPOS>BOND
     1    1    2 1   
     2    1    8 1   
     3    1    9 1   
     4    2    3 1   
     5    2   10 1   
     6    2   11 1   
     7    3    4 1   
     8    3   12 1   
     9    3   13 1   
    10    4    5 1   
    11    4   14 1   
    12    4   15 1   
    13    5    6 1   
    14    5   16 1   
    15    5   17 1   
    16    6    7 1   
    17    6   18 1   
    18    7   19 1   
    19    7   20 1   
@<TRIPOS>SUBSTRUCTURE
     1 01H         1 TEMP              0 ****  ****    0 ROOT
