@<TRIPOS>MOLECULE
01H
   23    22     1     0     0
SMALL
bcc


@<TRIPOS>ATOM
      1 N1         -0.0480   -0.0030   -0.0840 n4        1 01H     -0.837600
      2 C2          1.4370   -0.0050    0.0290 c3        1 01H      0.102800
      3 C3          1.9480    0.0000    1.4730 c3        1 01H     -0.104400
      4 C4          3.4750   -0.0040    1.4650 c3        1 01H     -0.115400
      5 C5          3.9770    0.0040    2.9100 c3        1 01H      0.118800
      6 N6          5.5250   -0.0020    2.9370 n4        1 01H     -0.613800
      7 N7          6.1130    0.0060    4.2400 n4        1 01H     -0.667400
      8 HN11       -0.3150   -0.0070   -1.0820 hn        1 01H      0.485133
      9 HN12       -0.4520    0.8350    0.3560 hn        1 01H      0.485133
     10 H21A        1.8150   -0.9260   -0.5090 hx        1 01H      0.130700
     11 H22A        1.8190    0.9090   -0.5180 hx        1 01H      0.130700
     12 H31         1.5680   -0.9050    2.0210 hc        1 01H      0.095700
     13 H32         1.5730    0.9130    2.0120 hc        1 01H      0.095700
     14 H41         3.8430    0.9030    0.9100 hc        1 01H      0.105700
     15 H42         3.8380   -0.9200    0.9220 hc        1 01H      0.105700
     16 H51         3.6220   -0.9190    3.4580 hx        1 01H      0.146700
     17 H52         3.6280    0.9370    3.4460 hx        1 01H      0.146700
     18 HN6         5.8650    0.8420    2.4090 hn        1 01H      0.530800
     19 HN7         5.8170    0.8640    4.7710 hn        1 01H      0.548467
     20 H2          7.1660    0.0010    4.1740 hn        1 01H      0.548467
     21 H13        -0.4550   -0.8360    0.3620 hn        1 01H      0.485133
     22 H62         5.8580   -0.8560    2.4230 hn        1 01H      0.530800
     23 H73         5.8090   -0.8400    4.7850 hn        1 01H      0.548467
@<TRIPOS>BOND
     1    1    2 1   
     2    1    8 1   
     3    1    9 1   
     4    1   21 1   
     5    2    3 1   
     6    2   10 1   
     7    2   11 1   
     8    3    4 1   
     9    3   12 1   
    10    3   13 1   
    11    4    5 1   
    12    4   14 1   
    13    4   15 1   
    14    5    6 1   
    15    5   16 1   
    16    5   17 1   
    17    6    7 1   
    18    6   18 1   
    19    6   22 1   
    20    7   19 1   
    21    7   20 1   
    22    7   23 1   
@<TRIPOS>SUBSTRUCTURE
     1 01H         1 TEMP              0 ****  ****    0 ROOT
