@<TRIPOS>MOLECULE
01I
   28    31     1     0     0
SMALL
bcc


@<TRIPOS>ATOM
      1 CAA         1.4390    2.1030    0.0010 ca        1 01I     -0.120000
      2 CAB         2.3710    1.0960    0.0000 ca        1 01I     -0.082800
      3 CAC         1.9240   -0.2820    0.0000 ca        1 01I      0.057100
      4 CAD         0.5980   -0.6370   -0.0000 ca        1 01I     -0.130000
      5 CAE        -0.3590    0.4090    0.0000 ca        1 01I      0.014000
      6 CAF         0.0570    1.7770    0.0010 ca        1 01I     -0.063000
      7 CAG        -1.7560    0.1510    0.0000 ca        1 01I     -0.091800
      8 CAH        -2.6640    1.2380    0.0010 ca        1 01I      0.005100
      9 CAI        -2.2610    2.5860    0.0010 ca        1 01I     -0.112000
     10 CAJ        -0.9110    2.8300    0.0010 ca        1 01I     -0.142000
     11 CAK         3.8210    1.0230    0.0000 cc        1 01I     -0.239200
     12 CAL         4.1690   -0.3090    0.0000 cd        1 01I      0.030900
     13 OAM         3.0290   -1.1380   -0.0000 os        1 01I     -0.191200
     14 CAN        -2.5750   -1.0380   -0.0000 cc        1 01I     -0.205200
     15 CAO        -3.8980   -0.6240   -0.0000 cd        1 01I      0.000900
     16 OAP        -3.9770    0.7780    0.0000 os        1 01I     -0.169200
     17 CAQ        -5.2080   -1.3860   -0.0000 c         1 01I      0.934800
     18 CAR         5.5320   -0.9770   -0.0000 c         1 01I      0.931800
     19 OAS         6.5250   -0.1970   -0.0000 o         1 01I     -0.809800
     20 OAT        -6.2860   -0.7360   -0.0000 o         1 01I     -0.812800
     21 OAU        -5.1220   -2.6440   -0.0010 o         1 01I     -0.812800
     22 OAV         5.6000   -2.2320   -0.0000 o         1 01I     -0.809800
     23 HAA         1.7440    3.1580    0.0010 ha        1 01I      0.115000
     24 HAD         0.2710   -1.6850   -0.0000 ha        1 01I      0.148000
     25 HAI        -3.0080    3.3880    0.0010 ha        1 01I      0.125000
     26 HAJ        -0.5400    3.8650    0.0010 ha        1 01I      0.108000
     27 HAK         4.5050    1.8650    0.0010 ha        1 01I      0.156000
     28 HAN        -2.2240   -2.0660   -0.0010 ha        1 01I      0.163000
@<TRIPOS>BOND
     1    1    2 ar  
     2    1    6 ar  
     3    1   23 1   
     4    2    3 ar  
     5    2   11 1   
     6    3    4 ar  
     7    3   13 1   
     8    4    5 ar  
     9    4   24 1   
    10    5    6 ar  
    11    5    7 ar  
    12    6   10 ar  
    13    7    8 ar  
    14    7   14 1   
    15    8    9 ar  
    16    8   16 1   
    17    9   10 ar  
    18    9   25 1   
    19   10   26 1   
    20   11   12 2   
    21   11   27 1   
    22   12   13 1   
    23   12   18 1   
    24   14   15 2   
    25   14   28 1   
    26   15   16 1   
    27   15   17 1   
    28   17   20 1   
    29   17   21 1   
    30   18   19 1   
    31   18   22 1   
@<TRIPOS>SUBSTRUCTURE
     1 01I         1 TEMP              0 ****  ****    0 ROOT
