@<TRIPOS>MOLECULE
01I
   28    19     1     0     0
SMALL
bcc


@<TRIPOS>ATOM
      1 CAA        -0.3660   -0.1030   -2.1840 c1        1 01I     -0.127000
      2 CAB         1.0420   -0.0630   -2.1970 c1        1 01I     -0.040750
      3 CAC         1.7390    0.0220   -1.0120 c1        1 01I     -0.040750
      4 CAD         1.0440    0.0680    0.2120 c1        1 01I     -0.127000
      5 CAE        -0.3630    0.0280    0.2250 c1        1 01I      0.011000
      6 CAF        -1.0610   -0.0570   -0.9600 c2        1 01I     -0.059000
      7 CAG        -1.0670    0.0660    1.4650 c1        1 01I     -0.040750
      8 CAH        -2.4420    0.0180    1.4770 c1        1 01I     -0.040750
      9 CAI        -3.1560   -0.0690    0.2620 c1        1 01I     -0.112000
     10 CAJ        -2.4700   -0.1060   -0.9460 c2        1 01I     -0.143000
     11 CAK         1.9620   -0.0890   -3.2320 c1        1 01I     -0.250500
     12 CAL         3.2290   -0.0200   -2.6800 c1        1 01I      0.007000
     13 OAM         3.0950    0.0480   -1.3130 o         1 01I     -0.097000
     14 CAN        -0.6310    0.1480    2.7770 c1        1 01I     -0.250500
     15 CAO        -1.7460    0.1500    3.5980 c1        1 01I      0.007000
     16 OAP        -2.8620    0.0700    2.8000 o         1 01I     -0.097000
     17 CAQ        -2.1100    0.1240    5.0660 c1        1 01I      0.386500
     18 CAR         4.6440   -0.0850   -3.2130 c1        1 01I      0.386500
     19 OAS         5.2010   -1.2000   -3.3850 o         1 01I     -0.544000
     20 OAT        -2.4320   -0.9610    5.6160 o         1 01I     -0.544000
     21 OAU        -2.1020    1.1910    5.7350 o         1 01I     -0.544000
     22 OAV         5.2580    0.9770   -3.4970 o         1 01I     -0.544000
     23 HAA        -0.8590   -0.1800   -3.0230 ha        1 01I      0.115000
     24 HAD         1.5380    0.1460    1.0510 ha        1 01I      0.147000
     25 HAI        -4.1300   -0.0220    0.2290 ha        1 01I      0.125000
     26 HAJ        -3.0080   -0.1270   -1.7600 ha        1 01I      0.108000
     27 HAK         1.7530   -0.1670   -4.1830 DU        1 01I      0.154000
     28 HAN         0.2980    0.1960    3.0710 DU        1 01I      0.154000
@<TRIPOS>BOND
     1    1    6 1   
     2    1   23 1   
     3    2    3 1   
     4    4    5 1   
     5    4   24 1   
     6    5    6 1   
     7    6   10 1   
     8    7    8 1   
     9    9   10 1   
    10    9   25 1   
    11   10   26 1   
    12   11   12 1   
    13   12   13 1   
    14   14   15 1   
    15   15   16 1   
    16   17   20 1   
    17   17   21 1   
    18   18   19 1   
    19   18   22 1   
@<TRIPOS>SUBSTRUCTURE
     1 01I         1 TEMP              0 ****  ****    0 ROOT
