@<TRIPOS>MOLECULE
01I
   28    31     1     0     0
SMALL
bcc


@<TRIPOS>ATOM
      1 CAA        -0.0250    0.0050   -0.0110 ca        1 01I     -0.120000
      2 CAB         1.3470    0.0080   -0.0620 ca        1 01I     -0.082800
      3 CAC         2.1000    0.0090    1.1740 ca        1 01I      0.057100
      4 CAD         1.5060    0.0080    2.4120 ca        1 01I     -0.130000
      5 CAE         0.0880    0.0050    2.4570 ca        1 01I      0.014000
      6 CAF        -0.6780    0.0040    1.2490 ca        1 01I     -0.063000
      7 CAG        -0.6250    0.0030    3.6840 ca        1 01I     -0.091800
      8 CAH        -2.0420    0.0010    3.6650 ca        1 01I      0.005100
      9 CAI        -2.8020   -0.0010    2.4820 ca        1 01I     -0.112000
     10 CAJ        -2.1070    0.0010    1.2980 ca        1 01I     -0.142000
     11 CAK         2.3460    0.0110   -1.1150 cc        1 01I     -0.239200
     12 CAL         3.5830    0.0130   -0.5110 cd        1 01I      0.030900
     13 OAM         3.4690    0.0120    0.8940 os        1 01I     -0.191200
     14 CAN        -0.2570    0.0040    5.0810 cc        1 01I     -0.205200
     15 CAO        -1.4330    0.0020    5.8140 cd        1 01I      0.000900
     16 OAP        -2.5480   -0.0000    4.9610 os        1 01I     -0.169200
     17 CAQ        -1.7080    0.0010    7.3040 c         1 01I      0.934800
     18 CAR         4.9780    0.0160   -1.1090 c         1 01I      0.931800
     19 OAS         5.0330    0.0200   -2.3710 o         1 01I     -0.809800
     20 OAT        -2.9030   -0.0000    7.6990 o         1 01I     -0.812800
     21 OAU        -0.6970    0.0020    8.0590 o         1 01I     -0.812800
     22 OAV         5.9750    0.0150   -0.3440 o         1 01I     -0.809800
     23 HAA        -0.6260    0.0040   -0.9300 ha        1 01I      0.115000
     24 HAD         2.0870    0.0090    3.3420 ha        1 01I      0.148000
     25 HAI        -3.8970   -0.0030    2.5260 ha        1 01I      0.125000
     26 HAJ        -2.6510   -0.0000    0.3420 ha        1 01I      0.108000
     27 HAK         2.1520    0.0100   -2.1820 ha        1 01I      0.156000
     28 HAN         0.7510    0.0060    5.4830 ha        1 01I      0.163000
@<TRIPOS>BOND
     1    1    2 ar  
     2    1    6 ar  
     3    1   23 1   
     4    2    3 ar  
     5    2   11 1   
     6    3    4 ar  
     7    3   13 1   
     8    4    5 ar  
     9    4   24 1   
    10    5    6 ar  
    11    5    7 ar  
    12    6   10 ar  
    13    7    8 ar  
    14    7   14 1   
    15    8    9 ar  
    16    8   16 1   
    17    9   10 ar  
    18    9   25 1   
    19   10   26 1   
    20   11   12 2   
    21   11   27 1   
    22   12   13 1   
    23   12   18 1   
    24   14   15 2   
    25   14   28 1   
    26   15   16 1   
    27   15   17 1   
    28   17   20 1   
    29   17   21 1   
    30   18   19 1   
    31   18   22 1   
@<TRIPOS>SUBSTRUCTURE
     1 01I         1 TEMP              0 ****  ****    0 ROOT
