@<TRIPOS>MOLECULE
01J
   49    51     1     0     0
SMALL
bcc


@<TRIPOS>ATOM
      1 C10        -0.5080   -1.6490    0.9660 c         1 01J      0.917600
      2 O10        -0.5400   -1.0630    2.0830 o         1 01J     -0.825800
      3 C11        -0.2520   -0.8390   -0.3560 c3        1 01J      0.064500
      4 C12        -1.4480   -0.0110   -0.8930 c3        1 01J      0.046900
      5 N13         0.9340    0.0000   -0.2440 n3        1 01J     -0.851200
      6 C14         2.0650   -0.6600    0.4260 c3        1 01J      0.616500
      7 O14         2.2130   -0.1280    1.7530 oh        1 01J     -0.667800
      8 C21        -2.7740   -0.7110   -0.8090 ca        1 01J     -0.049300
      9 C22        -3.9580    0.0390   -0.7570 ca        1 01J     -0.118000
     10 C23        -5.2030   -0.5870   -0.7810 ca        1 01J     -0.146500
     11 C24        -5.2870   -1.9760   -0.8590 ca        1 01J     -0.149500
     12 C25        -4.1160   -2.7310   -0.9050 ca        1 01J     -0.146500
     13 C26        -2.8690   -2.1070   -0.8820 ca        1 01J     -0.118000
     14 C31        -1.5130    1.3900   -0.3570 ca        1 01J     -0.049300
     15 C32        -1.6940    2.4540   -1.2540 ca        1 01J     -0.118000
     16 C33        -1.7600    3.7670   -0.7940 ca        1 01J     -0.146500
     17 C34        -1.6430    4.0360    0.5690 ca        1 01J     -0.149500
     18 C35        -1.4560    2.9840    1.4650 ca        1 01J     -0.146500
     19 C36        -1.3890    1.6680    1.0090 ca        1 01J     -0.118000
     20 N41         3.3680   -0.5210   -0.2790 n3        1 01J     -0.735600
     21 C42         4.3620   -1.4280    0.2890 c3        1 01J      0.132300
     22 C43         5.7270   -1.2850   -0.3900 c3        1 01J      0.127400
     23 O44         6.1900    0.0610   -0.3980 os        1 01J     -0.429600
     24 C45         5.2420    0.9580   -0.9660 c3        1 01J      0.127400
     25 C46         3.8650    0.8500   -0.3020 c3        1 01J      0.132300
     26 H11        -0.0800   -1.6410   -1.1470 h1        1 01J      0.011700
     27 H12        -1.2560    0.0850   -2.0110 hc        1 01J      0.026700
     28 HN3         1.1800    0.3880   -1.1320 hn        1 01J      0.359800
     29 H14         1.8690   -1.7800    0.5260 h3        1 01J      0.071700
     30 HO4         1.3310   -0.1410    2.1660 ho        1 01J      0.467000
     31 H22        -3.9090    1.1370   -0.6910 ha        1 01J      0.160000
     32 H23        -6.1180    0.0190   -0.7320 ha        1 01J      0.115250
     33 H24        -6.2670   -2.4710   -0.8740 ha        1 01J      0.108500
     34 H25        -4.1700   -3.8280   -0.9470 ha        1 01J      0.115250
     35 H26        -1.9540   -2.7280   -0.8720 ha        1 01J      0.160000
     36 H32        -1.7850    2.2520   -2.3310 ha        1 01J      0.160000
     37 H33        -1.9020    4.5900   -1.5080 ha        1 01J      0.115250
     38 H34        -1.6940    5.0710    0.9330 ha        1 01J      0.108500
     39 H35        -1.3530    3.1900    2.5400 ha        1 01J      0.115250
     40 H36        -1.2130    0.8320    1.7180 ha        1 01J      0.160000
     41 H421        4.4890   -1.2590    1.3970 h1        1 01J      0.053450
     42 H422        3.9950   -2.4810    0.1360 h1        1 01J      0.053450
     43 H431        6.5060   -1.8430    0.1920 h1        1 01J      0.039450
     44 H432        5.6900   -1.6680   -1.4450 h1        1 01J      0.039450
     45 H451        5.6790    1.9740   -0.7830 h1        1 01J      0.039450
     46 H452        5.1690    0.7650   -2.0690 h1        1 01J      0.039450
     47 H461        3.1400    1.4770   -0.8910 h1        1 01J      0.053450
     48 H462        3.9300    1.2820    0.7380 h1        1 01J      0.053450
     49 OXT        -0.5880   -2.9010    0.8240 o         1 01J     -0.825800
@<TRIPOS>BOND
     1    1    2 1   
     2    1    3 1   
     3    1   49 1   
     4    3    4 1   
     5    3    5 1   
     6    3   26 1   
     7    4    8 1   
     8    4   14 1   
     9    4   27 1   
    10    5    6 1   
    11    5   28 1   
    12    6    7 1   
    13    6   20 1   
    14    6   29 1   
    15    7   30 1   
    16    8    9 ar  
    17    8   13 ar  
    18    9   10 ar  
    19    9   31 1   
    20   10   11 ar  
    21   10   32 1   
    22   11   12 ar  
    23   11   33 1   
    24   12   13 ar  
    25   12   34 1   
    26   13   35 1   
    27   14   15 ar  
    28   14   19 ar  
    29   15   16 ar  
    30   15   36 1   
    31   16   17 ar  
    32   16   37 1   
    33   17   18 ar  
    34   17   38 1   
    35   18   19 ar  
    36   18   39 1   
    37   19   40 1   
    38   20   21 1   
    39   20   25 1   
    40   21   22 1   
    41   21   41 1   
    42   21   42 1   
    43   22   23 1   
    44   22   43 1   
    45   22   44 1   
    46   23   24 1   
    47   24   25 1   
    48   24   45 1   
    49   24   46 1   
    50   25   47 1   
    51   25   48 1   
@<TRIPOS>SUBSTRUCTURE
     1 01J         1 TEMP              0 ****  ****    0 ROOT
