@<TRIPOS>MOLECULE
01J
   49    46     1     0     0
SMALL
bcc


@<TRIPOS>ATOM
      1 C10        -2.3290    0.0790    0.2530 c1        1 01J      0.343000
      2 O10        -3.0100    0.9480   -0.4080 o         1 01J     -0.567000
      3 C11        -0.8290    0.1480    0.2580 c2        1 01J     -0.085000
      4 C12        -0.3240    0.1820    1.7050 c3        1 01J     -0.043000
      5 N13        -0.2950   -1.0060   -0.4110 n3        1 01J     -0.318000
      6 C14        -0.7350   -1.0150   -1.7770 c3        1 01J      0.206000
      7 O14        -2.0740   -1.4170   -1.8380 oh        1 01J     -0.407000
      8 C21        -1.1750    1.2030    2.5280 c2        1 01J     -0.040000
      9 C22        -1.5400    0.9130    3.8200 c2        1 01J     -0.114000
     10 C23        -2.2160    1.8730    4.5900 c1        1 01J     -0.138500
     11 C24        -2.5090    3.0940    4.0540 c1        1 01J     -0.145750
     12 C25        -2.1430    3.3840    2.7620 c1        1 01J     -0.145750
     13 C26        -1.4710    2.4310    1.9940 c1        1 01J     -0.136500
     14 C31         1.1740    0.6190    1.7250 c2        1 01J     -0.040000
     15 C32         2.0440    0.0890    2.6800 c2        1 01J     -0.114000
     16 C33         3.3720    0.5500    2.7520 c1        1 01J     -0.138500
     17 C34         3.8150    1.5350    1.8690 c1        1 01J     -0.145750
     18 C35         2.9420    2.0640    0.9130 c1        1 01J     -0.145750
     19 C36         1.6250    1.6080    0.8400 c1        1 01J     -0.136500
     20 N41         0.0640   -1.9170   -2.5220 n3        1 01J     -0.269000
     21 C42        -0.7680   -2.6970   -3.3780 c3        1 01J     -0.114000
     22 C43         0.0380   -3.5810   -4.3170 c3        1 01J     -0.017500
     23 O44         1.0310   -2.8510   -5.0310 os        1 01J     -0.292000
     24 C45         1.8610   -2.0700   -4.1760 c3        1 01J     -0.017500
     25 C46         1.0590   -1.1870   -3.2400 c3        1 01J     -0.114000
     26 H11        -0.5300    0.9850   -0.2220 h4        1 01J      0.065000
     27 H12        -0.4110   -0.7270    2.1090 hc        1 01J      0.144000
     28 HN3         0.6440   -0.9780   -0.3860 hn        1 01J      0.151000
     29 H14        -0.6420   -0.0620   -2.1750 h3        1 01J      0.083000
     30 HO4        -2.4530   -1.0700   -2.5650 ho        1 01J      0.261000
     31 H22        -1.3360    0.0640    4.1930 ha        1 01J      0.162500
     32 H23        -2.4930    1.6590    5.5150 ha        1 01J      0.118500
     33 H24        -2.9710    3.7500    4.5800 ha        1 01J      0.113750
     34 H25        -2.3570    4.2770    2.3710 ha        1 01J      0.113750
     35 H26        -1.2150    2.6360    1.0890 ha        1 01J      0.134000
     36 H32         1.7310   -0.6030    3.2990 ha        1 01J      0.162500
     37 H33         3.9410    0.2710    3.4880 ha        1 01J      0.118500
     38 H34         4.7350    1.8570    1.9170 ha        1 01J      0.113750
     39 H35         3.2580    2.7600    0.2890 ha        1 01J      0.113750
     40 H36         1.0070    1.9820    0.1600 ha        1 01J      0.134000
     41 H421       -1.3570   -3.2730   -2.8180 h1        1 01J      0.103500
     42 H422       -1.3270   -2.0950   -3.9100 h1        1 01J      0.103500
     43 H431        0.4530   -4.2450   -3.8210 h1        1 01J      0.075250
     44 H432       -0.5650   -3.9950   -4.9550 h1        1 01J      0.075250
     45 H451        2.4090   -2.6570   -3.6530 h1        1 01J      0.075250
     46 H452        2.4700   -1.4750   -4.7560 h1        1 01J      0.075250
     47 H461        1.6710   -0.7650   -2.5960 h1        1 01J      0.103500
     48 H462        0.6360   -0.5140   -3.7460 h1        1 01J      0.103500
     49 OXT        -2.9090   -0.7600    0.9510 o         1 01J     -0.567000
@<TRIPOS>BOND
     1    1    2 1   
     2    1   49 1   
     3    3    4 1   
     4    3    5 1   
     5    3   26 1   
     6    4    8 1   
     7    4   14 1   
     8    4   27 1   
     9    5    6 1   
    10    5   28 1   
    11    6    7 1   
    12    6   20 1   
    13    6   29 1   
    14    7   30 1   
    15    8    9 1   
    16    8   13 1   
    17    9   10 1   
    18    9   31 1   
    19   10   32 1   
    20   11   12 1   
    21   11   33 1   
    22   12   34 1   
    23   13   35 1   
    24   14   15 1   
    25   14   19 1   
    26   15   16 1   
    27   15   36 1   
    28   16   37 1   
    29   17   18 1   
    30   17   38 1   
    31   18   39 1   
    32   19   40 1   
    33   20   21 1   
    34   20   25 1   
    35   21   22 1   
    36   21   41 1   
    37   21   42 1   
    38   22   23 1   
    39   22   43 1   
    40   22   44 1   
    41   23   24 1   
    42   24   25 1   
    43   24   45 1   
    44   24   46 1   
    45   25   47 1   
    46   25   48 1   
@<TRIPOS>SUBSTRUCTURE
     1 01J         1 TEMP              0 ****  ****    0 ROOT
