@<TRIPOS>MOLECULE
01M
   24    22     1     0     0
SMALL
bcc


@<TRIPOS>ATOM
      1 C27        -2.8790   -0.2560   -0.9200 c1        1 01M      0.334000
      2 O28        -3.4710    0.7410   -0.4170 o         1 01M     -0.574500
      3 C29        -1.3270   -0.3140   -0.9220 c2        1 01M     -0.174000
      4 C30        -0.7560   -0.3780    0.5120 c3        1 01M     -0.068000
      5 N31         0.7130   -0.3210    0.5500 n3        1 01M     -0.268000
      6 C32         1.2560    0.7900   -0.1610 c3        1 01M     -0.054000
      7 C33         0.7460    0.8990   -1.5540 c3        1 01M     -0.156000
      8 C34        -0.7330    0.8660   -1.6300 c3        1 01M     -0.143000
      9 C35         1.4250   -0.8930    1.6380 c2        1 01M      0.151000
     10 N37         2.0000   -2.0580    1.5000 n1        1 01M     -0.333000
     11 N36         1.5110   -0.2020    2.8690 n3        1 01M     -0.351000
     12 H29        -1.1630   -1.1560   -1.4170 ha        1 01M      0.087000
     13 H301       -1.0470   -1.2080    0.9280 h1        1 01M      0.085000
     14 H302       -1.1140    0.3760    1.0280 h1        1 01M      0.085000
     15 H321        2.2450    0.6990   -0.1900 h1        1 01M      0.061500
     16 H322        1.0270    1.6220    0.3290 h1        1 01M      0.061500
     17 H331        1.1080    0.1510   -2.0850 hc        1 01M      0.067500
     18 H332        1.0610    1.7380   -1.9360 hc        1 01M      0.067500
     19 H341       -1.0030    0.8340   -2.5850 hc        1 01M      0.083500
     20 H342       -1.0880    1.6870   -1.2280 hc        1 01M      0.083500
     21 HN7         1.9430   -2.5070    0.6970 DU        1 01M      0.154000
     22 HN61        1.0770    0.5860    2.9770 hn        1 01M      0.188500
     23 HN62        2.0190   -0.5460    3.5550 hn        1 01M      0.188500
     24 OXT        -3.5510   -1.1500   -1.5400 o         1 01M     -0.574500
@<TRIPOS>BOND
     1    1    2 1   
     2    1   24 1   
     3    3    4 1   
     4    3    8 1   
     5    3   12 1   
     6    4    5 1   
     7    4   13 1   
     8    4   14 1   
     9    5    6 1   
    10    5    9 1   
    11    6    7 1   
    12    6   15 1   
    13    6   16 1   
    14    7    8 1   
    15    7   17 1   
    16    7   18 1   
    17    8   19 1   
    18    8   20 1   
    19    9   10 1   
    20    9   11 1   
    21   11   22 1   
    22   11   23 1   
@<TRIPOS>SUBSTRUCTURE
     1 01M         1 TEMP              0 ****  ****    0 ROOT
