@<TRIPOS>MOLECULE
01M
   24    24     1     0     0
SMALL
bcc


@<TRIPOS>ATOM
      1 C27        -2.1820   -0.0220   -0.8350 c         1 01M      0.917600
      2 O28        -3.1140    0.8180   -0.7070 o         1 01M     -0.839800
      3 C29        -0.7240    0.4270   -0.5670 c3        1 01M     -0.215700
      4 C30        -0.1210   -0.4890    0.4990 c3        1 01M      0.167800
      5 N31         1.2690   -0.1820    0.8410 nh        1 01M     -0.706600
      6 C32         1.3750    1.2070    1.2760 c3        1 01M      0.186800
      7 C33         0.7920    2.2290    0.2960 c3        1 01M     -0.109400
      8 C34        -0.6230    1.8690   -0.1140 c3        1 01M     -0.060400
      9 C35         2.2780   -0.6390   -0.0850 c2        1 01M      0.724100
     10 N37         3.4780   -0.1150   -0.0780 n2        1 01M     -0.851100
     11 N36         1.9690   -1.7690   -0.9590 nh        1 01M     -0.920800
     12 H29        -0.1650    0.3010   -1.5330 hc        1 01M      0.031700
     13 H301       -0.7070   -0.3600    1.4550 h1        1 01M      0.062700
     14 H302       -0.2520   -1.5610    0.1900 h1        1 01M      0.062700
     15 H321        0.7980    1.2690    2.2440 h1        1 01M      0.049700
     16 H322        2.4430    1.4690    1.5020 h1        1 01M      0.049700
     17 H331        0.8050    3.2360    0.7860 hc        1 01M      0.029700
     18 H332        1.4460    2.2860   -0.6120 hc        1 01M      0.029700
     19 H341       -0.9670    2.5410   -0.9420 hc        1 01M      0.048200
     20 H342       -1.3270    2.0270    0.7460 hc        1 01M      0.048200
     21 HN7         4.1310   -0.5680   -0.6810 hn        1 01M      0.386400
     22 HN61        1.7090   -2.5680   -0.4130 hn        1 01M      0.373800
     23 HN62        1.2060   -1.5320   -1.5680 hn        1 01M      0.373800
     24 OXT        -2.3440   -1.2280   -1.1810 o         1 01M     -0.839800
@<TRIPOS>BOND
     1    1    2 1   
     2    1    3 1   
     3    1   24 1   
     4    3    4 1   
     5    3    8 1   
     6    3   12 1   
     7    4    5 1   
     8    4   13 1   
     9    4   14 1   
    10    5    6 1   
    11    5    9 1   
    12    6    7 1   
    13    6   15 1   
    14    6   16 1   
    15    7    8 1   
    16    7   17 1   
    17    7   18 1   
    18    8   19 1   
    19    8   20 1   
    20    9   10 2   
    21    9   11 1   
    22   10   21 1   
    23   11   22 1   
    24   11   23 1   
@<TRIPOS>SUBSTRUCTURE
     1 01M         1 TEMP              0 ****  ****    0 ROOT
