@<TRIPOS>MOLECULE
01N
   33    32     1     0     0
SMALL
bcc


@<TRIPOS>ATOM
      1 C           0.6320   -2.6340    0.2230 c1        1 01N      0.807000
      2 O           1.5580   -2.8800    1.0170 o         1 01N     -0.836000
      3 CA         -0.3100   -1.4780    0.4940 c2        1 01N      0.180200
      4 CB         -0.3040   -0.5360   -0.6880 c3        1 01N     -0.186700
      5 CG          0.4030    0.7480   -0.3030 c3        1 01N     -0.045700
      6 CD1        -0.5210    1.9100   -0.5610 c3        1 01N     -0.089400
      7 CE1         0.1670    3.2550   -0.3740 c3        1 01N     -0.069400
      8 CZ          1.4600    3.3590   -1.1620 c3        1 01N     -0.071400
      9 CE2         2.3910    2.1890   -0.9070 c3        1 01N     -0.069400
     10 CD2         1.7060    0.8530   -1.0960 c3        1 01N     -0.089400
     11 N          -1.6320   -1.9820    0.7000 nh        1 01N     -0.363100
     12 C1         -1.6020   -3.0030    1.7300 c3        1 01N     -0.129700
     13 C2         -3.0000   -3.5450    1.9500 c         1 01N      0.881600
     14 O21        -3.5850   -4.1620    1.0300 o         1 01N     -0.870800
     15 O22        -3.5530   -3.4230    3.0800 o         1 01N     -0.870800
     16 H13        -0.0140   -0.9950    1.2980 h4        1 01N     -0.062200
     17 H141        0.1620   -0.9520   -1.4290 hc        1 01N      0.058200
     18 H142       -1.2240   -0.3360   -0.9510 hc        1 01N      0.058200
     19 H15         0.6140    0.7190    0.6450 hc        1 01N      0.034700
     20 H161       -0.8620    1.8490   -1.4970 hc        1 01N      0.056950
     21 H162       -1.2790    1.8520    0.0570 hc        1 01N      0.056950
     22 H171        0.3650    3.3840    0.5870 hc        1 01N      0.017700
     23 H172       -0.4270    3.9500   -0.6640 hc        1 01N      0.017700
     24 H181        1.9120    4.1780   -0.9150 hc        1 01N      0.011700
     25 H182        1.2490    3.3910   -2.1040 hc        1 01N      0.011700
     26 H191        2.7320    2.2460    0.0260 hc        1 01N      0.017700
     27 H192        3.1640    2.2480   -1.5380 hc        1 01N      0.017700
     28 H201        2.3220    0.1290   -0.7980 hc        1 01N      0.056950
     29 H202        1.5050    0.7280   -2.0680 hc        1 01N      0.056950
     30 H5         -2.1810   -1.2990    0.9640 hn        1 01N      0.217700
     31 H211       -0.9980   -3.7450    1.4460 h1        1 01N      0.014700
     32 H212       -1.2700   -2.6150    2.5620 h1        1 01N      0.014700
     33 OXT         0.4210   -3.4020   -0.7530 o         1 01N     -0.836000
@<TRIPOS>BOND
     1    1    2 2   
     2    1   33 2   
     3    3    4 1   
     4    3   11 2   
     5    3   16 1   
     6    4    5 1   
     7    4   17 1   
     8    4   18 1   
     9    5    6 1   
    10    5   10 1   
    11    5   19 1   
    12    6    7 1   
    13    6   20 1   
    14    6   21 1   
    15    7    8 1   
    16    7   22 1   
    17    7   23 1   
    18    8    9 1   
    19    8   24 1   
    20    8   25 1   
    21    9   10 1   
    22    9   26 1   
    23    9   27 1   
    24   10   28 1   
    25   10   29 1   
    26   11   12 1   
    27   11   30 1   
    28   12   13 1   
    29   12   31 1   
    30   12   32 1   
    31   13   14 1   
    32   13   15 1   
@<TRIPOS>SUBSTRUCTURE
     1 01N         1 TEMP              0 ****  ****    0 ROOT
