@<TRIPOS>MOLECULE
01N
   33    33     1     0     0
SMALL
bcc


@<TRIPOS>ATOM
      1 C          -1.1940   -2.8800    0.0400 c         1 01N      0.923600
      2 O          -1.3860   -3.2850   -1.1420 o         1 01N     -0.867300
      3 CA         -0.6690   -1.4240    0.2870 c3        1 01N      0.070500
      4 CB          0.6920   -1.3570   -0.4290 c3        1 01N     -0.089400
      5 CG          1.4660   -0.0670   -0.2320 c3        1 01N     -0.088700
      6 CD1         2.0190    0.0410    1.1820 c3        1 01N     -0.063900
      7 CE1         2.8170    1.3150    1.3670 c3        1 01N     -0.076900
      8 CZ          3.9430    1.4110    0.3570 c3        1 01N     -0.065400
      9 CE2         3.4100    1.2890   -1.0560 c3        1 01N     -0.076900
     10 CD2         2.6110    0.0140   -1.2350 c3        1 01N     -0.063900
     11 N          -1.6540   -0.4270   -0.0980 n3        1 01N     -0.802200
     12 C1         -1.6240    0.8150    0.6460 c3        1 01N      0.052800
     13 C2         -1.4310    2.1250   -0.1490 c         1 01N      0.886600
     14 O21        -1.7900    3.2030    0.4180 o         1 01N     -0.870800
     15 O22        -0.9030    2.1030   -1.3000 o         1 01N     -0.870800
     16 H13        -0.4880   -1.3370    1.3980 h1        1 01N      0.028700
     17 H141        1.3090   -2.2220   -0.0680 hc        1 01N      0.034700
     18 H142        0.5100   -1.5130   -1.5260 hc        1 01N      0.034700
     19 H15         0.7700    0.8060   -0.4240 hc        1 01N      0.118700
     20 H161        1.1680    0.0230    1.9130 hc        1 01N      0.029200
     21 H162        2.6710   -0.8460    1.4010 hc        1 01N      0.029200
     22 H171        2.1330    2.1960    1.2460 hc        1 01N      0.030700
     23 H172        3.2420    1.3520    2.4040 hc        1 01N      0.030700
     24 H181        4.4780    2.3890    0.4760 hc        1 01N      0.008700
     25 H182        4.6890    0.5960    0.5480 hc        1 01N      0.008700
     26 H191        2.7480    2.1670   -1.2810 hc        1 01N      0.030700
     27 H192        4.2640    1.3090   -1.7820 hc        1 01N      0.030700
     28 H201        3.2840   -0.8740   -1.1130 hc        1 01N      0.029200
     29 H202        2.1910   -0.0180   -2.2740 hc        1 01N      0.029200
     30 H5         -1.5810   -0.2400   -1.0830 hn        1 01N      0.369800
     31 H211       -2.6150    0.8890    1.1790 h1        1 01N      0.012700
     32 H212       -0.8260    0.8140    1.4420 h1        1 01N      0.012700
     33 OXT        -1.3420   -3.6190    1.0600 o         1 01N     -0.867300
@<TRIPOS>BOND
     1    1    2 1   
     2    1    3 1   
     3    1   33 1   
     4    3    4 1   
     5    3   11 1   
     6    3   16 1   
     7    4    5 1   
     8    4   17 1   
     9    4   18 1   
    10    5    6 1   
    11    5   10 1   
    12    5   19 1   
    13    6    7 1   
    14    6   20 1   
    15    6   21 1   
    16    7    8 1   
    17    7   22 1   
    18    7   23 1   
    19    8    9 1   
    20    8   24 1   
    21    8   25 1   
    22    9   10 1   
    23    9   26 1   
    24    9   27 1   
    25   10   28 1   
    26   10   29 1   
    27   11   12 1   
    28   11   30 1   
    29   12   13 1   
    30   12   31 1   
    31   12   32 1   
    32   13   14 1   
    33   13   15 1   
@<TRIPOS>SUBSTRUCTURE
     1 01N         1 TEMP              0 ****  ****    0 ROOT
