@<TRIPOS>MOLECULE
01O
   25    25     1     0     0
SMALL
bcc


@<TRIPOS>ATOM
      1 N           1.6860   -1.1120    1.0480 n2        1 01O     -0.664100
      2 C           1.6440   -0.1280    0.2510 ce        1 01O      0.642800
      3 N1          0.9580    1.2080    0.5140 n4        1 01O     -0.877600
      4 C1          2.2730   -0.1360   -1.0790 cc        1 01O     -0.253200
      5 N2          3.5830   -0.5980   -1.3060 na        1 01O      0.022900
      6 C2          4.4930   -1.1040   -0.3140 c3        1 01O     -0.012400
      7 C3          3.8330   -0.5340   -2.6560 cc        1 01O     -0.041300
      8 C4          1.6920    0.2100   -2.3170 cd        1 01O     -0.095000
      9 C5          2.6780   -0.0410   -3.3210 cd        1 01O     -0.276300
     10 C6          2.5690    0.2500   -4.7550 c3        1 01O      0.206100
     11 N3          2.1750   -0.9550   -5.5620 n4        1 01O     -0.846600
     12 H           1.2740   -1.1280    1.9580 hn        1 01O      0.485400
     13 H11A        0.4000    1.4720   -0.3060 hn        1 01O      0.468800
     14 H12         0.3440    1.1750    1.3350 hn        1 01O      0.468800
     15 H21         4.5360   -0.3980    0.5580 h1        1 01O      0.094367
     16 H22         5.5200   -1.1980   -0.7620 h1        1 01O      0.094367
     17 H23         4.1480   -2.1150    0.0400 h1        1 01O      0.094367
     18 H3          4.8070   -0.8180   -3.0740 h4        1 01O      0.211000
     19 H4          0.6860    0.5890   -2.4850 ha        1 01O      0.169000
     20 H61         3.5590    0.6130   -5.1650 hx        1 01O      0.122200
     21 H62         1.7870    1.0460   -4.9410 hx        1 01O      0.122200
     22 HN3         2.8700   -1.7010   -5.4530 hn        1 01O      0.464800
     23 H2          1.2670   -1.3130   -5.2500 hn        1 01O      0.464800
     24 H13         1.6750    1.9280    0.6650 hn        1 01O      0.468800
     25 H33         2.1110   -0.7030   -6.5560 hn        1 01O      0.464800
@<TRIPOS>BOND
     1    1    2 2   
     2    1   12 1   
     3    2    3 1   
     4    2    4 1   
     5    3   13 1   
     6    3   14 1   
     7    3   24 1   
     8    4    5 1   
     9    4    8 2   
    10    5    6 1   
    11    5    7 1   
    12    6   15 1   
    13    6   16 1   
    14    6   17 1   
    15    7    9 2   
    16    7   18 1   
    17    8    9 1   
    18    8   19 1   
    19    9   10 1   
    20   10   11 1   
    21   10   20 1   
    22   10   21 1   
    23   11   22 1   
    24   11   23 1   
    25   11   25 1   
@<TRIPOS>SUBSTRUCTURE
     1 01O         1 TEMP              0 ****  ****    0 ROOT
