@<TRIPOS>MOLECULE
01O
   23    17     1     0     0
SMALL
bcc


@<TRIPOS>ATOM
      1 N          -2.5020    0.2290    2.0570 n1        1 01O     -0.320000
      2 C          -1.1900    0.1210    2.0590 c1        1 01O      0.165000
      3 N1         -0.5010    0.0170    3.2720 n2        1 01O     -0.392000
      4 C1         -0.4100    0.0980    0.7200 c2        1 01O     -0.070000
      5 N2         -0.1040    1.1910   -0.0670 n2        1 01O     -0.087000
      6 C2         -0.4570    2.5290    0.1960 c2        1 01O     -0.075000
      7 C3          0.6040    0.7460   -1.1510 c1        1 01O     -0.114000
      8 C4          0.1130   -1.0200    0.1140 c1        1 01O     -0.178000
      9 C5          0.7400   -0.6210   -1.0410 c1        1 01O     -0.196000
     10 C6          1.5200   -1.5110   -1.9800 c2        1 01O     -0.018000
     11 N3          0.6480   -1.9370   -3.0810 n3        1 01O     -0.331000
     12 H          -2.9540    0.2390    2.8350 DU        1 01O      0.152000
     13 H11A        0.4080    0.0020    3.2810 hn        1 01O      0.197500
     14 H12        -0.9850   -0.0080    4.0920 hn        1 01O      0.197500
     15 H21        -0.0750    2.8090    1.1080 ha        1 01O      0.099667
     16 H22        -1.4270    2.6130    0.2100 ha        1 01O      0.099667
     17 H23        -0.0700    3.1370   -0.5440 ha        1 01O      0.099667
     18 H3          0.9680    1.3240   -1.9060 DU        1 01O      0.152000
     19 H4          0.0510   -1.9570    0.4530 DU        1 01O      0.152000
     20 H61         2.3110   -0.9990   -2.3540 h4        1 01O      0.093500
     21 H62         1.8460   -2.3090   -1.4860 h4        1 01O      0.093500
     22 HN3         0.3470   -2.7620   -2.9220 hn        1 01O      0.139000
     23 H2          1.1210   -1.9310   -3.8650 hn        1 01O      0.139000
@<TRIPOS>BOND
     1    1    2 1   
     2    2    4 1   
     3    3   13 1   
     4    3   14 1   
     5    4    5 1   
     6    4    8 1   
     7    5    7 1   
     8    6   15 1   
     9    6   16 1   
    10    6   17 1   
    11    7    9 1   
    12    8    9 1   
    13   10   11 1   
    14   10   20 1   
    15   10   21 1   
    16   11   22 1   
    17   11   23 1   
@<TRIPOS>SUBSTRUCTURE
     1 01O         1 TEMP              0 ****  ****    0 ROOT
