@<TRIPOS>MOLECULE
01O
   25    25     1     0     0
SMALL
bcc


@<TRIPOS>ATOM
      1 N           1.4910   -1.0840    0.9970 n2        1 01O     -0.664100
      2 C           1.5600   -0.0890    0.2150 ce        1 01O      0.642800
      3 N1          0.9680    1.2930    0.4700 n4        1 01O     -0.877600
      4 C1          2.2430   -0.1290   -1.0880 cc        1 01O     -0.253200
      5 N2          3.5230   -0.6880   -1.2680 na        1 01O      0.022900
      6 C2          4.3470   -1.2740   -0.2460 c3        1 01O     -0.012400
      7 C3          3.8340   -0.6260   -2.6050 cc        1 01O     -0.041300
      8 C4          1.7430    0.2750   -2.3440 cd        1 01O     -0.095000
      9 C5          2.7490   -0.0380   -3.3100 cd        1 01O     -0.276300
     10 C6          2.7240    0.2780   -4.7420 c3        1 01O      0.206100
     11 N3          2.2740   -0.8830   -5.5840 n4        1 01O     -0.846600
     12 H           1.0420   -1.0800    1.8880 hn        1 01O      0.485400
     13 H11A        0.3140    1.2950    1.2600 hn        1 01O      0.468800
     14 H12         1.7310    1.9510    0.6680 hn        1 01O      0.468800
     15 H21         3.9120   -2.2610    0.0770 h1        1 01O      0.094367
     16 H22         4.4070   -0.5850    0.6370 h1        1 01O      0.094367
     17 H23         5.3820   -1.4420   -0.6530 h1        1 01O      0.094367
     18 H3          4.8000   -0.9790   -2.9860 h4        1 01O      0.211000
     19 H4          0.7770    0.7320   -2.5470 ha        1 01O      0.169000
     20 H61         2.0140    1.1330   -4.9490 hx        1 01O      0.122200
     21 H62         3.7560    0.5690   -5.1060 hx        1 01O      0.122200
     22 HN3         2.2720   -0.6150   -6.5750 hn        1 01O      0.464800
     23 H2          1.3280   -1.1750   -5.3150 hn        1 01O      0.464800
     24 H13         0.4730    1.6110   -0.3700 hn        1 01O      0.468800
     25 H33         2.9040   -1.6810   -5.4570 hn        1 01O      0.464800
@<TRIPOS>BOND
     1    1    2 2   
     2    1   12 1   
     3    2    3 1   
     4    2    4 1   
     5    3   13 1   
     6    3   14 1   
     7    3   24 1   
     8    4    5 1   
     9    4    8 2   
    10    5    6 1   
    11    5    7 1   
    12    6   15 1   
    13    6   16 1   
    14    6   17 1   
    15    7    9 2   
    16    7   18 1   
    17    8    9 1   
    18    8   19 1   
    19    9   10 1   
    20   10   11 1   
    21   10   20 1   
    22   10   21 1   
    23   11   22 1   
    24   11   23 1   
    25   11   25 1   
@<TRIPOS>SUBSTRUCTURE
     1 01O         1 TEMP              0 ****  ****    0 ROOT
