@<TRIPOS>MOLECULE
01O
   25    25     1     0     0
SMALL
bcc


@<TRIPOS>ATOM
      1 N           1.5130   -1.0510    1.0130 n2        1 01O     -0.664100
      2 C           1.5840   -0.0630    0.2240 ce        1 01O      0.642800
      3 N1          1.0110    1.3270    0.4750 nz        1 01O     -0.877600
      4 C1          2.2530   -0.1200   -1.0860 cc        1 01O     -0.253200
      5 N2          3.5240   -0.6950   -1.2750 na        1 01O      0.022900
      6 C2          4.3530   -1.2840   -0.2590 c3        1 01O     -0.012400
      7 C3          3.8220   -0.6470   -2.6160 cc        1 01O     -0.041300
      8 C4          1.7460    0.2820   -2.3390 cd        1 01O     -0.095000
      9 C5          2.7370   -0.0510   -3.3130 cd        1 01O     -0.276300
     10 C6          2.7010    0.2560   -4.7480 c3        1 01O      0.206100
     11 N3          2.2280   -0.9050   -5.5770 nz        1 01O     -0.846600
     12 H           1.0730   -1.0360    1.9090 hn        1 01O      0.485400
     13 H11A        0.5080    1.6440   -0.3610 hn        1 01O      0.468800
     14 H12         0.3680    1.3440    1.2740 hn        1 01O      0.468800
     15 H21         4.4300   -0.5890    0.6200 h1        1 01O      0.094367
     16 H22         5.3810   -1.4670   -0.6740 h1        1 01O      0.094367
     17 H23         3.9090   -2.2630    0.0760 h1        1 01O      0.094367
     18 H3          4.7800   -1.0140   -3.0050 h4        1 01O      0.211000
     19 H4          0.7820    0.7490   -2.5360 ha        1 01O      0.169000
     20 H61         3.7320    0.5320   -5.1240 hx        1 01O      0.122200
     21 H62         1.9980    1.1190   -4.9530 hx        1 01O      0.122200
     22 HN3         2.8500   -1.7100   -5.4510 hn        1 01O      0.464800
     23 H2          1.2820   -1.1840   -5.2960 hn        1 01O      0.464800
     24 H13         1.7840    1.9790    0.6560 hn        1 01O      0.468800
     25 H33         2.2180   -0.6440   -6.5690 hn        1 01O      0.464800
@<TRIPOS>BOND
     1    1    2 2   
     2    1   12 1   
     3    2    3 1   
     4    2    4 1   
     5    3   13 1   
     6    3   14 1   
     7    3   24 1   
     8    4    5 1   
     9    4    8 2   
    10    5    6 1   
    11    5    7 1   
    12    6   15 1   
    13    6   16 1   
    14    6   17 1   
    15    7    9 2   
    16    7   18 1   
    17    8    9 1   
    18    8   19 1   
    19    9   10 1   
    20   10   11 1   
    21   10   20 1   
    22   10   21 1   
    23   11   22 1   
    24   11   23 1   
    25   11   25 1   
@<TRIPOS>SUBSTRUCTURE
     1 01O         1 TEMP              0 ****  ****    0 ROOT
