@<TRIPOS>MOLECULE
01O
   23    23     1     0     0
SMALL
bcc


@<TRIPOS>ATOM
      1 N          -2.5670    1.6910    0.9570 n2        1 01O     -0.829100
      2 C          -2.1520    0.7380    0.1760 ce        1 01O      0.662800
      3 N1         -3.0300    0.0580   -0.7030 nh        1 01O     -0.892800
      4 C1         -0.7490    0.2530    0.1560 cc        1 01O     -0.246200
      5 N2         -0.3470   -1.0870    0.0960 na        1 01O     -0.038100
      6 C2         -1.2000   -2.2330    0.0870 c3        1 01O      0.022600
      7 C3          1.0430   -1.1270    0.1130 cc        1 01O     -0.121300
      8 C4          0.4010    1.0630    0.2030 cd        1 01O     -0.160000
      9 C5          1.5340    0.1890    0.1720 cd        1 01O     -0.172300
     10 C6          2.9530    0.6060    0.2300 c3        1 01O      0.235100
     11 N3          3.8360   -0.2120   -0.5740 n3        1 01O     -0.917800
     12 H          -1.8820    2.0220    1.6020 hn        1 01O      0.401400
     13 H11A       -3.9290    0.4810   -0.8010 hn        1 01O      0.393300
     14 H12        -2.6050   -0.1440   -1.5820 hn        1 01O      0.393300
     15 H21        -1.5970   -2.4100   -0.9500 h1        1 01O      0.057700
     16 H22        -0.6190   -3.1350    0.4140 h1        1 01O      0.057700
     17 H23        -2.0660   -2.0750    0.7830 h1        1 01O      0.057700
     18 H3          1.5930   -2.0690    0.0840 h4        1 01O      0.179000
     19 H4          0.4210    2.1480    0.2470 ha        1 01O      0.155000
     20 H61         3.0060    1.7020   -0.0500 h1        1 01O      0.032200
     21 H62         3.3130    0.5240    1.2990 h1        1 01O      0.032200
     22 HN3         3.4610   -0.3520   -1.4910 hn        1 01O      0.348800
     23 H2          4.7330    0.2240   -0.6490 hn        1 01O      0.348800
@<TRIPOS>BOND
     1    1    2 2   
     2    1   12 1   
     3    2    3 1   
     4    2    4 1   
     5    3   13 1   
     6    3   14 1   
     7    4    5 1   
     8    4    8 2   
     9    5    6 1   
    10    5    7 1   
    11    6   15 1   
    12    6   16 1   
    13    6   17 1   
    14    7    9 2   
    15    7   18 1   
    16    8    9 1   
    17    8   19 1   
    18    9   10 1   
    19   10   11 1   
    20   10   20 1   
    21   10   21 1   
    22   11   22 1   
    23   11   23 1   
@<TRIPOS>SUBSTRUCTURE
     1 01O         1 TEMP              0 ****  ****    0 ROOT
