@<TRIPOS>MOLECULE
01P
   56    51     1     0     0
SMALL
bcc


@<TRIPOS>ATOM
      1 C1         -1.7750    0.3780   -2.8310 c1        1 01P     -0.332000
      2 N1          4.0660   -3.4370    2.3120 n3        1 01P     -0.226000
      3 O1          4.7670   -6.1530    2.8960 os        1 01P     -0.272000
      4 C2          5.1860   -5.5290    1.6840 c3        1 01P     -0.025000
      5 N2         -3.9310    0.8430   -1.7390 n3        1 01P     -0.241000
      6 O2          4.7920   -0.6760    2.0430 os        1 01P     -0.232000
      7 C3          4.2590   -4.3540    1.2700 c3        1 01P     -0.095500
      8 N3         -5.2920    2.9480   -4.1990 n1        1 01P     -0.115000
      9 C4         -0.4670    0.3930   -0.4180 c1        1 01P      0.177000
     10 N4          0.2110    0.1020   -1.5450 n1        1 01P     -0.228000
     11 C5          3.6450   -4.0660    3.5250 c3        1 01P     -0.095500
     12 N5         -1.7910    0.6770   -0.4780 n1        1 01P     -0.274000
     13 C6          4.5760   -5.2410    3.9330 c3        1 01P     -0.025000
     14 N6          0.2440    0.4640    0.8770 n3        1 01P     -0.220000
     15 C7         -5.3860    5.6790   -1.6830 c1        1 01P     -0.114000
     16 C8         -5.8830    6.7310   -2.4460 c1        1 01P     -0.125500
     17 C9         -6.1890    6.5300   -3.8040 c1        1 01P     -0.125500
     18 C10        -5.9990    5.3050   -4.3730 c1        1 01P     -0.094000
     19 C11         0.7970   -1.8060    1.3160 c1        1 01P     -0.086000
     20 C12         1.1740   -0.4810    1.1980 c1        1 01P      0.031000
     21 C13         2.4960   -0.1030    1.4320 c1        1 01P     -0.159000
     22 C14         3.4390   -1.0630    1.7860 c1        1 01P      0.039000
     23 C15         3.0570   -2.4080    1.9070 c2        1 01P      0.029000
     24 C16         1.7430   -2.7760    1.6720 c2        1 01P     -0.162000
     25 C17         4.9160    0.4460    2.9020 c3        1 01P     -0.072000
     26 C18        -4.4890    2.1020   -2.0820 c2        1 01P     -0.004000
     27 C19        -4.6830    3.3550   -1.4940 c2        1 01P     -0.078000
     28 C20        -5.1900    4.4250   -2.2660 c1        1 01P     -0.064000
     29 C21        -5.4920    4.2320   -3.5970 c1        1 01P     -0.015000
     30 C22        -4.7990    1.9040   -3.4490 c1        1 01P     -0.077000
     31 C23        -0.4520    0.0940   -2.7750 c1        1 01P      0.017000
     32 C24        -2.4510    0.6700   -1.6970 c1        1 01P      0.186000
     33 H1         -2.2570    0.3730   -3.7220 ha        1 01P      0.153000
     34 H2          6.1600   -5.1640    1.8110 h1        1 01P      0.094000
     35 H2A         5.1870   -6.1700    0.9990 h1        1 01P      0.094000
     36 HN2        -4.4790    0.1360   -1.5580 hn        1 01P      0.228000
     37 H3          3.4370   -4.6960    1.0140 h1        1 01P      0.092750
     38 H3A         4.6690   -3.8760    0.4900 h1        1 01P      0.092750
     39 H5          3.6360   -3.3870    4.2560 h1        1 01P      0.092750
     40 H5A         2.7860   -4.3930    3.4120 h1        1 01P      0.092750
     41 H6          4.1750   -5.7180    4.7150 h1        1 01P      0.094000
     42 H6A         5.5090   -4.8470    4.2160 h1        1 01P      0.094000
     43 HN6         0.0560    1.1140    1.4550 hn        1 01P      0.231000
     44 H7         -5.1600    5.8240   -0.6810 ha        1 01P      0.136000
     45 H8         -6.0260    7.6320   -2.0290 ha        1 01P      0.135500
     46 H9         -6.5280    7.2460   -4.3240 ha        1 01P      0.135500
     47 H10        -6.2100    5.1700   -5.3080 ha        1 01P      0.150000
     48 H11        -0.1530   -2.0700    1.1480 ha        1 01P      0.157000
     49 H13         2.7840    0.7850    1.2020 ha        1 01P      0.145000
     50 H16         1.4750   -3.7070    1.7560 ha        1 01P      0.139000
     51 H17         5.7920    0.7000    2.9440 h1        1 01P      0.081333
     52 H17A        4.5970    0.2060    3.8140 h1        1 01P      0.081333
     53 H17B        4.3670    1.2010    2.5440 h1        1 01P      0.081333
     54 H19        -4.3910    3.5110   -0.5550 ha        1 01P      0.159000
     55 H22        -4.5540    1.0580   -3.8900 ha        1 01P      0.156000
     56 H23         0.0300   -0.1130   -3.5850 ha        1 01P      0.165000
@<TRIPOS>BOND
     1    1   32 1   
     2    1   33 1   
     3    2    7 1   
     4    2   11 1   
     5    2   23 1   
     6    3    4 1   
     7    3   13 1   
     8    4    7 1   
     9    4   34 1   
    10    4   35 1   
    11    5   26 1   
    12    5   32 1   
    13    5   36 1   
    14    6   22 1   
    15    6   25 1   
    16    7   37 1   
    17    7   38 1   
    18    8   29 1   
    19    9   12 1   
    20    9   14 1   
    21   10   31 1   
    22   11   13 1   
    23   11   39 1   
    24   11   40 1   
    25   13   41 1   
    26   13   42 1   
    27   14   20 1   
    28   14   43 1   
    29   15   28 1   
    30   15   44 1   
    31   16   17 1   
    32   16   45 1   
    33   17   46 1   
    34   18   29 1   
    35   18   47 1   
    36   19   24 1   
    37   19   48 1   
    38   20   21 1   
    39   21   49 1   
    40   22   23 1   
    41   23   24 1   
    42   24   50 1   
    43   25   51 1   
    44   25   52 1   
    45   25   53 1   
    46   26   27 1   
    47   26   30 1   
    48   27   28 1   
    49   27   54 1   
    50   30   55 1   
    51   31   56 1   
@<TRIPOS>SUBSTRUCTURE
     1 01P         1 TEMP              0 ****  ****    0 ROOT
