@<TRIPOS>MOLECULE
01P
   56    60     1     0     0
SMALL
bcc


@<TRIPOS>ATOM
      1 C1          2.1250   -3.6100    0.9400 ca        1 01P     -0.463600
      2 N1         -5.6840    0.3210   -0.3410 nh        1 01P     -0.617000
      3 O1         -8.5110    0.0350    0.0200 os        1 01P     -0.417600
      4 C2         -7.7660    0.9010    0.8690 c3        1 01P      0.125400
      5 N2          4.1160   -2.2180    0.8680 nh        1 01P     -0.720300
      6 O2         -3.9150    2.1800    0.7490 os        1 01P     -0.326900
      7 C3         -6.2960    0.4740    0.9740 c3        1 01P      0.146300
      8 N3          6.9630   -0.4320   -0.6650 nb        1 01P     -0.641000
      9 C4          0.6490   -1.5210   -0.0260 ca        1 01P      0.897900
     10 N4         -0.0210   -2.6960    0.2860 nb        1 01P     -0.752000
     11 C5         -6.4770   -0.5340   -1.2130 c3        1 01P      0.146300
     12 N5          2.0100   -1.3090    0.1420 nb        1 01P     -0.801000
     13 C6         -7.9380   -0.0670   -1.2780 c3        1 01P      0.125400
     14 N6         -0.0580   -0.4570   -0.6260 nh        1 01P     -0.702300
     15 C7          5.1290    2.6020    0.5090 ca        1 01P     -0.114000
     16 C8          5.9900    3.5860    0.0890 ca        1 01P     -0.123000
     17 C9          7.1840    3.2480   -0.5900 ca        1 01P     -0.128000
     18 C10         7.5070    1.9380   -0.8400 ca        1 01P     -0.158300
     19 C11        -2.3490   -1.2930   -0.9720 ca        1 01P     -0.109000
     20 C12        -1.4600   -0.3240   -0.4810 ca        1 01P      0.134600
     21 C13        -1.9920    0.8510    0.0950 ca        1 01P     -0.219000
     22 C14        -3.3710    1.0510    0.1580 ca        1 01P      0.120100
     23 C15        -4.2860    0.0700   -0.3340 ca        1 01P      0.105600
     24 C16        -3.7230   -1.0980   -0.8800 ca        1 01P     -0.148000
     25 C17        -3.0720    3.3240    0.8120 c3        1 01P      0.114700
     26 C18         4.8810   -1.1230    0.4280 ca        1 01P      0.012300
     27 C19         4.5520    0.1970    0.6920 ca        1 01P     -0.079000
     28 C20         5.4270    1.2350    0.2670 ca        1 01P     -0.129300
     29 C21         6.6320    0.8880   -0.4150 ca        1 01P      0.378600
     30 C22         6.1320   -1.3710   -0.2680 ca        1 01P      0.388200
     31 C23         0.7420   -3.6960    0.7560 ca        1 01P      0.482200
     32 C24         2.7420   -2.3580    0.6210 ca        1 01P      0.707200
     33 H1          2.6990   -4.4590    1.3250 ha        1 01P      0.153000
     34 H2         -7.8470    1.9550    0.4930 h1        1 01P      0.054950
     35 H2A        -8.2630    0.8070    1.8700 h1        1 01P      0.054950
     36 HN2         4.6080   -3.0870    0.8920 hn        1 01P      0.432800
     37 H3         -6.2440   -0.4890    1.5600 h1        1 01P      0.049950
     38 H3A        -5.7340    1.2650    1.5430 h1        1 01P      0.049950
     39 H5         -6.0370   -0.4920   -2.2470 h1        1 01P      0.049950
     40 H5A        -6.4700   -1.6090   -0.8660 h1        1 01P      0.049950
     41 H6         -8.5620   -0.8370   -1.8010 h1        1 01P      0.054950
     42 H6A        -8.0170    0.9200   -1.8040 h1        1 01P      0.054950
     43 HN6         0.4340    0.4150   -0.6350 hn        1 01P      0.435800
     44 H7          4.1970    2.8530    1.0370 ha        1 01P      0.135000
     45 H8          5.7620    4.6460    0.2750 ha        1 01P      0.135000
     46 H9          7.8570    4.0560   -0.9170 ha        1 01P      0.136000
     47 H10         8.4370    1.6760   -1.3690 ha        1 01P      0.150000
     48 H11        -1.9720   -2.2210   -1.4290 ha        1 01P      0.157000
     49 H13        -1.3150    1.6210    0.4930 ha        1 01P      0.137000
     50 H16        -4.3760   -1.8980   -1.2660 ha        1 01P      0.139000
     51 H17        -3.7770    4.1530    1.0760 h1        1 01P      0.043033
     52 H17A       -2.3050    3.1950    1.6150 h1        1 01P      0.043033
     53 H17B       -2.5810    3.5220   -0.1710 h1        1 01P      0.043033
     54 H19         3.6280    0.4730    1.2220 ha        1 01P      0.158000
     55 H22         6.4410   -2.4100   -0.4920 h4        1 01P      0.019100
     56 H23         0.1970   -4.6280    0.9980 h4        1 01P      0.028100
@<TRIPOS>BOND
     1    1   31 ar  
     2    1   32 ar  
     3    1   33 1   
     4    2    7 1   
     5    2   11 1   
     6    2   23 1   
     7    3    4 1   
     8    3   13 1   
     9    4    7 1   
    10    4   34 1   
    11    4   35 1   
    12    5   26 1   
    13    5   32 1   
    14    5   36 1   
    15    6   22 1   
    16    6   25 1   
    17    7   37 1   
    18    7   38 1   
    19    8   29 ar  
    20    8   30 ar  
    21    9   10 ar  
    22    9   12 ar  
    23    9   14 1   
    24   10   31 ar  
    25   11   13 1   
    26   11   39 1   
    27   11   40 1   
    28   12   32 ar  
    29   13   41 1   
    30   13   42 1   
    31   14   20 1   
    32   14   43 1   
    33   15   16 ar  
    34   15   28 ar  
    35   15   44 1   
    36   16   17 ar  
    37   16   45 1   
    38   17   18 ar  
    39   17   46 1   
    40   18   29 ar  
    41   18   47 1   
    42   19   20 ar  
    43   19   24 ar  
    44   19   48 1   
    45   20   21 ar  
    46   21   22 ar  
    47   21   49 1   
    48   22   23 ar  
    49   23   24 ar  
    50   24   50 1   
    51   25   51 1   
    52   25   52 1   
    53   25   53 1   
    54   26   27 ar  
    55   26   30 ar  
    56   27   28 ar  
    57   27   54 1   
    58   28   29 ar  
    59   30   55 1   
    60   31   56 1   
@<TRIPOS>SUBSTRUCTURE
     1 01P         1 TEMP              0 ****  ****    0 ROOT
