@<TRIPOS>MOLECULE
01P
   58    62     1     0     0
SMALL
bcc


@<TRIPOS>ATOM
      1 C1         -0.3860   -0.5460    2.6210 ca        1 01P     -0.264600
      2 N1          7.8060   -0.1690    2.3060 nh        1 01P     -0.595000
      3 O1          9.7430    1.0130    0.6130 os        1 01P     -0.379600
      4 C2          9.7380    1.4430    1.9630 c3        1 01P      0.112900
      5 N2         -0.4640    1.3980    4.2150 n4        1 01P     -0.598100
      6 O2          6.5480    1.2760    4.4960 os        1 01P     -0.337900
      7 C3          8.4320    1.0870    2.6860 c3        1 01P      0.161300
      8 N3         -3.6780    2.1990    2.5060 nb        1 01P     -0.586000
      9 C4          1.7650   -1.5030    3.9810 ca        1 01P      0.758900
     10 N4          1.3290   -2.2390    2.8970 nb        1 01P     -0.624000
     11 C5          8.2540   -0.8570    1.1030 c3        1 01P      0.161300
     12 N5          1.2160   -0.3450    4.4490 nb        1 01P     -0.680000
     13 C6          9.6020   -0.3950    0.5350 c3        1 01P      0.112900
     14 N6          2.9880   -2.0160    4.6880 n4        1 01P     -0.571100
     15 C7         -5.1790    0.8560    5.6600 ca        1 01P     -0.102000
     16 C8         -6.5140    1.0360    5.3840 ca        1 01P     -0.087000
     17 C9         -6.9220    1.5990    4.1510 ca        1 01P     -0.060000
     18 C10        -6.0000    1.9780    3.2020 ca        1 01P     -0.163300
     19 C11         4.7660   -2.1840    2.9580 ca        1 01P     -0.027000
     20 C12         4.2060   -1.5160    4.0660 ca        1 01P     -0.201400
     21 C13         4.8400   -0.3660    4.5790 ca        1 01P     -0.073000
     22 C14         6.0210    0.0870    4.0180 ca        1 01P      0.030100
     23 C15         6.6380   -0.5720    2.8860 ca        1 01P      0.270600
     24 C16         5.9340   -1.7260    2.3950 ca        1 01P     -0.215000
     25 C17         7.0560    1.2040    5.8330 c3        1 01P      0.105700
     26 C18        -1.9040    1.4770    3.9930 ca        1 01P     -0.244700
     27 C19        -2.8130    1.0730    4.9630 ca        1 01P      0.004000
     28 C20        -4.1960    1.2350    4.7090 ca        1 01P     -0.158300
     29 C21        -4.6060    1.8080    3.4550 ca        1 01P      0.427600
     30 C22        -2.3990    2.0460    2.7590 ca        1 01P      0.410200
     31 C23         0.2680   -1.7500    2.2430 ca        1 01P      0.493200
     32 C24         0.1350    0.1200    3.7450 ca        1 01P      0.522200
     33 H1         -1.2600   -0.1790    2.0550 ha        1 01P      0.219000
     34 H2          9.8420    2.5600    1.9080 h1        1 01P      0.079200
     35 H2A        10.6160    1.0030    2.5080 h1        1 01P      0.079200
     36 HN2        -0.2720    1.5260    5.2230 hn        1 01P      0.481800
     37 H3          8.6670    1.0430    3.7900 h1        1 01P      0.070200
     38 H3A         7.6850    1.9170    2.5180 h1        1 01P      0.070200
     39 H5          7.4680   -0.7230    0.3040 h1        1 01P      0.070200
     40 H5A         8.3510   -1.9580    1.3350 h1        1 01P      0.070200
     41 H6          9.6470   -0.6300   -0.5630 h1        1 01P      0.079200
     42 H6A        10.4490   -0.9010    1.0710 h1        1 01P      0.079200
     43 HN6         2.9590   -1.7200    5.6740 hn        1 01P      0.484300
     44 H7         -4.8570    0.4220    6.6200 ha        1 01P      0.155000
     45 H8         -7.2820    0.7460    6.1220 ha        1 01P      0.174000
     46 H9         -8.0010    1.7340    3.9570 ha        1 01P      0.177000
     47 H10        -6.3250    2.4200    2.2430 ha        1 01P      0.185000
     48 H11         4.2810   -3.0790    2.5310 ha        1 01P      0.157000
     49 H13         4.4180    0.1890    5.4340 ha        1 01P      0.152000
     50 H16         6.3290   -2.2900    1.5320 ha        1 01P      0.172000
     51 H17         6.2340    0.9650    6.5490 h1        1 01P      0.055700
     52 H17A        7.4540    2.2360    6.0130 h1        1 01P      0.055700
     53 H17B        7.8700    0.4430    5.9040 h1        1 01P      0.055700
     54 H19        -2.4980    0.6390    5.9280 ha        1 01P      0.161000
     55 H22        -1.7020    2.3950    1.9720 h4        1 01P      0.042100
     56 H23        -0.0860   -2.3440    1.3690 h4        1 01P      0.103100
     57 H221       -0.0060    2.1650    3.6950 hn        1 01P      0.481800
     58 H62         2.9820   -3.0480    4.6360 hn        1 01P      0.484300
@<TRIPOS>BOND
     1    1   31 ar  
     2    1   32 ar  
     3    1   33 1   
     4    2    7 1   
     5    2   11 1   
     6    2   23 1   
     7    3    4 1   
     8    3   13 1   
     9    4    7 1   
    10    4   34 1   
    11    4   35 1   
    12    5   26 1   
    13    5   32 1   
    14    5   36 1   
    15    5   57 1   
    16    6   22 1   
    17    6   25 1   
    18    7   37 1   
    19    7   38 1   
    20    8   29 ar  
    21    8   30 ar  
    22    9   10 ar  
    23    9   12 ar  
    24    9   14 1   
    25   10   31 ar  
    26   11   13 1   
    27   11   39 1   
    28   11   40 1   
    29   12   32 ar  
    30   13   41 1   
    31   13   42 1   
    32   14   20 1   
    33   14   43 1   
    34   14   58 1   
    35   15   16 ar  
    36   15   28 ar  
    37   15   44 1   
    38   16   17 ar  
    39   16   45 1   
    40   17   18 ar  
    41   17   46 1   
    42   18   29 ar  
    43   18   47 1   
    44   19   20 ar  
    45   19   24 ar  
    46   19   48 1   
    47   20   21 ar  
    48   21   22 ar  
    49   21   49 1   
    50   22   23 ar  
    51   23   24 ar  
    52   24   50 1   
    53   25   51 1   
    54   25   52 1   
    55   25   53 1   
    56   26   27 ar  
    57   26   30 ar  
    58   27   28 ar  
    59   27   54 1   
    60   28   29 ar  
    61   30   55 1   
    62   31   56 1   
@<TRIPOS>SUBSTRUCTURE
     1 01P         1 TEMP              0 ****  ****    0 ROOT
