@<TRIPOS>MOLECULE
01P
   56    60     1     0     0
SMALL
bcc


@<TRIPOS>ATOM
      1 C1         -0.3050    0.0930   -0.1070 ca        1 01P     -0.463600
      2 N1          7.8410   -0.3730    3.2830 nh        1 01P     -0.617000
      3 O1         10.6310   -0.2720    2.6380 os        1 01P     -0.417600
      4 C2         10.0020    0.8390    3.2680 c3        1 01P      0.125400
      5 N2         -2.1380    0.5580    1.4190 nu        1 01P     -0.720300
      6 O2          6.3060    1.3240    4.8750 os        1 01P     -0.326900
      7 C3          8.4980    0.8910    2.9690 c3        1 01P      0.146300
      8 N3         -4.8170   -0.1980    3.8480 nb        1 01P     -0.641000
      9 C4          1.3590   -0.2770    2.0310 ca        1 01P      0.897900
     10 N4          1.9080   -0.3730    0.7600 nb        1 01P     -0.752000
     11 C5          8.5180   -1.5050    2.6660 c3        1 01P      0.146300
     12 N5          0.0320    0.0240    2.3070 nb        1 01P     -0.801000
     13 C6         10.0180   -1.5070    2.9920 c3        1 01P      0.125400
     14 N6          2.1600   -0.5660    3.1570 nu        1 01P     -0.702300
     15 C7         -2.6440    1.7360    6.1880 ca        1 01P     -0.114000
     16 C8         -3.4060    1.6830    7.3290 ca        1 01P     -0.123000
     17 C9         -4.6460    1.0020    7.3300 ca        1 01P     -0.128000
     18 C10        -5.1110    0.3850    6.1960 ca        1 01P     -0.158300
     19 C11         4.3400   -1.2760    2.2580 ca        1 01P     -0.109000
     20 C12         3.5710   -0.4650    3.1080 ca        1 01P      0.133600
     21 C13         4.2380    0.4070    3.9960 ca        1 01P     -0.219000
     22 C14         5.6310    0.4510    4.0370 ca        1 01P      0.120100
     23 C15         6.4260   -0.3640    3.1740 ca        1 01P      0.105600
     24 C16         5.7290   -1.2050    2.2860 ca        1 01P     -0.148000
     25 C17         5.5910    1.7740    6.0200 c3        1 01P      0.114700
     26 C18        -2.7940    0.5150    2.6630 ca        1 01P      0.012300
     27 C19        -2.3210    1.1480    3.8010 ca        1 01P     -0.079000
     28 C20        -3.0910    1.1080    4.9960 ca        1 01P     -0.129300
     29 C21        -4.3420    0.4220    4.9890 ca        1 01P      0.378600
     30 C22        -4.0820   -0.1520    2.7590 ca        1 01P      0.388200
     31 C23         1.0560   -0.1860   -0.2600 ca        1 01P      0.482200
     32 C24        -0.7930    0.2030    1.2350 ca        1 01P      0.707200
     33 H1         -0.9560    0.2340   -0.9750 ha        1 01P      0.153000
     34 H2         10.1850    0.7940    4.3740 h1        1 01P      0.054950
     35 H2A        10.5110    1.7350    2.8270 h1        1 01P      0.054950
     36 HN2        -2.7190    0.3450    0.6340 hn        1 01P      0.432800
     37 H3          8.0370    1.7030    3.5960 h1        1 01P      0.049950
     38 H3A         8.3590    1.1610    1.8820 h1        1 01P      0.049950
     39 H5          8.0600   -2.4520    3.0630 h1        1 01P      0.049950
     40 H5A         8.4060   -1.4980    1.5420 h1        1 01P      0.049950
     41 H6         10.5450   -2.2720    2.3640 h1        1 01P      0.054950
     42 H6A        10.1880   -1.7140    4.0810 h1        1 01P      0.054950
     43 HN6         1.7620   -0.2830    4.0310 hn        1 01P      0.435800
     44 H7         -1.6770    2.2620    6.1760 ha        1 01P      0.135000
     45 H8         -3.0620    2.1690    8.2550 ha        1 01P      0.135000
     46 H9         -5.2360    0.9740    8.2580 ha        1 01P      0.136000
     47 H10        -6.0770   -0.1450    6.1970 ha        1 01P      0.150000
     48 H11         3.8560   -1.9700    1.5530 ha        1 01P      0.157000
     49 H13         3.6560    1.0570    4.6660 ha        1 01P      0.137000
     50 H16         6.2840   -1.8500    1.5860 ha        1 01P      0.139000
     51 H17         4.8340    2.5420    5.7250 h1        1 01P      0.043033
     52 H17A        6.3860    2.2370    6.6590 h1        1 01P      0.043033
     53 H17B        5.1010    0.9250    6.5530 h1        1 01P      0.043033
     54 H19        -1.3590    1.6830    3.8130 ha        1 01P      0.158000
     55 H22        -4.5040   -0.6630    1.8730 h4        1 01P      0.019100
     56 H23         1.5050   -0.2680   -1.2680 h4        1 01P      0.028100
@<TRIPOS>BOND
     1    1   31 ar  
     2    1   32 ar  
     3    1   33 1   
     4    2    7 1   
     5    2   11 1   
     6    2   23 1   
     7    3    4 1   
     8    3   13 1   
     9    4    7 1   
    10    4   34 1   
    11    4   35 1   
    12    5   26 1   
    13    5   32 1   
    14    5   36 1   
    15    6   22 1   
    16    6   25 1   
    17    7   37 1   
    18    7   38 1   
    19    8   29 ar  
    20    8   30 ar  
    21    9   10 ar  
    22    9   12 ar  
    23    9   14 1   
    24   10   31 ar  
    25   11   13 1   
    26   11   39 1   
    27   11   40 1   
    28   12   32 ar  
    29   13   41 1   
    30   13   42 1   
    31   14   20 1   
    32   14   43 1   
    33   15   16 ar  
    34   15   28 ar  
    35   15   44 1   
    36   16   17 ar  
    37   16   45 1   
    38   17   18 ar  
    39   17   46 1   
    40   18   29 ar  
    41   18   47 1   
    42   19   20 ar  
    43   19   24 ar  
    44   19   48 1   
    45   20   21 ar  
    46   21   22 ar  
    47   21   49 1   
    48   22   23 ar  
    49   23   24 ar  
    50   24   50 1   
    51   25   51 1   
    52   25   52 1   
    53   25   53 1   
    54   26   27 ar  
    55   26   30 ar  
    56   27   28 ar  
    57   27   54 1   
    58   28   29 ar  
    59   30   55 1   
    60   31   56 1   
@<TRIPOS>SUBSTRUCTURE
     1 01P         1 TEMP              0 ****  ****    0 ROOT
