@<TRIPOS>MOLECULE
01Q
   25    25     1     0     0
SMALL
bcc


@<TRIPOS>ATOM
      1 N           1.7660    1.2470    0.9990 n2        1 01Q     -0.685100
      2 C           1.5960    0.2140    0.2820 ce        1 01Q      0.643800
      3 N1          0.5840   -0.8920    0.5440 nz        1 01Q     -0.875600
      4 C1          2.3580   -0.0610   -0.9510 cc        1 01Q     -0.206200
      5 N2          3.6560    0.4000   -1.1900 na        1 01Q      0.022900
      6 C2          4.4700    1.1410   -0.2680 c3        1 01Q     -0.010400
      7 C3          1.8990   -0.7720   -2.0880 cd        1 01Q     -0.148000
      8 C4          2.9510   -0.7560   -3.0380 cd        1 01Q     -0.114000
      9 C5          4.0260   -0.0300   -2.4670 cc        1 01Q     -0.192600
     10 C6          5.3460    0.1640   -3.1100 c3        1 01Q      0.189100
     11 N3          5.3580    1.3490   -4.0290 nz        1 01Q     -0.845600
     12 H           1.2550    1.4490    1.8330 hn        1 01Q      0.486400
     13 H11A        0.2200   -0.8600    1.5030 hn        1 01Q      0.474467
     14 H12         1.0310   -1.8030    0.3870 hn        1 01Q      0.474467
     15 H21         5.5310    1.1730   -0.6290 h1        1 01Q      0.088033
     16 H22         4.0780    2.1920   -0.1680 h1        1 01Q      0.088033
     17 H23         4.4550    0.6460    0.7420 h1        1 01Q      0.088033
     18 H3          0.9230   -1.2300   -2.2350 ha        1 01Q      0.179000
     19 H4          2.9390   -1.2300   -4.0200 ha        1 01Q      0.194000
     20 H61         5.5780   -0.7520   -3.7370 hx        1 01Q      0.133700
     21 H62         6.1830    0.2990   -2.3620 hx        1 01Q      0.133700
     22 HN3         5.2160    2.2180   -3.5040 hn        1 01Q      0.469800
     23 H2          4.6080    1.2660   -4.7250 hn        1 01Q      0.469800
     24 H13        -0.2010   -0.7940   -0.1120 hn        1 01Q      0.474467
     25 H33         6.2610    1.4000   -4.5180 hn        1 01Q      0.469800
@<TRIPOS>BOND
     1    1    2 2   
     2    1   12 1   
     3    2    3 1   
     4    2    4 1   
     5    3   13 1   
     6    3   14 1   
     7    3   24 1   
     8    4    5 1   
     9    4    7 2   
    10    5    6 1   
    11    5    9 1   
    12    6   15 1   
    13    6   16 1   
    14    6   17 1   
    15    7    8 1   
    16    7   18 1   
    17    8    9 2   
    18    8   19 1   
    19    9   10 1   
    20   10   11 1   
    21   10   20 1   
    22   10   21 1   
    23   11   22 1   
    24   11   23 1   
    25   11   25 1   
@<TRIPOS>SUBSTRUCTURE
     1 01Q         1 TEMP              0 ****  ****    0 ROOT
