@<TRIPOS>MOLECULE
01Q
   23    23     1     0     0
SMALL
bcc


@<TRIPOS>ATOM
      1 N           3.0670    0.5260   -0.9540 n2        1 01Q     -0.829100
      2 C           2.2370   -0.1120   -0.1840 ce        1 01Q      0.663800
      3 N1          2.5880   -1.3300    0.4460 nh        1 01Q     -0.893800
      4 C1          0.8500    0.3500    0.0810 cc        1 01Q     -0.244200
      5 N2         -0.2960   -0.4500    0.0550 na        1 01Q     -0.011100
      6 C2         -0.3290   -1.8500   -0.2320 c3        1 01Q      0.012600
      7 C3          0.4730    1.6730    0.3860 cd        1 01Q     -0.169000
      8 C4         -0.9420    1.6780    0.5560 cd        1 01Q     -0.196000
      9 C5         -1.3950    0.3600    0.3460 cc        1 01Q     -0.120600
     10 C6         -2.8080   -0.1130    0.4290 c3        1 01Q      0.227100
     11 N3         -3.3630   -0.5070   -0.8470 n3        1 01Q     -0.923800
     12 H           2.6720    1.3140   -1.4210 hn        1 01Q      0.401400
     13 H11A        3.5600   -1.5550    0.4070 hn        1 01Q      0.394800
     14 H12         2.2120   -1.4060    1.3660 hn        1 01Q      0.394800
     15 H21        -0.0350   -2.4340    0.6820 h1        1 01Q      0.064033
     16 H22        -1.3620   -2.1570   -0.5450 h1        1 01Q      0.064033
     17 H23         0.3940   -2.0860   -1.0590 h1        1 01Q      0.064033
     18 H3          1.1420    2.5230    0.4780 ha        1 01Q      0.155000
     19 H4         -1.5620    2.5330    0.8060 ha        1 01Q      0.152000
     20 H61        -2.8690   -1.0120    1.1100 h1        1 01Q      0.040700
     21 H62        -3.3950    0.7190    0.9220 h1        1 01Q      0.040700
     22 HN3        -4.3600   -0.5640   -0.7860 hn        1 01Q      0.355800
     23 H2         -3.1120    0.1380   -1.5700 hn        1 01Q      0.355800
@<TRIPOS>BOND
     1    1    2 2   
     2    1   12 1   
     3    2    3 1   
     4    2    4 1   
     5    3   13 1   
     6    3   14 1   
     7    4    5 1   
     8    4    7 2   
     9    5    6 1   
    10    5    9 1   
    11    6   15 1   
    12    6   16 1   
    13    6   17 1   
    14    7    8 1   
    15    7   18 1   
    16    8    9 2   
    17    8   19 1   
    18    9   10 1   
    19   10   11 1   
    20   10   20 1   
    21   10   21 1   
    22   11   22 1   
    23   11   23 1   
@<TRIPOS>SUBSTRUCTURE
     1 01Q         1 TEMP              0 ****  ****    0 ROOT
