@<TRIPOS>MOLECULE
01Q
   25    25     1     0     0
SMALL
bcc


@<TRIPOS>ATOM
      1 N           1.6580    1.3160    0.8970 n2        1 01Q     -0.684100
      2 C           1.5700    0.2240    0.2560 ce        1 01Q      0.643800
      3 N1          0.6270   -0.9240    0.5860 n4        1 01Q     -0.875600
      4 C1          2.3700   -0.0890   -0.9420 cc        1 01Q     -0.206200
      5 N2          3.6400    0.4380   -1.1980 na        1 01Q      0.022900
      6 C2          4.3860    1.2960   -0.3220 c3        1 01Q     -0.010400
      7 C3          1.9800   -0.9100   -2.0300 cd        1 01Q     -0.148000
      8 C4          3.0450   -0.8940   -2.9650 cd        1 01Q     -0.114000
      9 C5          4.0600   -0.0590   -2.4340 cc        1 01Q     -0.192600
     10 C6          5.3770    0.1740   -3.0720 c3        1 01Q      0.189100
     11 N3          5.3290    1.2880   -4.0750 n4        1 01Q     -0.845600
     12 H           1.1210    1.5440    1.7060 hn        1 01Q      0.486400
     13 H11A        1.1360   -1.8130    0.5060 hn        1 01Q      0.474467
     14 H12        -0.1490   -0.9290   -0.0880 hn        1 01Q      0.474467
     15 H21         4.3850    0.8770    0.7220 h1        1 01Q      0.088033
     16 H22         5.4500    1.3720   -0.6700 h1        1 01Q      0.088033
     17 H23         3.9260    2.3230   -0.3060 h1        1 01Q      0.088033
     18 H3          1.0370   -1.4410   -2.1560 ha        1 01Q      0.179000
     19 H4          3.0820   -1.4390   -3.9090 ha        1 01Q      0.194000
     20 H61         5.6790   -0.7680   -3.6270 hx        1 01Q      0.133700
     21 H62         6.1890    0.4190   -2.3250 hx        1 01Q      0.133700
     22 HN3         6.2350    1.3620   -4.5540 hn        1 01Q      0.469800
     23 H2          4.5980    1.1040   -4.7740 hn        1 01Q      0.469800
     24 H13         0.2420   -0.8450    1.5340 hn        1 01Q      0.474467
     25 H33         5.1210    2.1820   -3.6180 hn        1 01Q      0.469800
@<TRIPOS>BOND
     1    1    2 2   
     2    1   12 1   
     3    2    3 1   
     4    2    4 1   
     5    3   13 1   
     6    3   14 1   
     7    3   24 1   
     8    4    5 1   
     9    4    7 2   
    10    5    6 1   
    11    5    9 1   
    12    6   15 1   
    13    6   16 1   
    14    6   17 1   
    15    7    8 1   
    16    7   18 1   
    17    8    9 2   
    18    8   19 1   
    19    9   10 1   
    20   10   11 1   
    21   10   20 1   
    22   10   21 1   
    23   11   22 1   
    24   11   23 1   
    25   11   25 1   
@<TRIPOS>SUBSTRUCTURE
     1 01Q         1 TEMP              0 ****  ****    0 ROOT
