@<TRIPOS>MOLECULE
01Q
   25    25     1     0     0
SMALL
bcc


@<TRIPOS>ATOM
      1 N           1.6110    1.2590    0.8920 n2        1 01Q     -0.685100
      2 C           1.5520    0.1740    0.2380 ce        1 01Q      0.643800
      3 N1          0.6300   -0.9980    0.5430 n4        1 01Q     -0.875600
      4 C1          2.3720   -0.1070   -0.9560 cc        1 01Q     -0.206200
      5 N2          3.6320    0.4490   -1.1920 na        1 01Q      0.022900
      6 C2          4.3510    1.3120   -0.2980 c3        1 01Q     -0.010400
      7 C3          2.0100   -0.9240   -2.0570 cd        1 01Q     -0.148000
      8 C4          3.0840   -0.8740   -2.9800 cd        1 01Q     -0.114000
      9 C5          4.0760   -0.0250   -2.4290 cc        1 01Q     -0.192600
     10 C6          5.3940    0.2440   -3.0500 c3        1 01Q      0.189100
     11 N3          5.3320    1.3680   -4.0410 n4        1 01Q     -0.845600
     12 H           1.0610    1.4660    1.6990 hn        1 01Q      0.486400
     13 H11A        0.2380   -0.9410    1.4900 hn        1 01Q      0.474467
     14 H12         1.1580   -1.8750    0.4540 hn        1 01Q      0.474467
     15 H21         5.4170    1.4150   -0.6340 h1        1 01Q      0.088033
     16 H22         3.8690    2.3290   -0.2750 h1        1 01Q      0.088033
     17 H23         4.3480    0.8810    0.7410 h1        1 01Q      0.088033
     18 H3          1.0810   -1.4730   -2.1990 ha        1 01Q      0.179000
     19 H4          3.1430   -1.4070   -3.9300 ha        1 01Q      0.194000
     20 H61         5.7220   -0.6840   -3.6120 hx        1 01Q      0.133700
     21 H62         6.1930    0.4970   -2.2920 hx        1 01Q      0.133700
     22 HN3         5.1010    2.2520   -3.5760 hn        1 01Q      0.469800
     23 H2          4.6130    1.1770   -4.7500 hn        1 01Q      0.469800
     24 H13        -0.1410   -1.0070   -0.1350 hn        1 01Q      0.474467
     25 H33         6.2420    1.4670   -4.5100 hn        1 01Q      0.469800
@<TRIPOS>BOND
     1    1    2 2   
     2    1   12 1   
     3    2    3 1   
     4    2    4 1   
     5    3   13 1   
     6    3   14 1   
     7    3   24 1   
     8    4    5 1   
     9    4    7 2   
    10    5    6 1   
    11    5    9 1   
    12    6   15 1   
    13    6   16 1   
    14    6   17 1   
    15    7    8 1   
    16    7   18 1   
    17    8    9 2   
    18    8   19 1   
    19    9   10 1   
    20   10   11 1   
    21   10   20 1   
    22   10   21 1   
    23   11   22 1   
    24   11   23 1   
    25   11   25 1   
@<TRIPOS>SUBSTRUCTURE
     1 01Q         1 TEMP              0 ****  ****    0 ROOT
