@<TRIPOS>MOLECULE
01Q
   23    17     1     0     0
SMALL
bcc


@<TRIPOS>ATOM
      1 N          -0.3290   -0.2270    3.2770 n1        1 01Q     -0.318000
      2 C          -0.9450   -0.6540    2.2310 c1        1 01Q      0.164000
      3 N1         -2.3150   -1.1220    2.3410 n2        1 01Q     -0.390000
      4 C1         -0.2470   -0.6670    0.9000 c2        1 01Q     -0.073000
      5 N2         -0.1170    0.4050    0.0480 n2        1 01Q     -0.078000
      6 C2         -0.7210    1.7100    0.2270 c2        1 01Q     -0.077000
      7 C3          0.4380   -1.7430    0.3450 c1        1 01Q     -0.176000
      8 C4          0.9790   -1.3330   -0.8350 c1        1 01Q     -0.207000
      9 C5          0.6360    0.0060   -1.0240 c1        1 01Q     -0.118000
     10 C6          1.0190    0.8680   -2.2240 c2        1 01Q     -0.022000
     11 N3          2.1320    0.2990   -2.8730 n3        1 01Q     -0.329000
     12 H          -0.7450   -0.2200    4.0680 DU        1 01Q      0.145000
     13 H11A       -2.7920   -1.3510    1.5770 hn        1 01Q      0.196000
     14 H12        -2.7340   -1.1540    3.1860 hn        1 01Q      0.196000
     15 H21        -1.2630    1.7090    1.0420 ha        1 01Q      0.100333
     16 H22        -0.0240    2.3830    0.3040 ha        1 01Q      0.100333
     17 H23        -1.2890    1.9160   -0.5410 ha        1 01Q      0.100333
     18 H3          0.5170   -2.6470    0.7360 DU        1 01Q      0.145000
     19 H4          1.5180   -1.8830   -1.4470 DU        1 01Q      0.145000
     20 H61         1.2480    1.7810   -1.9150 h4        1 01Q      0.100500
     21 H62         0.2720    0.9130   -2.8410 h4        1 01Q      0.100500
     22 HN3         2.8390    0.8800   -2.8320 hn        1 01Q      0.147500
     23 H2          1.9240    0.1320   -3.7490 hn        1 01Q      0.147500
@<TRIPOS>BOND
     1    1    2 1   
     2    2    4 1   
     3    3   13 1   
     4    3   14 1   
     5    4    5 1   
     6    4    7 1   
     7    5    9 1   
     8    6   15 1   
     9    6   16 1   
    10    6   17 1   
    11    7    8 1   
    12    8    9 1   
    13   10   11 1   
    14   10   20 1   
    15   10   21 1   
    16   11   22 1   
    17   11   23 1   
@<TRIPOS>SUBSTRUCTURE
     1 01Q         1 TEMP              0 ****  ****    0 ROOT
