@<TRIPOS>MOLECULE
01R
   23    23     1     0     0
SMALL
bcc


@<TRIPOS>ATOM
      1 N19         0.1680    0.6310   -0.1730 n4        1 01R     -0.833600
      2 C20         1.3770   -0.2120    0.0230 c3        1 01R      0.071800
      3 C30         2.1490    0.1520    1.3090 c3        1 01R      0.073800
      4 N27         3.3630   -0.6930    1.5090 n4        1 01R     -0.626400
      5 C21         4.0710   -0.3150    2.7470 ca        1 01R     -0.036400
      6 C22         5.0850    0.6560    2.7020 ca        1 01R     -0.232300
      7 C23         5.7560    0.9440    3.9110 ca        1 01R      0.458200
      8 N24         5.4710    0.3450    5.0810 nb        1 01R     -0.574000
      9 C25         4.4970   -0.5840    5.0970 ca        1 01R      0.458200
     10 C26         3.7560   -0.9580    3.9550 ca        1 01R     -0.232300
     11 H19         0.4200    1.6260   -0.2510 hn        1 01R      0.488133
     12 H201        2.0400   -0.0770   -0.8860 hx        1 01R      0.137700
     13 H202        1.0380   -1.2920    0.0580 hx        1 01R      0.137700
     14 H301        1.4900    0.0180    2.2200 hx        1 01R      0.136700
     15 H302        2.4890    1.2310    1.2780 hx        1 01R      0.136700
     16 H27         4.0100   -0.5790    0.7140 hn        1 01R      0.472800
     17 H22         5.3820    1.1770    1.7800 ha        1 01R      0.173000
     18 H23         6.5720    1.6990    3.9340 h4        1 01R      0.085100
     19 H25         4.2970   -1.0640    6.0800 h4        1 01R      0.085100
     20 H26         2.9830   -1.7360    4.0420 ha        1 01R      0.173000
     21 H2         -0.3070    0.3450   -1.0450 hn        1 01R      0.488133
     22 H193       -0.4920    0.5190    0.6090 hn        1 01R      0.488133
     23 H272        3.0970   -1.6870    1.5750 hn        1 01R      0.472800
@<TRIPOS>BOND
     1    1    2 1   
     2    1   11 1   
     3    1   21 1   
     4    1   22 1   
     5    2    3 1   
     6    2   12 1   
     7    2   13 1   
     8    3    4 1   
     9    3   14 1   
    10    3   15 1   
    11    4    5 1   
    12    4   16 1   
    13    4   23 1   
    14    5    6 ar  
    15    5   10 ar  
    16    6    7 ar  
    17    6   17 1   
    18    7    8 ar  
    19    7   18 1   
    20    8    9 ar  
    21    9   10 ar  
    22    9   19 1   
    23   10   20 1   
@<TRIPOS>SUBSTRUCTURE
     1 01R         1 TEMP              0 ****  ****    0 ROOT
