@<TRIPOS>MOLECULE
01R
   22    22     1     0     0
SMALL
bcc


@<TRIPOS>ATOM
      1 N19        -0.0280   -0.3060    0.4770 n4        1 01R     -0.833600
      2 C20         1.4460   -0.4760    0.6040 c3        1 01R      0.059800
      3 C30         2.1430    0.8160    1.1300 c3        1 01R      0.206800
      4 N27         3.5500    0.6090    1.2210 nh        1 01R     -0.763600
      5 C21         4.1440    0.2420    2.4400 ca        1 01R      0.168600
      6 C22         5.5300    0.4540    2.6340 ca        1 01R     -0.304800
      7 C23         6.1140    0.0150    3.8320 ca        1 01R      0.440700
      8 N24         5.4340   -0.5950    4.8220 nb        1 01R     -0.660000
      9 C25         4.1170   -0.7870    4.6320 ca        1 01R      0.440700
     10 C26         3.4240   -0.3950    3.4740 ca        1 01R     -0.304800
     11 H19        -0.2430    0.4490   -0.1820 hn        1 01R      0.461800
     12 H201        1.6410   -1.3300    1.3160 hx        1 01R      0.123200
     13 H202        1.8540   -0.7500   -0.4110 hx        1 01R      0.123200
     14 H301        1.9280    1.6550    0.4070 h1        1 01R      0.063200
     15 H302        1.6910    1.0830    2.1300 h1        1 01R      0.063200
     16 H27         4.1080    1.1910    0.6340 hn        1 01R      0.441800
     17 H22         6.1500    0.9450    1.8720 ha        1 01R      0.135500
     18 H23         7.1960    0.1620    4.0120 h4        1 01R      0.038600
     19 H25         3.5800   -1.2880    5.4600 h4        1 01R      0.038600
     20 H26         2.3490   -0.5950    3.3990 ha        1 01R      0.135500
     21 H2         -0.4510   -1.1760    0.1370 hn        1 01R      0.461800
     22 H193       -0.4380   -0.0710    1.3880 hn        1 01R      0.461800
@<TRIPOS>BOND
     1    1    2 1   
     2    1   11 1   
     3    1   21 1   
     4    1   22 1   
     5    2    3 1   
     6    2   12 1   
     7    2   13 1   
     8    3    4 1   
     9    3   14 1   
    10    3   15 1   
    11    4    5 1   
    12    4   16 1   
    13    5    6 ar  
    14    5   10 ar  
    15    6    7 ar  
    16    6   17 1   
    17    7    8 ar  
    18    7   18 1   
    19    8    9 ar  
    20    9   10 ar  
    21    9   19 1   
    22   10   20 1   
@<TRIPOS>SUBSTRUCTURE
     1 01R         1 TEMP              0 ****  ****    0 ROOT
