@<TRIPOS>MOLECULE
01R
   21    21     1     0     0
SMALL
bcc


@<TRIPOS>ATOM
      1 N19         4.2850    0.4760   -0.2020 n3        1 01R     -0.914800
      2 C20         3.2230   -0.4690    0.0380 c3        1 01R      0.149800
      3 C30         1.8410    0.2210    0.0750 c3        1 01R      0.185800
      4 N27         0.7710   -0.7180    0.3200 nh        1 01R     -0.738600
      5 C21        -0.5460   -0.3070    0.1140 ca        1 01R      0.188600
      6 C22        -1.5800   -1.2700   -0.0210 ca        1 01R     -0.311300
      7 C23        -2.9040   -0.8280   -0.1300 ca        1 01R      0.423700
      8 N24        -3.2730    0.4690   -0.1260 nb        1 01R     -0.696000
      9 C25        -2.2860    1.3770   -0.0070 ca        1 01R      0.423700
     10 C26        -0.9260    1.0560    0.1110 ca        1 01R     -0.311300
     11 H19         4.2830    1.2060    0.4820 hn        1 01R      0.355300
     12 H201        3.2410   -1.2170   -0.8070 h1        1 01R      0.032200
     13 H202        3.3620   -1.0470    1.0000 h1        1 01R      0.032200
     14 H301        1.8250    0.9780    0.9110 h1        1 01R      0.050200
     15 H302        1.6830    0.7800   -0.8930 h1        1 01R      0.050200
     16 H27         0.9610   -1.6520    0.0210 hn        1 01R      0.404800
     17 H22        -1.3580   -2.3450   -0.0330 ha        1 01R      0.142000
     18 H23        -3.7270   -1.5580   -0.2300 h4        1 01R      0.019100
     19 H25        -2.6080    2.4350   -0.0070 h4        1 01R      0.019100
     20 H26        -0.1840    1.8580    0.2050 ha        1 01R      0.142000
     21 H2          5.1710    0.0120   -0.1900 hn        1 01R      0.355300
@<TRIPOS>BOND
     1    1    2 1   
     2    1   11 1   
     3    1   21 1   
     4    2    3 1   
     5    2   12 1   
     6    2   13 1   
     7    3    4 1   
     8    3   14 1   
     9    3   15 1   
    10    4    5 1   
    11    4   16 1   
    12    5    6 ar  
    13    5   10 ar  
    14    6    7 ar  
    15    6   17 1   
    16    7    8 ar  
    17    7   18 1   
    18    8    9 ar  
    19    9   10 ar  
    20    9   19 1   
    21   10   20 1   
@<TRIPOS>SUBSTRUCTURE
     1 01R         1 TEMP              0 ****  ****    0 ROOT
