@<TRIPOS>MOLECULE
01R
   22    22     1     0     0
SMALL
bcc


@<TRIPOS>ATOM
      1 N19        -0.0280   -0.3090    0.4790 nz        1 01R     -0.833600
      2 C20         1.4450   -0.4800    0.6060 c3        1 01R      0.059800
      3 C30         2.1440    0.8120    1.1250 c3        1 01R      0.206800
      4 N27         3.5510    0.6040    1.2180 nu        1 01R     -0.763600
      5 C21         4.1440    0.2420    2.4390 ca        1 01R      0.168600
      6 C22         5.5300    0.4540    2.6320 ca        1 01R     -0.304800
      7 C23         6.1140    0.0190    3.8320 ca        1 01R      0.440700
      8 N24         5.4320   -0.5860    4.8250 nb        1 01R     -0.660000
      9 C25         4.1150   -0.7770    4.6360 ca        1 01R      0.440700
     10 C26         3.4240   -0.3890    3.4750 ca        1 01R     -0.304800
     11 H19        -0.2430    0.4430   -0.1840 hn        1 01R      0.461800
     12 H201        1.6390   -1.3320    1.3220 hx        1 01R      0.123200
     13 H202        1.8530   -0.7600   -0.4080 hx        1 01R      0.123200
     14 H301        1.9300    1.6480    0.3990 h1        1 01R      0.063200
     15 H302        1.6920    1.0850    2.1240 h1        1 01R      0.063200
     16 H27         4.1100    1.1830    0.6280 hn        1 01R      0.441800
     17 H22         6.1520    0.9400    1.8680 ha        1 01R      0.135500
     18 H23         7.1960    0.1660    4.0120 h4        1 01R      0.038600
     19 H25         3.5780   -1.2730    5.4660 h4        1 01R      0.038600
     20 H26         2.3490   -0.5880    3.4010 ha        1 01R      0.135500
     21 H2         -0.4520   -1.1800    0.1430 hn        1 01R      0.461800
     22 H193       -0.4370   -0.0700    1.3890 hn        1 01R      0.461800
@<TRIPOS>BOND
     1    1    2 1   
     2    1   11 1   
     3    1   21 1   
     4    1   22 1   
     5    2    3 1   
     6    2   12 1   
     7    2   13 1   
     8    3    4 1   
     9    3   14 1   
    10    3   15 1   
    11    4    5 1   
    12    4   16 1   
    13    5    6 ar  
    14    5   10 ar  
    15    6    7 ar  
    16    6   17 1   
    17    7    8 ar  
    18    7   18 1   
    19    8    9 ar  
    20    9   10 ar  
    21    9   19 1   
    22   10   20 1   
@<TRIPOS>SUBSTRUCTURE
     1 01R         1 TEMP              0 ****  ****    0 ROOT
