@<TRIPOS>MOLECULE
01R
   21    19     1     0     0
SMALL
bcc


@<TRIPOS>ATOM
      1 N19        -2.9820   -0.6620   -2.1440 n3        1 01R     -0.347000
      2 C20        -1.6140   -0.2830   -2.1180 c3        1 01R     -0.087000
      3 C30        -1.1270   -0.2250   -0.6780 c3        1 01R     -0.051000
      4 N27         0.2740    0.1020   -0.6580 n3        1 01R     -0.294000
      5 C21         0.9690    0.2040    0.5970 c2        1 01R      0.107000
      6 C22         1.0040    1.4010    1.2650 c1        1 01R     -0.244000
      7 C23         1.7210    1.5130    2.4570 c1        1 01R     -0.041000
      8 N24         2.3880    0.4310    2.9590 n1        1 01R     -0.170000
      9 C25         2.3540   -0.7690    2.2920 c1        1 01R     -0.042000
     10 C26         1.6400   -0.8850    1.1030 c2        1 01R     -0.248000
     11 H19        -3.0860   -1.3980   -2.6920 hn        1 01R      0.150500
     12 H201       -1.5130    0.5990   -2.5320 h1        1 01R      0.071500
     13 H202       -1.0840   -0.9390   -2.6140 h1        1 01R      0.071500
     14 H301       -1.6350    0.4690   -0.1870 h1        1 01R      0.089500
     15 H302       -1.2650   -1.0970   -0.2500 h1        1 01R      0.089500
     16 H27         0.7250    0.2410   -1.4450 hn        1 01R      0.200000
     17 H22         0.5220    2.1830    0.9030 ha        1 01R      0.144000
     18 H23         1.7460    2.3700    2.9350 ha        1 01R      0.156000
     19 H25         2.8330   -1.5430    2.6520 ha        1 01R      0.156000
     20 H26         1.6150   -1.7460    0.6220 ha        1 01R      0.140000
     21 H2         -3.4840    0.0340   -2.4680 hn        1 01R      0.150500
@<TRIPOS>BOND
     1    1    2 1   
     2    1   11 1   
     3    1   21 1   
     4    2    3 1   
     5    2   12 1   
     6    2   13 1   
     7    3    4 1   
     8    3   14 1   
     9    3   15 1   
    10    4    5 1   
    11    4   16 1   
    12    5    6 1   
    13    5   10 1   
    14    6   17 1   
    15    7    8 1   
    16    7   18 1   
    17    9   10 1   
    18    9   19 1   
    19   10   20 1   
@<TRIPOS>SUBSTRUCTURE
     1 01R         1 TEMP              0 ****  ****    0 ROOT
