@<TRIPOS>MOLECULE
01S
   43    42     1     0     0
SMALL
bcc


@<TRIPOS>ATOM
      1 N           3.4810   -1.2380    1.9030 n         1 01S     -0.349400
      2 OH          4.1080   -2.4150    1.9400 oh        1 01S     -0.433100
      3 C1          2.6700   -1.0280    0.7440 c         1 01S      0.593100
      4 O1          2.2080   -2.0010    0.1280 o         1 01S     -0.557100
      5 CA          2.3190    0.4170    0.4270 c3        1 01S     -0.211700
      6 CB          3.4770    1.0520   -0.3380 c3        1 01S     -0.063400
      7 CG          3.5540    2.5590   -0.1320 c3        1 01S     -0.072700
      8 CD1         4.1090    2.9100    1.2320 c3        1 01S     -0.092600
      9 CD2         4.4150    3.1780   -1.2170 c3        1 01S     -0.092600
     10 C           1.0110    0.5570   -0.3550 c         1 01S      0.677100
     11 O           0.8910    1.4170   -1.2500 o         1 01S     -0.605100
     12 N1         -0.0550   -0.2210    0.0440 n         1 01S     -0.544900
     13 CA1        -1.3240   -0.1750   -0.6420 c3        1 01S      0.040700
     14 C2         -2.4820   -0.3310    0.3750 c         1 01S      0.642100
     15 O2         -2.3890   -1.0700    1.3730 o         1 01S     -0.604100
     16 CB1        -1.5160   -1.2710   -1.6920 c3        1 01S     -0.122100
     17 N2         -3.6190    0.4270    0.1330 n         1 01S     -0.536900
     18 CA2        -4.8290    0.1990    0.8660 c3        1 01S      0.010000
     19 C3         -5.9350   -0.4630    0.0260 c         1 01S      0.627100
     20 O3         -5.9720   -0.3460   -1.2160 o         1 01S     -0.621100
     21 N3         -6.9170   -1.1490    0.6910 n         1 01S     -0.666000
     22 HN          4.1790   -0.5120    2.0300 hn        1 01S      0.302500
     23 HOH         3.4170   -3.0800    2.1350 ho        1 01S      0.437000
     24 HA          2.1550    0.9790    1.3950 hc        1 01S      0.104700
     25 HB1         4.4470    0.5880   -0.0190 hc        1 01S      0.059200
     26 HB2         3.3430    0.8400   -1.4330 hc        1 01S      0.059200
     27 HG          2.5110    2.9770   -0.2260 hc        1 01S      0.074700
     28 HD11        4.1370    4.0190    1.3600 hc        1 01S      0.035533
     29 HD12        3.4750    2.4820    2.0460 hc        1 01S      0.035533
     30 HD13        5.1480    2.5170    1.3490 hc        1 01S      0.035533
     31 HD21        3.9670    2.9900   -2.2220 hc        1 01S      0.035533
     32 HD22        4.4900    4.2810   -1.0630 hc        1 01S      0.035533
     33 HD23        5.4440    2.7450   -1.1980 hc        1 01S      0.035533
     34 H           0.1030   -1.0200    0.6180 hn        1 01S      0.334500
     35 HA1        -1.3910    0.8330   -1.1580 h1        1 01S      0.101700
     36 HB11       -2.5140   -1.1470   -2.1760 hc        1 01S      0.057033
     37 HB21       -0.7250   -1.1940   -2.4760 hc        1 01S      0.057033
     38 HB3        -1.4630   -2.2850   -1.2270 hc        1 01S      0.057033
     39 H1         -3.7400    0.8030   -0.7830 hn        1 01S      0.323500
     40 HA2        -4.5990   -0.4200    1.7810 h1        1 01S      0.086200
     41 HA3        -5.2350    1.1990    1.1980 h1        1 01S      0.086200
     42 HN1        -6.8560   -1.3140    1.6620 hn        1 01S      0.315000
     43 HN2        -7.6380   -1.5890    0.1760 hn        1 01S      0.315000
@<TRIPOS>BOND
     1    1    2 1   
     2    1    3 1   
     3    1   22 1   
     4    2   23 1   
     5    3    4 2   
     6    3    5 1   
     7    5    6 1   
     8    5   10 1   
     9    5   24 1   
    10    6    7 1   
    11    6   25 1   
    12    6   26 1   
    13    7    8 1   
    14    7    9 1   
    15    7   27 1   
    16    8   28 1   
    17    8   29 1   
    18    8   30 1   
    19    9   31 1   
    20    9   32 1   
    21    9   33 1   
    22   10   11 2   
    23   10   12 1   
    24   12   13 1   
    25   12   34 1   
    26   13   14 1   
    27   13   16 1   
    28   13   35 1   
    29   14   15 2   
    30   14   17 1   
    31   16   36 1   
    32   16   37 1   
    33   16   38 1   
    34   17   18 1   
    35   17   39 1   
    36   18   19 1   
    37   18   40 1   
    38   18   41 1   
    39   19   20 2   
    40   19   21 1   
    41   21   42 1   
    42   21   43 1   
@<TRIPOS>SUBSTRUCTURE
     1 01S         1 TEMP              0 ****  ****    0 ROOT
