@<TRIPOS>MOLECULE
01S
   43    42     1     0     0
SMALL
bcc


@<TRIPOS>ATOM
      1 N          -1.3410    2.1750   -2.7180 n         1 01S     -0.349400
      2 OH         -1.8060    2.0760   -3.9970 oh        1 01S     -0.432100
      3 C1         -0.0810    1.6210   -2.3770 c         1 01S      0.592100
      4 O1          0.5810    1.0540   -3.2220 o         1 01S     -0.559100
      5 CA          0.4400    1.7440   -0.9700 c3        1 01S     -0.203700
      6 CB          1.6040    2.7360   -0.9420 c3        1 01S     -0.061400
      7 CG          1.2740    3.8930    0.0250 c3        1 01S     -0.074700
      8 CD1         1.0310    5.1680   -0.7710 c3        1 01S     -0.090100
      9 CD2         2.4490    4.1080    0.9860 c3        1 01S     -0.090100
     10 C           0.9180    0.3930   -0.4880 c         1 01S      0.672100
     11 O           2.0450    0.2640   -0.0760 o         1 01S     -0.598100
     12 N1          0.0260   -0.7320   -0.5040 n         1 01S     -0.549900
     13 CA1         0.3750   -1.9300    0.1940 c3        1 01S      0.039700
     14 C2         -0.8750   -2.7490    0.4480 c         1 01S      0.642100
     15 O2         -1.7360   -2.8240   -0.4070 o         1 01S     -0.605100
     16 CB1         1.3430   -2.7340   -0.6380 c3        1 01S     -0.117100
     17 N2         -1.0180   -3.4730    1.6690 n         1 01S     -0.538900
     18 CA2        -1.7740   -4.6780    1.6970 c3        1 01S      0.010000
     19 C3         -2.6920   -4.6730    2.9070 c         1 01S      0.628100
     20 O3         -3.0960   -3.6210    3.3590 o         1 01S     -0.618100
     21 N3         -3.0650   -5.8950    3.5180 n         1 01S     -0.667000
     22 HN         -1.8310    2.6260   -2.0850 hn        1 01S      0.302500
     23 HOH        -2.4900    2.6420   -4.1110 ho        1 01S      0.438000
     24 HA         -0.2730    2.0630   -0.3870 hc        1 01S      0.093700
     25 HB1         1.7500    3.0930   -1.8420 hc        1 01S      0.064200
     26 HB2         2.4140    2.2780   -0.6370 hc        1 01S      0.064200
     27 HG          0.4750    3.6730    0.5340 hc        1 01S      0.076700
     28 HD11        0.1720    5.1020   -1.2410 hc        1 01S      0.034533
     29 HD12        1.0120    5.9380   -0.1600 hc        1 01S      0.034533
     30 HD13        1.7510    5.2880   -1.4240 hc        1 01S      0.034533
     31 HD21        2.6020    3.2910    1.5030 hc        1 01S      0.034533
     32 HD22        2.2420    4.8500    1.5980 hc        1 01S      0.034533
     33 HD23        3.2570    4.3250    0.4710 hc        1 01S      0.034533
     34 H          -0.7310   -0.7020   -1.0000 hn        1 01S      0.331500
     35 HA1         0.7920   -1.7000    1.0460 h1        1 01S      0.099700
     36 HB11        1.9200   -3.2590   -0.0510 hc        1 01S      0.056367
     37 HB21        0.8410   -3.3390   -1.2320 hc        1 01S      0.056367
     38 HB3         1.8910   -2.1270   -1.1780 hc        1 01S      0.056367
     39 H1         -0.5790   -3.1970    2.4130 hn        1 01S      0.327500
     40 HA2        -2.3090   -4.7450    0.8830 h1        1 01S      0.084700
     41 HA3        -1.1630   -5.4480    1.7520 h1        1 01S      0.084700
     42 HN1        -3.6750   -5.8980    4.1990 hn        1 01S      0.314500
     43 HN2        -2.6700   -6.6770    3.2550 hn        1 01S      0.314500
@<TRIPOS>BOND
     1    1    2 1   
     2    1    3 1   
     3    1   22 1   
     4    2   23 1   
     5    3    4 2   
     6    3    5 1   
     7    5    6 1   
     8    5   10 1   
     9    5   24 1   
    10    6    7 1   
    11    6   25 1   
    12    6   26 1   
    13    7    8 1   
    14    7    9 1   
    15    7   27 1   
    16    8   28 1   
    17    8   29 1   
    18    8   30 1   
    19    9   31 1   
    20    9   32 1   
    21    9   33 1   
    22   10   11 2   
    23   10   12 1   
    24   12   13 1   
    25   12   34 1   
    26   13   14 1   
    27   13   16 1   
    28   13   35 1   
    29   14   15 2   
    30   14   17 1   
    31   16   36 1   
    32   16   37 1   
    33   16   38 1   
    34   17   18 1   
    35   17   39 1   
    36   18   19 1   
    37   18   40 1   
    38   18   41 1   
    39   19   20 2   
    40   19   21 1   
    41   21   42 1   
    42   21   43 1   
@<TRIPOS>SUBSTRUCTURE
     1 01S         1 TEMP              0 ****  ****    0 ROOT
