@<TRIPOS>MOLECULE
01T
   56    56     1     0     0
SMALL
bcc


@<TRIPOS>ATOM
      1 C5         -0.1680    0.0460   -0.2430 c2        1 01T     -0.009000
      2 C6         -0.9600    0.5200   -1.4330 c3        1 01T     -0.116000
      3 C7         -0.9930    2.0410   -1.6100 c3        1 01T     -0.046000
      4 C8          0.3950    2.5820   -1.9150 c3        1 01T     -0.206667
      5 C10        -1.9120    2.3480   -2.7880 c3        1 01T     -0.206667
      6 C15         1.1790   -0.2850    2.1780 c2        1 01T     -0.051000
      7 C17         3.7600   -4.3750    4.3770 c1        1 01T      0.417000
      8 C20        -0.9060    0.1930    3.4500 ca        1 01T      0.043000
      9 C21        -1.5890    1.4190    3.5470 ca        1 01T     -0.171500
     10 C22        -2.3080    1.7270    4.6940 ca        1 01T     -0.036000
     11 C26        -0.9680   -0.7150    4.5150 ca        1 01T     -0.171500
     12 O19         4.1910   -5.3220    4.9510 o         1 01T     -0.208500
     13 O18         3.3290   -3.4260    3.8020 o         1 01T     -0.208500
     14 C16         2.0620   -0.1600    3.3580 c3        1 01T     -0.193000
     15 C3          1.8210   -0.5710    0.8580 cx        1 01T     -0.059000
     16 C2          3.3470   -0.5790    0.7650 cx        1 01T     -0.181000
     17 C1          2.6140   -1.8800    0.7630 cx        1 01T     -0.181000
     18 N4          1.1130   -0.1160   -0.3100 n2        1 01T     -0.145000
     19 C9         -1.5420    2.7210   -0.3660 c3        1 01T     -0.206667
     20 C11        -0.9950   -0.2660    0.9900 c3        1 01T     -0.127000
     21 C12        -1.5680   -1.6980    0.8820 c3        1 01T     -0.068000
     22 N13        -0.6200   -2.7650    0.7270 n3        1 01T     -0.335000
     23 C14        -0.1630   -0.1280    2.2300 c2        1 01T     -0.113000
     24 C25        -1.6970   -0.4060    5.6610 ca        1 01T     -0.036000
     25 C23        -2.3780    0.8210    5.7730 ca        1 01T     -0.204000
     26 H6         -2.0140    0.1480   -1.3190 hc        1 01T      0.097500
     27 H6A        -0.5430    0.0660   -2.3730 hc        1 01T      0.097500
     28 H8          0.8620    2.0070   -2.7500 hc        1 01T      0.076556
     29 H8A         0.3280    3.6560   -2.2130 hc        1 01T      0.076556
     30 H8B         1.0550    2.5060   -1.0180 hc        1 01T      0.076556
     31 H10        -1.5180    1.8760   -3.7200 hc        1 01T      0.076556
     32 H10A       -1.9750    3.4510   -2.9480 hc        1 01T      0.076556
     33 H10B       -2.9390    1.9580   -2.5950 hc        1 01T      0.076556
     34 H21        -1.5420    2.1320    2.7090 ha        1 01T      0.142500
     35 H22        -2.8350    2.6920    4.7660 ha        1 01T      0.145000
     36 H24        -3.6440    2.0380    7.0070 ha        1 01T      0.031000
     37 H24A       -1.5040    2.2240    8.1890 ha        1 01T      0.009500
     38 H24B       -1.5930    1.6430    8.5330 ha        1 01T      0.009500
     39 H26        -1.7530   -1.1210    6.4980 ha        1 01T      0.145000
     40 H16         1.4730   -0.0180    4.2980 hc        1 01T      0.094000
     41 H16A        2.7420    0.7210    3.2360 hc        1 01T      0.094000
     42 H2          2.6890   -1.0820    3.4720 hc        1 01T      0.094000
     43 H2A         3.9310   -0.2840    1.6530 hc        1 01T      0.120750
     44 H1          3.8150   -0.2270   -0.1730 hc        1 01T      0.120750
     45 H1A         2.5610   -2.4680   -0.1710 hc        1 01T      0.120750
     46 H1B         2.6480   -2.5210    1.6640 hc        1 01T      0.120750
     47 H9         -0.8840    2.5180    0.5130 hc        1 01T      0.076556
     48 H9A        -1.5910    3.8250   -0.5250 hc        1 01T      0.076556
     49 H9B        -2.5700    2.3490   -0.1390 hc        1 01T      0.076556
     50 H12        -1.8630    0.4500    1.0420 hc        1 01T      0.120000
     51 H12A       -2.2770   -1.7230    0.0080 h1        1 01T      0.097500
     52 HN13       -2.1600   -1.8960    1.8210 h1        1 01T      0.097500
     53 HN1A       -0.1440   -2.7010   -0.1530 hn        1 01T      0.146000
     54 H25        -0.4400   -1.6770    4.4390 ha        1 01T      0.142500
     55 C24        -3.1210    1.0680    6.9650 c1        1 01T     -0.063000
     56 H133        0.0670   -2.7430    1.4580 hn        1 01T      0.146000
@<TRIPOS>BOND
     1    1    2 1   
     2    1   18 1   
     3    1   20 1   
     4    2    3 1   
     5    2   26 1   
     6    2   27 1   
     7    3    4 1   
     8    3    5 1   
     9    3   19 1   
    10    4   28 1   
    11    4   29 1   
    12    4   30 1   
    13    5   31 1   
    14    5   32 1   
    15    5   33 1   
    16    6   14 1   
    17    6   15 1   
    18    6   23 1   
    19    7   12 1   
    20    7   13 1   
    21    8    9 1   
    22    8   11 1   
    23    8   23 1   
    24    9   10 1   
    25    9   34 1   
    26   10   25 1   
    27   10   35 1   
    28   11   24 1   
    29   11   54 1   
    30   14   40 1   
    31   14   41 1   
    32   14   42 1   
    33   15   16 1   
    34   15   17 1   
    35   15   18 1   
    36   16   17 1   
    37   16   43 1   
    38   16   44 1   
    39   17   45 1   
    40   17   46 1   
    41   19   47 1   
    42   19   48 1   
    43   19   49 1   
    44   20   21 1   
    45   20   23 1   
    46   20   50 1   
    47   21   22 1   
    48   21   51 1   
    49   21   52 1   
    50   22   53 1   
    51   22   56 1   
    52   24   25 1   
    53   24   39 1   
    54   25   55 1   
    55   36   55 1   
    56   37   38 1   
@<TRIPOS>SUBSTRUCTURE
     1 01T         1 TEMP              0 ****  ****    0 ROOT
