@<TRIPOS>MOLECULE
01T
   56    56     1     0     0
SMALL
bcc


@<TRIPOS>ATOM
      1 C5         -0.1620    0.0530   -0.2430 c2        1 01T     -0.009000
      2 C6         -0.9350    0.5520   -1.4360 c3        1 01T     -0.116000
      3 C7         -0.9290    2.0740   -1.6050 c3        1 01T     -0.046000
      4 C8          0.4740    2.5820   -1.9020 c3        1 01T     -0.206667
      5 C10        -1.8340    2.4100   -2.7870 c3        1 01T     -0.206667
      6 C15         1.1640   -0.3210    2.1820 c2        1 01T     -0.051000
      7 C17         3.6210   -4.4870    4.3780 c1        1 01T      0.417000
      8 C20        -0.9150    0.2050    3.4460 ca        1 01T      0.043000
      9 C21        -1.5670    1.4460    3.5450 ca        1 01T     -0.171500
     10 C22        -2.2840    1.7680    4.6890 ca        1 01T     -0.036000
     11 C26        -1.0040   -0.7060    4.5080 ca        1 01T     -0.171500
     12 O19         4.0210   -5.4490    4.9510 o         1 01T     -0.208500
     13 O18         3.2220   -3.5230    3.8050 o         1 01T     -0.208500
     14 C16         2.0440   -0.2230    3.3670 c3        1 01T     -0.193000
     15 C3          1.8060   -0.6170    0.8650 cx        1 01T     -0.059000
     16 C2          3.3310   -0.6640    0.7790 cx        1 01T     -0.181000
     17 C1          2.5660   -1.9460    0.7680 cx        1 01T     -0.181000
     18 N4          1.1160   -0.1400   -0.3050 n2        1 01T     -0.145000
     19 C9         -1.4670    2.7630   -0.3620 c3        1 01T     -0.206667
     20 C11        -1.0020   -0.2420    0.9840 c3        1 01T     -0.127000
     21 C12        -1.6100   -1.6600    0.8670 c3        1 01T     -0.068000
     22 N13        -0.6880   -2.7490    0.7120 n8        1 01T     -0.335000
     23 C14        -0.1740   -0.1310    2.2280 c2        1 01T     -0.113000
     24 C25        -1.7310   -0.3840    5.6510 ca        1 01T     -0.036000
     25 C23        -2.3820    0.8600    5.7640 ca        1 01T     -0.204000
     26 H6         -1.9990    0.2070   -1.3280 hc        1 01T      0.097500
     27 H6A        -0.5250    0.0920   -2.3760 hc        1 01T      0.097500
     28 H8          0.9290    1.9990   -2.7380 hc        1 01T      0.076556
     29 H8A         0.4350    3.6590   -2.1950 hc        1 01T      0.076556
     30 H8B         1.1270    2.4860   -1.0030 hc        1 01T      0.076556
     31 H10        -1.4480    1.9320   -3.7190 hc        1 01T      0.076556
     32 H10A       -1.8690    3.5150   -2.9420 hc        1 01T      0.076556
     33 H10B       -2.8730    2.0450   -2.6000 hc        1 01T      0.076556
     34 H21        -1.4980    2.1610    2.7100 ha        1 01T      0.142500
     35 H22        -2.7870    2.7450    4.7620 ha        1 01T      0.145000
     36 H24        -3.6240    2.1020    6.9970 ha        1 01T      0.031000
     37 H24A       -1.4850    2.2330    8.1900 ha        1 01T      0.009500
     38 H24B       -1.5900    1.6530    8.5310 ha        1 01T      0.009500
     39 H26        -1.8080   -1.1000    6.4850 ha        1 01T      0.145000
     40 H16         1.4540   -0.0700    4.3050 hc        1 01T      0.094000
     41 H16A        2.7480    0.6410    3.2520 hc        1 01T      0.094000
     42 H2          2.6470   -1.1610    3.4810 hc        1 01T      0.094000
     43 H2A         3.9190   -0.3870    1.6720 hc        1 01T      0.120750
     44 H1          3.8130   -0.3200   -0.1550 hc        1 01T      0.120750
     45 H1A         2.5020   -2.5280   -0.1690 hc        1 01T      0.120750
     46 H1B         2.5790   -2.5910    1.6660 hc        1 01T      0.120750
     47 H9         -0.8170    2.5390    0.5190 hc        1 01T      0.076556
     48 H9A        -1.4870    3.8690   -0.5160 hc        1 01T      0.076556
     49 H9B        -2.5050    2.4160   -0.1400 hc        1 01T      0.076556
     50 H12        -1.8530    0.4940    1.0350 hc        1 01T      0.120000
     51 H12A       -2.3150   -1.6630   -0.0110 h1        1 01T      0.097500
     52 HN13       -2.2120   -1.8460    1.8020 h1        1 01T      0.097500
     53 HN1A       -0.2060   -2.6930   -0.1650 hn        1 01T      0.146000
     54 H25        -0.5000   -1.6810    4.4300 ha        1 01T      0.142500
     55 C24        -3.1240    1.1200    6.9530 c1        1 01T     -0.063000
     56 H133       -0.0050   -2.7480    1.4470 hn        1 01T      0.146000
@<TRIPOS>BOND
     1    1    2 1   
     2    1   18 1   
     3    1   20 1   
     4    2    3 1   
     5    2   26 1   
     6    2   27 1   
     7    3    4 1   
     8    3    5 1   
     9    3   19 1   
    10    4   28 1   
    11    4   29 1   
    12    4   30 1   
    13    5   31 1   
    14    5   32 1   
    15    5   33 1   
    16    6   14 1   
    17    6   15 1   
    18    6   23 1   
    19    7   12 1   
    20    7   13 1   
    21    8    9 1   
    22    8   11 1   
    23    8   23 1   
    24    9   10 1   
    25    9   34 1   
    26   10   25 1   
    27   10   35 1   
    28   11   24 1   
    29   11   54 1   
    30   14   40 1   
    31   14   41 1   
    32   14   42 1   
    33   15   16 1   
    34   15   17 1   
    35   15   18 1   
    36   16   17 1   
    37   16   43 1   
    38   16   44 1   
    39   17   45 1   
    40   17   46 1   
    41   19   47 1   
    42   19   48 1   
    43   19   49 1   
    44   20   21 1   
    45   20   23 1   
    46   20   50 1   
    47   21   22 1   
    48   21   51 1   
    49   21   52 1   
    50   22   53 1   
    51   22   56 1   
    52   24   25 1   
    53   24   39 1   
    54   25   55 1   
    55   36   55 1   
    56   37   38 1   
@<TRIPOS>SUBSTRUCTURE
     1 01T         1 TEMP              0 ****  ****    0 ROOT
