@<TRIPOS>MOLECULE
01T
   56    57     1     0     0
SMALL
bcc


@<TRIPOS>ATOM
      1 C5         -0.1320    0.1370   -0.1230 c2        1 01T      0.158000
      2 C6         -0.8980    0.4980   -1.3600 c3        1 01T     -0.148000
      3 C7         -0.9970    2.0100   -1.6050 c3        1 01T     -0.043000
      4 C8          0.3820    2.6160   -1.8100 c3        1 01T     -0.212000
      5 C10        -1.8220    2.2090   -2.8730 c3        1 01T     -0.212000
      6 C15         1.2360   -0.1550    2.3080 c2        1 01T     -0.113000
      7 C17         2.2380   -1.8520    3.7750 c2        1 01T      0.339000
      8 C20        -0.8730    0.2940    3.5880 c2        1 01T     -0.087000
      9 C21        -1.2970    1.5470    3.9040 c2        1 01T     -0.143000
     10 C22        -1.9500    1.8100    5.1560 c2        1 01T     -0.075000
     11 C26        -1.1470   -0.8420    4.5090 c3        1 01T     -0.219000
     12 O19         3.4120   -2.2710    3.8740 o         1 01T     -0.540500
     13 O18         1.1860   -2.5580    3.8050 o         1 01T     -0.540500
     14 C16         2.0420   -0.3180    3.5360 c3        1 01T     -0.240000
     15 C3          1.8380   -0.3610    1.0130 c2        1 01T      0.271000
     16 C2          3.2240   -0.9090    0.8830 c3        1 01T     -0.167000
     17 C1          3.1550   -2.4000    0.6060 c3        1 01T     -0.208000
     18 N4          1.1770   -0.0360   -0.1520 n2        1 01T     -0.202000
     19 C9         -1.6960    2.7010   -0.4460 c3        1 01T     -0.212000
     20 C11        -0.9370   -0.1270    1.1160 c3        1 01T     -0.175000
     21 C12        -1.4000   -1.6360    1.0710 c3        1 01T     -0.022000
     22 N13        -0.2760   -2.5180    1.0830 n3        1 01T     -0.414000
     23 C14        -0.1300    0.0410    2.3590 c2        1 01T      0.077000
     24 C25        -1.8570   -0.5480    5.7280 c1        1 01T     -0.070000
     25 C23        -2.1480    0.8110    6.0680 c2        1 01T     -0.129000
     26 H6         -1.9360    0.0780   -1.2650 hc        1 01T      0.118000
     27 H6A        -0.4170    0.0260   -2.2610 hc        1 01T      0.118000
     28 H8          0.9590    2.0290   -2.5640 hc        1 01T      0.082444
     29 H8A         0.9560    2.6320   -0.8530 hc        1 01T      0.082444
     30 H8B         0.2830    3.6680   -2.1750 hc        1 01T      0.082444
     31 H10        -1.3140    1.7320   -3.7460 hc        1 01T      0.082444
     32 H10A       -2.8360    1.7580   -2.7560 hc        1 01T      0.082444
     33 H10B       -1.9400    3.3000   -3.0820 hc        1 01T      0.082444
     34 H21        -1.1150    2.4020    3.2350 ha        1 01T      0.129000
     35 H22        -2.2650    2.8470    5.3540 ha        1 01T      0.135000
     36 H24        -2.9580    2.1530    7.5540 hc        1 01T      0.087667
     37 H24A       -2.0020    0.7450    8.1960 hc        1 01T      0.087667
     38 H24B       -3.6640    0.4750    7.5370 hc        1 01T      0.087667
     39 H26        -0.1580   -1.3690    4.7900 hc        1 01T      0.215500
     40 H16         1.5160    0.1080    4.4270 hc        1 01T      0.107500
     41 H16A        3.0400    0.1790    3.4570 hc        1 01T      0.107500
     42 H2          3.7970   -0.7580    1.8410 hc        1 01T      0.138500
     43 H2A         3.7720   -0.3920    0.0490 hc        1 01T      0.138500
     44 H1          2.7210   -2.9320    1.4930 hc        1 01T      0.103000
     45 H1A         4.1920   -2.7800    0.4420 hc        1 01T      0.103000
     46 H1B         2.5400   -2.6180   -0.2980 hc        1 01T      0.103000
     47 H9         -1.0990    2.6020    0.4920 hc        1 01T      0.082444
     48 H9A        -1.8180    3.7890   -0.6710 hc        1 01T      0.082444
     49 H9B        -2.7080    2.2600   -0.2790 hc        1 01T      0.082444
     50 H12        -1.8600    0.5150    1.1350 hc        1 01T      0.159000
     51 H12A       -1.9930   -1.7700    0.1240 h1        1 01T      0.091000
     52 HN13       -2.0990   -1.7620    1.9470 h1        1 01T      0.091000
     53 HN1A       -0.4710   -3.3900    0.6420 hn        1 01T      0.208000
     54 H25        -1.6990   -1.6690    3.9700 hc        1 01T      0.215500
     55 C24        -2.7250    1.0700    7.4060 c3        1 01T     -0.166000
     56 H133        0.1270   -2.6480    1.9990 hn        1 01T      0.208000
@<TRIPOS>BOND
     1    1    2 1   
     2    1   18 1   
     3    1   20 1   
     4    2    3 1   
     5    2   26 1   
     6    2   27 1   
     7    3    4 1   
     8    3    5 1   
     9    3   19 1   
    10    4   28 1   
    11    4   29 1   
    12    4   30 1   
    13    5   31 1   
    14    5   32 1   
    15    5   33 1   
    16    6   14 1   
    17    6   15 1   
    18    6   23 1   
    19    7   12 1   
    20    7   13 1   
    21    7   14 1   
    22    8    9 1   
    23    8   11 1   
    24    8   23 1   
    25    9   10 1   
    26    9   34 1   
    27   10   25 1   
    28   10   35 1   
    29   11   24 1   
    30   11   39 1   
    31   11   54 1   
    32   14   40 1   
    33   14   41 1   
    34   15   16 1   
    35   15   18 1   
    36   16   17 1   
    37   16   42 1   
    38   16   43 1   
    39   17   44 1   
    40   17   45 1   
    41   17   46 1   
    42   19   47 1   
    43   19   48 1   
    44   19   49 1   
    45   20   21 1   
    46   20   23 1   
    47   20   50 1   
    48   21   22 1   
    49   21   51 1   
    50   21   52 1   
    51   22   53 1   
    52   22   56 1   
    53   24   25 1   
    54   25   55 1   
    55   36   55 1   
    56   37   55 1   
    57   38   55 1   
@<TRIPOS>SUBSTRUCTURE
     1 01T         1 TEMP              0 ****  ****    0 ROOT
