@<TRIPOS>MOLECULE
01T
   55    48     1     0     0
SMALL
bcc


@<TRIPOS>ATOM
      1 C5         -0.4300    0.2370   -1.3500 c1        1 01T     -0.028000
      2 C6         -1.2000    0.0770   -2.6470 c3        1 01T     -0.093000
      3 C7         -0.5300    0.8880   -3.7360 c3        1 01T     -0.035000
      4 C8          0.8080    0.2680   -4.0750 c3        1 01T     -0.202333
      5 C10        -0.3200    2.3080   -3.2510 c3        1 01T     -0.202333
      6 C15         0.9550    0.2930    1.0140 c1        1 01T     -0.028000
      7 C17         1.6340    2.5380    1.7970 c1        1 01T      0.342000
      8 C20        -0.5440   -0.6500    2.0770 c1        1 01T     -0.044000
      9 C21        -1.1530   -0.2630    3.2610 c1        1 01T     -0.117000
     10 C22        -1.2560   -1.1600    4.3140 c1        1 01T     -0.117000
     11 C24        -0.6980   -3.4160    5.3420 c3        1 01T     -0.170000
     12 C26        -0.0380   -1.9330    1.9450 c1        1 01T     -0.124000
     13 O19         2.3800    3.3040    2.4630 o         1 01T     -0.568000
     14 O18         0.9870    2.9880    0.8150 o         1 01T     -0.568000
     15 C16         1.5060    1.0800    2.1850 c1        1 01T     -0.221000
     16 C3          1.6300    0.2960   -0.1970 c2        1 01T     -0.005000
     17 C2          3.1410    0.2790   -0.2190 c3        1 01T     -0.142000
     18 C1          3.6210   -1.0360   -0.7920 c3        1 01T     -0.196000
     19 N4          0.9310    0.2680   -1.3680 n1        1 01T     -0.161000
     20 C9         -1.4090    0.9000   -4.9710 c3        1 01T     -0.202333
     21 C11        -1.1080    0.2340   -0.1400 c1        1 01T     -0.173000
     22 C12        -2.6170    0.2790   -0.1200 c3        1 01T     -0.048000
     23 N13        -3.0490    1.5530    0.3490 n3        1 01T     -0.334000
     24 C14        -0.4100    0.2620    1.0340 c1        1 01T     -0.011000
     25 C25        -0.1400   -2.8310    2.9980 c1        1 01T     -0.151000
     26 C23        -0.7490   -2.4440    4.1820 c1        1 01T     -0.085000
     27 H6         -1.2120   -0.8660   -2.9050 hc        1 01T      0.080000
     28 H6A        -2.1160    0.3930   -2.5240 hc        1 01T      0.080000
     29 H8          1.0670    0.5280   -4.9840 hc        1 01T      0.071556
     30 H8A         0.7390   -0.7080   -4.0220 hc        1 01T      0.071556
     31 H8B         1.4850    0.5840   -3.4400 hc        1 01T      0.071556
     32 H10         0.1410    2.8260   -3.9450 hc        1 01T      0.071556
     33 H10A        0.2230    2.2980   -2.4360 hc        1 01T      0.071556
     34 H10B       -1.1890    2.7200   -3.0600 hc        1 01T      0.071556
     35 H21        -1.5290    0.6340    3.3460 ha        1 01T      0.171500
     36 H22        -1.6840   -0.8880    5.1480 ha        1 01T      0.171500
     37 H24        -0.2530   -2.9910    6.1040 hc        1 01T      0.072667
     38 H24A       -0.1980   -4.2160    5.0760 hc        1 01T      0.072667
     39 H24B       -1.6100   -3.6700    5.5950 hc        1 01T      0.072667
     40 H26         0.3910   -2.2060    1.1120 ha        1 01T      0.124000
     41 H16         2.3860    0.7300    2.4280 ha        1 01T      0.087500
     42 H16A        0.9000    0.9970    2.9480 ha        1 01T      0.087500
     43 H2          3.4670    1.0150   -0.7730 hc        1 01T      0.126000
     44 H2A         3.4810    0.3810    0.6920 hc        1 01T      0.126000
     45 H1          3.1560   -1.7760   -0.3480 hc        1 01T      0.064000
     46 H1A         3.4330   -1.0610   -1.7540 hc        1 01T      0.064000
     47 H1B         4.5860   -1.1230   -0.6470 hc        1 01T      0.064000
     48 H9         -2.2960    1.2490   -4.7380 hc        1 01T      0.071556
     49 H9A        -1.4980   -0.0130   -5.3180 hc        1 01T      0.071556
     50 H9B        -1.0030    1.4710   -5.6560 hc        1 01T      0.071556
     51 H12        -2.9570   -0.4200    0.4750 h1        1 01T      0.090500
     52 H12A       -2.9600    0.1310   -1.0250 h1        1 01T      0.090500
     53 HN13       -3.5780    1.9490   -0.2850 hn        1 01T      0.141000
     54 HN1A       -3.5260    1.4480    1.1220 hn        1 01T      0.141000
     55 H25         0.2160   -3.7360    2.9050 ha        1 01T      0.114000
@<TRIPOS>BOND
     1    1    2 1   
     2    1   21 1   
     3    2    3 1   
     4    2   27 1   
     5    2   28 1   
     6    3    4 1   
     7    3    5 1   
     8    3   20 1   
     9    4   29 1   
    10    4   30 1   
    11    4   31 1   
    12    5   32 1   
    13    5   33 1   
    14    5   34 1   
    15    6   16 1   
    16    6   24 1   
    17    7   13 1   
    18    7   14 1   
    19    8   12 1   
    20    9   10 1   
    21    9   35 1   
    22   10   36 1   
    23   11   26 1   
    24   11   37 1   
    25   11   38 1   
    26   11   39 1   
    27   12   40 1   
    28   15   41 1   
    29   15   42 1   
    30   16   17 1   
    31   16   19 1   
    32   17   18 1   
    33   17   43 1   
    34   17   44 1   
    35   18   45 1   
    36   18   46 1   
    37   18   47 1   
    38   20   48 1   
    39   20   49 1   
    40   20   50 1   
    41   21   22 1   
    42   22   23 1   
    43   22   51 1   
    44   22   52 1   
    45   23   53 1   
    46   23   54 1   
    47   25   26 1   
    48   25   55 1   
@<TRIPOS>SUBSTRUCTURE
     1 01T         1 TEMP              0 ****  ****    0 ROOT
