@<TRIPOS>MOLECULE
01T
   55    56     1     0     0
SMALL
bcc


@<TRIPOS>ATOM
      1 C5         -2.0320   -0.1120   -0.2920 ca        1 01T      0.387600
      2 C6         -3.3330   -0.7810   -0.6570 c3        1 01T     -0.114700
      3 C7         -4.2230   -1.1590    0.5330 c3        1 01T     -0.046000
      4 C8         -4.5770    0.0650    1.3630 c3        1 01T     -0.084767
      5 C10        -5.5100   -1.7620   -0.0240 c3        1 01T     -0.084767
      6 C15         0.3100    1.2540    0.3390 ca        1 01T     -0.097600
      7 C17         2.0130    2.9230   -0.4940 c         1 01T      0.921600
      8 C20         1.6350   -0.8550    0.2250 cp        1 01T     -0.042000
      9 C21         1.8280   -1.8080    1.2350 ca        1 01T     -0.111500
     10 C22         3.0340   -2.4980    1.3330 ca        1 01T     -0.143500
     11 C26         2.6860   -0.5760   -0.6620 ca        1 01T     -0.111500
     12 O19         1.9560    4.1710   -0.3210 o         1 01T     -0.834800
     13 O18         2.4620    2.3660   -1.5350 o         1 01T     -0.834800
     14 C16         1.5300    2.0230    0.6750 c3        1 01T     -0.184100
     15 C3         -0.9580    1.8950    0.2230 ca        1 01T      0.415600
     16 C2         -1.0820    3.3890    0.3890 c3        1 01T     -0.129700
     17 C1         -1.1930    4.0760   -0.9520 c3        1 01T     -0.088100
     18 N4         -2.0900    1.2210   -0.0590 nb        1 01T     -0.687000
     19 C9         -3.5410   -2.1900    1.4190 c3        1 01T     -0.084767
     20 C11        -0.8150   -0.8300   -0.2460 ca        1 01T     -0.235600
     21 C12        -0.7490   -2.2810   -0.6370 c3        1 01T      0.192100
     22 N13        -0.5300   -2.5360   -2.0420 n3        1 01T     -0.901800
     23 C14         0.3590   -0.1350    0.1090 cp        1 01T     -0.017000
     24 C25         3.8870   -1.2740   -0.5620 ca        1 01T     -0.143500
     25 C23         4.0700   -2.2460    0.4280 ca        1 01T     -0.092300
     26 H6         -3.9260   -0.0910   -1.3210 hc        1 01T      0.047700
     27 H6A        -3.1280   -1.7050   -1.2570 hc        1 01T      0.047700
     28 H8         -4.8960    0.9050    0.7020 hc        1 01T      0.032478
     29 H8A        -5.4100   -0.1770    2.0670 hc        1 01T      0.032478
     30 H8B        -3.6960    0.3990    1.9620 hc        1 01T      0.032478
     31 H10        -5.2800   -2.6330   -0.6840 hc        1 01T      0.032478
     32 H10A       -6.1630   -2.1130    0.8110 hc        1 01T      0.032478
     33 H10B       -6.0680   -1.0000   -0.6180 hc        1 01T      0.032478
     34 H21         1.0240   -2.0070    1.9580 ha        1 01T      0.169000
     35 H22         3.1730   -3.2420    2.1300 ha        1 01T      0.122000
     36 H24         6.2100   -2.3330    0.2580 hc        1 01T      0.033367
     37 H24A        5.5050   -3.4010    1.5440 hc        1 01T      0.033367
     38 H24B        5.3360   -3.8520   -0.2030 hc        1 01T      0.033367
     39 H26         2.5710    0.2490   -1.3990 ha        1 01T      0.169000
     40 H16         1.3400    2.6730    1.5680 hc        1 01T      0.047200
     41 H16A        2.3780    1.3390    0.9350 hc        1 01T      0.047200
     42 H2         -1.9820    3.6260    1.0170 hc        1 01T      0.057700
     43 H2A        -0.1750    3.7930    0.9160 hc        1 01T      0.057700
     44 H1         -1.4060    5.1620   -0.7990 hc        1 01T      0.040367
     45 H1A        -0.2190    3.9830   -1.4990 hc        1 01T      0.040367
     46 H1B        -2.0100    3.6360   -1.5700 hc        1 01T      0.040367
     47 H9         -2.5160   -1.8410    1.6940 hc        1 01T      0.032478
     48 H9A        -4.1310   -2.3450    2.3530 hc        1 01T      0.032478
     49 H9B        -3.4570   -3.1690    0.8880 hc        1 01T      0.032478
     50 H12         0.0810   -2.7900   -0.0670 h1        1 01T      0.054200
     51 H12A       -1.7050   -2.7990   -0.3380 h1        1 01T      0.054200
     52 HN13       -1.2080   -2.0440   -2.5950 hn        1 01T      0.345300
     53 HN1A        0.3810   -2.2150   -2.3130 hn        1 01T      0.345300
     54 H25         4.7040   -1.0450   -1.2610 ha        1 01T      0.122000
     55 C24         5.3450   -2.9930    0.5150 c3        1 01T     -0.044800
@<TRIPOS>BOND
     1    1    2 1   
     2    1   18 ar  
     3    1   20 ar  
     4    2    3 1   
     5    2   26 1   
     6    2   27 1   
     7    3    4 1   
     8    3    5 1   
     9    3   19 1   
    10    4   28 1   
    11    4   29 1   
    12    4   30 1   
    13    5   31 1   
    14    5   32 1   
    15    5   33 1   
    16    6   14 1   
    17    6   15 ar  
    18    6   23 ar  
    19    7   12 1   
    20    7   13 1   
    21    7   14 1   
    22    8    9 ar  
    23    8   11 ar  
    24    8   23 1   
    25    9   10 ar  
    26    9   34 1   
    27   10   25 ar  
    28   10   35 1   
    29   11   24 ar  
    30   11   39 1   
    31   14   40 1   
    32   14   41 1   
    33   15   16 1   
    34   15   18 ar  
    35   16   17 1   
    36   16   42 1   
    37   16   43 1   
    38   17   44 1   
    39   17   45 1   
    40   17   46 1   
    41   19   47 1   
    42   19   48 1   
    43   19   49 1   
    44   20   21 1   
    45   20   23 ar  
    46   21   22 1   
    47   21   50 1   
    48   21   51 1   
    49   22   52 1   
    50   22   53 1   
    51   24   25 ar  
    52   24   54 1   
    53   25   55 1   
    54   36   55 1   
    55   37   55 1   
    56   38   55 1   
@<TRIPOS>SUBSTRUCTURE
     1 01T         1 TEMP              0 ****  ****    0 ROOT
