@<TRIPOS>MOLECULE
01U
   18    19     1     0     0
SMALL
bcc


@<TRIPOS>ATOM
      1 N25        -0.0080    0.1090    0.0560 nh        1 01U     -0.818200
      2 C26         1.3890    0.0380    0.0360 ca        1 01U      0.143600
      3 C31         2.1200   -0.0310    1.2370 ca        1 01U     -0.159000
      4 C30         3.5090   -0.0040    1.1960 ca        1 01U     -0.050100
      5 S34         4.6140   -0.0560    2.4760 ss        1 01U     -0.079100
      6 C33         5.9660    0.0120    1.3310 cc        1 01U      0.548100
      7 N35         7.2630    0.1030    1.8340 nh        1 01U     -0.852800
      8 N32         5.6070    0.0690    0.0460 nd        1 01U     -0.580100
      9 C29         4.2100    0.0770   -0.0510 ca        1 01U      0.069400
     10 C28         3.4710    0.1420   -1.2480 ca        1 01U     -0.049000
     11 C27         2.0910    0.1180   -1.2010 ca        1 01U     -0.180000
     12 H25        -0.4470   -0.1870   -0.7870 hn        1 01U      0.391300
     13 H31         1.6030   -0.0920    2.2060 ha        1 01U      0.139000
     14 H351        7.9780    0.1430    1.1360 hn        1 01U      0.400300
     15 H352        7.4520   -0.5820    2.5360 hn        1 01U      0.400300
     16 H28         3.9970    0.2100   -2.2130 ha        1 01U      0.150000
     17 H27         1.5230    0.1740   -2.1430 ha        1 01U      0.135000
     18 H2         -0.4290   -0.2700    0.8740 hn        1 01U      0.391300
@<TRIPOS>BOND
     1    1    2 1   
     2    1   12 1   
     3    1   18 1   
     4    2    3 ar  
     5    2   11 ar  
     6    3    4 ar  
     7    3   13 1   
     8    4    5 1   
     9    4    9 ar  
    10    5    6 1   
    11    6    7 1   
    12    6    8 2   
    13    7   14 1   
    14    7   15 1   
    15    8    9 1   
    16    9   10 ar  
    17   10   11 ar  
    18   10   16 1   
    19   11   17 1   
@<TRIPOS>SUBSTRUCTURE
     1 01U         1 TEMP              0 ****  ****    0 ROOT
