@<TRIPOS>MOLECULE
01U
   20    21     1     0     0
SMALL
bcc


@<TRIPOS>ATOM
      1 N25        -0.0430    0.0460    0.0300 n4        1 01U     -0.712000
      2 C26         1.4220    0.0180    0.0450 ca        1 01U     -0.011400
      3 C31         2.1080    0.0840    1.2560 ca        1 01U     -0.042000
      4 C30         3.5100    0.0550    1.2310 ca        1 01U     -0.118100
      5 S34         4.6060    0.1170    2.4970 ss        1 01U      0.268900
      6 C33         5.9220    0.0190    1.3860 cc        1 01U      0.311100
      7 N35         7.3200    0.0180    1.8000 n4        1 01U     -0.752600
      8 N32         5.5910   -0.0600    0.0830 nd        1 01U     -0.446100
      9 C29         4.2070   -0.0410   -0.0270 ca        1 01U      0.117400
     10 C28         3.4800   -0.1060   -1.2420 ca        1 01U     -0.001000
     11 C27         2.1020   -0.0770   -1.2010 ca        1 01U     -0.113000
     12 H25        -0.3670    0.8560   -0.5180 hn        1 01U      0.480467
     13 H31         1.5850    0.1580    2.2270 ha        1 01U      0.181000
     14 H351        7.8160    0.8170    1.3690 hn        1 01U      0.491800
     15 H352        7.7800   -0.8550    1.4900 hn        1 01U      0.491800
     16 H28         4.0180   -0.1800   -2.2070 ha        1 01U      0.212000
     17 H27         1.5370   -0.1280   -2.1500 ha        1 01U      0.188000
     18 H2         -0.3990   -0.8160   -0.4080 hn        1 01U      0.480467
     19 H253       -0.4180    0.1160    0.9850 hn        1 01U      0.480467
     20 H353        7.3810    0.0910    2.8240 hn        1 01U      0.491800
@<TRIPOS>BOND
     1    1    2 1   
     2    1   12 1   
     3    1   18 1   
     4    1   19 1   
     5    2    3 ar  
     6    2   11 ar  
     7    3    4 ar  
     8    3   13 1   
     9    4    5 1   
    10    4    9 ar  
    11    5    6 1   
    12    6    7 1   
    13    6    8 2   
    14    7   14 1   
    15    7   15 1   
    16    7   20 1   
    17    8    9 1   
    18    9   10 ar  
    19   10   11 ar  
    20   10   16 1   
    21   11   17 1   
@<TRIPOS>SUBSTRUCTURE
     1 01U         1 TEMP              0 ****  ****    0 ROOT
