@<TRIPOS>MOLECULE
01U
   18    19     1     0     0
SMALL
bcc


@<TRIPOS>ATOM
      1 N25         3.7780    0.7140   -0.1760 nh        1 01U     -0.817200
      2 C26         2.4860    0.1920   -0.0550 ca        1 01U      0.143600
      3 C31         1.3680    1.0470   -0.0110 ca        1 01U     -0.158000
      4 C30         0.0900    0.5040    0.0170 ca        1 01U     -0.050100
      5 S34        -1.4040    1.2960    0.0710 ss        1 01U     -0.079100
      6 C33        -2.2480   -0.2630    0.0630 cc        1 01U      0.548100
      7 N35        -3.6350   -0.2710    0.2030 nh        1 01U     -0.852800
      8 N32        -1.4470   -1.3310    0.0180 nd        1 01U     -0.580100
      9 C29        -0.1100   -0.9140    0.0060 ca        1 01U      0.070400
     10 C28         1.0130   -1.7630   -0.0280 ca        1 01U     -0.049000
     11 C27         2.2810   -1.2180   -0.0540 ca        1 01U     -0.180000
     12 H25         3.8780    1.6480    0.1530 hn        1 01U      0.390800
     13 H31         1.4980    2.1400   -0.0060 ha        1 01U      0.139000
     14 H351       -4.0890    0.3600   -0.4240 hn        1 01U      0.399800
     15 H352       -4.0480   -1.1830    0.1930 hn        1 01U      0.399800
     16 H28         0.8740   -2.8550   -0.0310 ha        1 01U      0.150000
     17 H27         3.1520   -1.8910   -0.0850 ha        1 01U      0.135000
     18 H2          4.4980    0.1050    0.1440 hn        1 01U      0.390800
@<TRIPOS>BOND
     1    1    2 1   
     2    1   12 1   
     3    1   18 1   
     4    2    3 ar  
     5    2   11 ar  
     6    3    4 ar  
     7    3   13 1   
     8    4    5 1   
     9    4    9 ar  
    10    5    6 1   
    11    6    7 1   
    12    6    8 2   
    13    7   14 1   
    14    7   15 1   
    15    8    9 1   
    16    9   10 ar  
    17   10   11 ar  
    18   10   16 1   
    19   11   17 1   
@<TRIPOS>SUBSTRUCTURE
     1 01U         1 TEMP              0 ****  ****    0 ROOT
