@<TRIPOS>MOLECULE
01U
   18    19     1     0     0
SMALL
bcc


@<TRIPOS>ATOM
      1 N25        -0.0090   -0.0970    0.0680 nv        1 01U     -0.817200
      2 C26         1.3880   -0.0270    0.0390 ca        1 01U      0.143600
      3 C31         2.1230    0.1290    1.2300 ca        1 01U     -0.158000
      4 C30         3.5110    0.1030    1.1870 ca        1 01U     -0.050100
      5 S34         4.6200    0.2670    2.4550 ss        1 01U     -0.079100
      6 C33         5.9690    0.0790    1.3190 cc        1 01U      0.548100
      7 N35         7.2690    0.2310    1.7980 nv        1 01U     -0.852800
      8 N32         5.6060   -0.1010    0.0470 nd        1 01U     -0.580100
      9 C29         4.2090   -0.0750   -0.0510 ca        1 01U      0.070400
     10 C28         3.4670   -0.2210   -1.2390 ca        1 01U     -0.049000
     11 C27         2.0870   -0.1940   -1.1900 ca        1 01U     -0.180000
     12 H25        -0.4270    0.3410    0.8580 hn        1 01U      0.390800
     13 H31         1.6080    0.2640    2.1930 ha        1 01U      0.139000
     14 H351        7.4430   -0.3120    2.6180 hn        1 01U      0.399800
     15 H352        7.9820    0.1150    1.1050 hn        1 01U      0.399800
     16 H28         3.9900   -0.3550   -2.1980 ha        1 01U      0.150000
     17 H27         1.5170   -0.3130   -2.1250 ha        1 01U      0.135000
     18 H2         -0.4490    0.1410   -0.7930 hn        1 01U      0.390800
@<TRIPOS>BOND
     1    1    2 1   
     2    1   12 1   
     3    1   18 1   
     4    2    3 ar  
     5    2   11 ar  
     6    3    4 ar  
     7    3   13 1   
     8    4    5 1   
     9    4    9 ar  
    10    5    6 1   
    11    6    7 1   
    12    6    8 2   
    13    7   14 1   
    14    7   15 1   
    15    8    9 1   
    16    9   10 ar  
    17   10   11 ar  
    18   10   16 1   
    19   11   17 1   
@<TRIPOS>SUBSTRUCTURE
     1 01U         1 TEMP              0 ****  ****    0 ROOT
