@<TRIPOS>MOLECULE
01U
   18    15     1     0     0
SMALL
bcc


@<TRIPOS>ATOM
      1 N25        -2.7210    1.1910   -1.1380 n3        1 01U     -0.327000
      2 C26        -1.3010    1.1910   -1.1380 c2        1 01U      0.062000
      3 C31        -0.8760    1.1910    0.1940 c2        1 01U     -0.159000
      4 C30         0.2320    0.4440    0.5690 c1        1 01U     -0.277000
      5 S34         0.9200    0.2260    1.9290 s         1 01U      0.372000
      6 C33         2.1010   -0.7360    1.7010 c1        1 01U     -0.116000
      7 N35         2.0780   -1.7660    2.6760 n2        1 01U     -0.291000
      8 N32         2.1280   -1.0740    0.3190 n2        1 01U     -0.153000
      9 C29         0.9360   -0.3220   -0.4050 c1        1 01U     -0.070000
     10 C28         0.5130   -0.3200   -1.7260 c1        1 01U     -0.049000
     11 C27        -0.6040    0.4330   -2.1010 c1        1 01U     -0.180000
     12 H25        -3.1770    1.9500   -1.3580 hn        1 01U      0.186500
     13 H31        -1.3390    1.7420    0.8530 ha        1 01U      0.139000
     14 H351        2.4640   -2.5720    2.4960 hn        1 01U      0.195500
     15 H352        1.7160   -1.6080    3.4980 hn        1 01U      0.195500
     16 H28         0.9950   -0.8440   -2.3930 ha        1 01U      0.150000
     17 H27        -0.8890    0.4500   -3.0350 ha        1 01U      0.135000
     18 H2         -3.1770    0.4260   -0.9420 hn        1 01U      0.186500
@<TRIPOS>BOND
     1    1    2 1   
     2    1   12 1   
     3    1   18 1   
     4    2    3 1   
     5    2   11 1   
     6    3    4 1   
     7    3   13 1   
     8    5    6 1   
     9    6    8 1   
    10    7   14 1   
    11    7   15 1   
    12    8    9 1   
    13    9   10 1   
    14   10   16 1   
    15   11   17 1   
@<TRIPOS>SUBSTRUCTURE
     1 01U         1 TEMP              0 ****  ****    0 ROOT
