@<TRIPOS>MOLECULE
01V
   17    15     1     0     0
SMALL
bcc


@<TRIPOS>ATOM
      1 N'          0.0540    0.1880   -2.6810 n3        1 01V     -0.335000
      2 CA'        -0.9450   -0.0610   -1.6970 c3        1 01V     -0.045000
      3 CB'        -0.3190   -0.0180   -0.3040 c2        1 01V     -0.107000
      4 CG'         0.2620   -1.1640    0.2330 c2        1 01V     -0.061000
      5 CD'         0.7750   -1.1450    1.5430 c1        1 01V     -0.116000
      6 CE'         0.7020    0.0020    2.2920 c1        1 01V     -0.116000
      7 CDB         0.1250    1.1390    1.7590 c1        1 01V     -0.062000
      8 CGB        -0.3920    1.1190    0.4370 c1        1 01V     -0.110000
      9 CL1         0.1800   -2.7340   -0.6880 cl        1 01V     -0.011000
     10 CL2         0.0130    2.5450    2.6900 cl        1 01V     -0.007000
     11 HN'         0.6560   -0.4520   -2.6590 hn        1 01V      0.148500
     12 HA11       -1.3510   -0.9700   -1.8530 h1        1 01V      0.105500
     13 HA12       -1.6380    0.6200   -1.7620 h1        1 01V      0.105500
     14 HD'         1.1680   -1.9190    1.9070 ha        1 01V      0.153000
     15 HE'         1.0710    0.0160    3.2350 ha        1 01V      0.154000
     16 HG'        -0.7890    1.8950    0.0730 ha        1 01V      0.154000
     17 H2          0.4290    0.9380   -2.5230 hn        1 01V      0.148500
@<TRIPOS>BOND
     1    1    2 1   
     2    1   11 1   
     3    1   17 1   
     4    2    3 1   
     5    2   12 1   
     6    2   13 1   
     7    3    4 1   
     8    3    8 1   
     9    4    5 1   
    10    4    9 1   
    11    5   14 1   
    12    6    7 1   
    13    6   15 1   
    14    7   10 1   
    15    8   16 1   
@<TRIPOS>SUBSTRUCTURE
     1 01V         1 TEMP              0 ****  ****    0 ROOT
