@<TRIPOS>MOLECULE
01V
   18    18     1     0     0
SMALL
bcc


@<TRIPOS>ATOM
      1 N'         -0.0020   -0.1600   -0.0940 n4        1 01V     -0.847600
      2 CA'         1.4650    0.1220    0.0300 c3        1 01V      0.171100
      3 CB'         1.9210    0.0720    1.4480 ca        1 01V     -0.175300
      4 CG'         1.9060   -1.1270    2.1810 ca        1 01V      0.016400
      5 CD'         2.4150   -1.1700    3.4800 ca        1 01V     -0.093000
      6 CE'         2.9370   -0.0140    4.0610 ca        1 01V     -0.070000
      7 CDB         2.9460    1.1870    3.3400 ca        1 01V      0.021400
      8 CGB         2.4380    1.2310    2.0360 ca        1 01V     -0.083000
      9 CL1         1.2630   -2.5470    1.4940 cl        1 01V     -0.079400
     10 CL2         3.5710    2.5900    4.0390 cl        1 01V     -0.018400
     11 HN'        -0.2870   -0.1190   -1.0760 hn        1 01V      0.462800
     12 HA11        1.6570    1.1390   -0.4200 hx        1 01V      0.120200
     13 HA12        2.0130   -0.6550   -0.5830 hx        1 01V      0.120200
     14 HD'         2.4110   -2.1160    4.0490 ha        1 01V      0.182000
     15 HE'         3.3440   -0.0520    5.0870 ha        1 01V      0.183000
     16 HG'         2.4620    2.1780    1.4720 ha        1 01V      0.163000
     17 H2         -0.2010   -1.1010    0.2810 hn        1 01V      0.462800
     18 H'3        -0.5400    0.5260    0.4440 hn        1 01V      0.462800
@<TRIPOS>BOND
     1    1    2 1   
     2    1   11 1   
     3    1   17 1   
     4    1   18 1   
     5    2    3 1   
     6    2   12 1   
     7    2   13 1   
     8    3    4 ar  
     9    3    8 ar  
    10    4    5 ar  
    11    4    9 1   
    12    5    6 ar  
    13    5   14 1   
    14    6    7 ar  
    15    6   15 1   
    16    7    8 ar  
    17    7   10 1   
    18    8   16 1   
@<TRIPOS>SUBSTRUCTURE
     1 01V         1 TEMP              0 ****  ****    0 ROOT
