@<TRIPOS>MOLECULE
01V
   18    18     1     0     0
SMALL
bcc


@<TRIPOS>ATOM
      1 N'         -0.0100   -0.1560   -0.0860 nz        1 01V     -0.847600
      2 CA'         1.4570    0.1230    0.0310 c3        1 01V      0.171100
      3 CB'         1.9210    0.0720    1.4470 ca        1 01V     -0.175300
      4 CG'         1.9070   -1.1270    2.1790 ca        1 01V      0.016400
      5 CD'         2.4220   -1.1730    3.4760 ca        1 01V     -0.093000
      6 CE'         2.9490   -0.0180    4.0540 ca        1 01V     -0.070000
      7 CDB         2.9570    1.1830    3.3350 ca        1 01V      0.021400
      8 CGB         2.4420    1.2290    2.0330 ca        1 01V     -0.083000
      9 Cl1         1.2580   -2.5460    1.4940 cl        1 01V     -0.079400
     10 Cl2         3.5890    2.5850    4.0320 cl        1 01V     -0.018400
     11 HN'        -0.3000   -0.1140   -1.0660 hn        1 01V      0.462800
     12 HA11        1.6490    1.1410   -0.4190 hx        1 01V      0.120200
     13 HA12        2.0010   -0.6540   -0.5850 hx        1 01V      0.120200
     14 HD'         2.4190   -2.1190    4.0440 ha        1 01V      0.182000
     15 HE'         3.3610   -0.0570    5.0790 ha        1 01V      0.183000
     16 HG'         2.4660    2.1770    1.4700 ha        1 01V      0.163000
     17 H2         -0.2090   -1.0970    0.2890 hn        1 01V      0.462800
     18 H'3        -0.5450    0.5300    0.4550 hn        1 01V      0.462800
@<TRIPOS>BOND
     1    1    2 1   
     2    1   11 1   
     3    1   17 1   
     4    1   18 1   
     5    2    3 1   
     6    2   12 1   
     7    2   13 1   
     8    3    4 ar  
     9    3    8 ar  
    10    4    5 ar  
    11    4    9 1   
    12    5    6 ar  
    13    5   14 1   
    14    6    7 ar  
    15    6   15 1   
    16    7    8 ar  
    17    7   10 1   
    18    8   16 1   
@<TRIPOS>SUBSTRUCTURE
     1 01V         1 TEMP              0 ****  ****    0 ROOT
