@<TRIPOS>MOLECULE
01V
   17    17     1     0     0
SMALL
bcc


@<TRIPOS>ATOM
      1 N'         -2.2310   -2.1660   -0.6810 n3        1 01V     -0.909800
      2 CA'        -1.5000   -1.7640    0.4970 c3        1 01V      0.205100
      3 CB'        -0.5410   -0.6360    0.2390 ca        1 01V     -0.075300
      4 CG'        -0.9880    0.6700   -0.0100 ca        1 01V      0.038400
      5 CD'        -0.0690    1.7040   -0.2290 ca        1 01V     -0.123000
      6 CE'         1.2980    1.4450   -0.1990 ca        1 01V     -0.114000
      7 CDB         1.7450    0.1430    0.0500 ca        1 01V      0.012400
      8 CGB         0.8340   -0.8920    0.2660 ca        1 01V     -0.116000
      9 CL1        -2.6440    1.0400   -0.0470 cl        1 01V     -0.068400
     10 CL2         3.4130   -0.1820    0.0890 cl        1 01V     -0.089400
     11 HN'        -1.6160   -2.3490   -1.4480 hn        1 01V      0.353800
     12 HA11       -2.2570   -1.4280    1.2660 h1        1 01V      0.038700
     13 HA12       -0.9200   -2.6200    0.9610 h1        1 01V      0.038700
     14 HD'        -0.4270    2.7270   -0.4250 ha        1 01V      0.152000
     15 HE'         2.0170    2.2590   -0.3710 ha        1 01V      0.152000
     16 HG'         1.1950   -1.9140    0.4610 ha        1 01V      0.150000
     17 H2         -2.7750   -2.9830   -0.4870 hn        1 01V      0.353800
@<TRIPOS>BOND
     1    1    2 1   
     2    1   11 1   
     3    1   17 1   
     4    2    3 1   
     5    2   12 1   
     6    2   13 1   
     7    3    4 ar  
     8    3    8 ar  
     9    4    5 ar  
    10    4    9 1   
    11    5    6 ar  
    12    5   14 1   
    13    6    7 ar  
    14    6   15 1   
    15    7    8 ar  
    16    7   10 1   
    17    8   16 1   
@<TRIPOS>SUBSTRUCTURE
     1 01V         1 TEMP              0 ****  ****    0 ROOT
