@<TRIPOS>MOLECULE
01V
   18    18     1     0     0
SMALL
bcc


@<TRIPOS>ATOM
      1 N'         -0.0110   -0.1470   -0.0850 n4        1 01V     -0.847600
      2 CA'         1.4590    0.1190    0.0310 c3        1 01V      0.171100
      3 CB'         1.9220    0.0690    1.4470 ca        1 01V     -0.175300
      4 CG'         1.8960   -1.1270    2.1840 ca        1 01V      0.016400
      5 CD'         2.4110   -1.1720    3.4810 ca        1 01V     -0.093000
      6 CE'         2.9490   -0.0200    4.0550 ca        1 01V     -0.070000
      7 CDB         2.9680    1.1780    3.3300 ca        1 01V      0.021400
      8 CGB         2.4540    1.2240    2.0290 ca        1 01V     -0.083000
      9 CL1         1.2340   -2.5420    1.5040 cl        1 01V     -0.079400
     10 CL2         3.6120    2.5770    4.0210 cl        1 01V     -0.018400
     11 HN'        -0.3000   -0.1050   -1.0660 hn        1 01V      0.462800
     12 HA11        1.6610    1.1330   -0.4240 hx        1 01V      0.120200
     13 HA12        1.9950   -0.6660   -0.5820 hx        1 01V      0.120200
     14 HD'         2.3990   -2.1160    4.0530 ha        1 01V      0.182000
     15 HE'         3.3600   -0.0590    5.0790 ha        1 01V      0.183000
     16 HG'         2.4860    2.1690    1.4610 ha        1 01V      0.163000
     17 H2         -0.2190   -1.0840    0.2930 hn        1 01V      0.462800
     18 H'3        -0.5390    0.5470    0.4530 hn        1 01V      0.462800
@<TRIPOS>BOND
     1    1    2 1   
     2    1   11 1   
     3    1   17 1   
     4    1   18 1   
     5    2    3 1   
     6    2   12 1   
     7    2   13 1   
     8    3    4 ar  
     9    3    8 ar  
    10    4    5 ar  
    11    4    9 1   
    12    5    6 ar  
    13    5   14 1   
    14    6    7 ar  
    15    6   15 1   
    16    7    8 ar  
    17    7   10 1   
    18    8   16 1   
@<TRIPOS>SUBSTRUCTURE
     1 01V         1 TEMP              0 ****  ****    0 ROOT
