@<TRIPOS>MOLECULE
01W
   32    32     1     0     0
SMALL
bcc


@<TRIPOS>ATOM
      1 O52        -5.1130   -2.3330   -0.4860 o         1 01W     -0.205500
      2 N5         -4.8740   -1.1700   -0.2930 no        1 01W      0.327200
      3 O5         -5.7410   -0.3470   -0.1730 o         1 01W     -0.205500
      4 C5         -3.4590   -0.7430   -0.1960 ca        1 01W     -0.259200
      5 C6         -2.4300   -1.7000   -0.3350 ca        1 01W      0.016000
      6 C7         -1.1160   -1.3100   -0.2430 ca        1 01W     -0.246000
      7 C4         -3.1460    0.5950    0.0300 ca        1 01W      0.045000
      8 C3         -1.8030    1.0020    0.1330 ca        1 01W     -0.290200
      9 N3         -1.5750    2.4430    0.3910 no        1 01W      0.328200
     10 O32        -2.5140    3.1890    0.3350 o         1 01W     -0.213000
     11 O3         -0.4720    2.8490    0.6640 o         1 01W     -0.213000
     12 C2         -0.7340    0.0520   -0.0090 ca        1 01W      0.307600
     13 N13         0.5820    0.3930    0.0780 nh        1 01W     -0.746600
     14 C1          1.6450   -0.5660   -0.0780 c3        1 01W      0.202800
     15 CB          3.0330    0.0760   -0.0440 c3        1 01W     -0.110400
     16 CA          4.1200   -0.9770   -0.0320 c3        1 01W     -0.089500
     17 N           4.3660   -1.5760    1.3140 n4        1 01W     -0.835600
     18 C           5.5090   -0.3320   -0.5770 c         1 01W      0.944600
     19 O           6.5100   -0.6100    0.1300 o         1 01W     -0.742300
     20 OXT         5.3980    0.3210   -1.6230 o         1 01W     -0.742300
     21 H6         -2.6890   -2.7590   -0.5190 ha        1 01W      0.178000
     22 H7         -0.3350   -2.0780   -0.3610 ha        1 01W      0.151000
     23 H4         -3.9600    1.3460    0.1310 ha        1 01W      0.207000
     24 HN13        0.8490    1.3500    0.1920 hn        1 01W      0.482800
     25 H11         1.5640   -1.3330    0.7470 h1        1 01W      0.039700
     26 H21         1.5260   -1.1100   -1.0610 h1        1 01W      0.039700
     27 H1B         3.1970    0.6890   -0.9790 hc        1 01W      0.099700
     28 H2B         3.1360    0.7780    0.8260 hc        1 01W      0.099700
     29 HA          3.8770   -1.8130   -0.7430 hx        1 01W      0.092700
     30 H1N         3.9880   -0.9820    2.0490 hn        1 01W      0.445467
     31 H2N         3.9730   -2.5080    1.3900 hn        1 01W      0.445467
     32 H3N         5.4110   -1.6160    1.4170 hn        1 01W      0.445467
@<TRIPOS>BOND
     1    1    2 1   
     2    2    3 1   
     3    2    4 1   
     4    4    5 ar  
     5    4    7 ar  
     6    5    6 ar  
     7    5   21 1   
     8    6   12 ar  
     9    6   22 1   
    10    7    8 ar  
    11    7   23 1   
    12    8    9 1   
    13    8   12 ar  
    14    9   10 1   
    15    9   11 1   
    16   12   13 1   
    17   13   14 1   
    18   13   24 1   
    19   14   15 1   
    20   14   25 1   
    21   14   26 1   
    22   15   16 1   
    23   15   27 1   
    24   15   28 1   
    25   16   17 1   
    26   16   18 1   
    27   16   29 1   
    28   17   30 1   
    29   17   31 1   
    30   17   32 1   
    31   18   19 1   
    32   18   20 1   
@<TRIPOS>SUBSTRUCTURE
     1 01W         1 TEMP              0 ****  ****    0 ROOT
