@<TRIPOS>MOLECULE
01X
   23    21     1     0     0
SMALL
bcc


@<TRIPOS>ATOM
      1 N'         -2.7150   -0.4980   -1.4220 n3        1 01X     -0.348000
      2 CA'        -1.2910   -0.5620   -1.4140 c3        1 01X     -0.021000
      3 CB'        -0.7960   -0.6010    0.0150 c2        1 01X     -0.141000
      4 CG'         0.1850    0.2840    0.4320 c2        1 01X      0.118000
      5 CD'         0.6590    0.2300    1.7330 c1        1 01X     -0.206000
      6 CE'         0.1520   -0.7090    2.6170 c1        1 01X     -0.099000
      7 CDB        -0.8300   -1.5940    2.2000 c1        1 01X     -0.114000
      8 CGB        -1.3040   -1.5400    0.8990 c1        1 01X     -0.098000
      9 CL         -1.4490   -2.7930    3.3040 cl        1 01X     -0.064000
     10 OL          0.6650    1.2680   -0.4500 os        1 01X     -0.191000
     11 CF          2.0080    1.0850   -0.8330 c3        1 01X     -0.112000
     12 CH          2.5950    2.4110   -1.2640 c2        1 01X      0.340000
     13 OH          1.9840    3.1270   -2.1000 o         1 01X     -0.557000
     14 H'         -3.0500   -1.1950   -1.9120 hn        1 01X      0.174500
     15 HA'1       -0.9270    0.2280   -1.8650 h1        1 01X      0.076500
     16 HA'2       -0.9980   -1.3700   -1.8830 h1        1 01X      0.076500
     17 HD'         1.3480    0.8550    2.0280 ha        1 01X      0.143000
     18 HE'         0.4860   -0.7480    3.5340 ha        1 01X      0.130000
     19 HG'        -1.9950   -2.1630    0.6050 ha        1 01X      0.135000
     20 HF1         2.5190    0.7330   -0.0750 h1        1 01X      0.070000
     21 HF2         2.0510    0.4510   -1.5780 h1        1 01X      0.070000
     22 H2         -2.9840    0.2940   -1.7950 hn        1 01X      0.174500
     23 OXT         3.6860    2.8050   -0.7760 o         1 01X     -0.557000
@<TRIPOS>BOND
     1    1    2 1   
     2    1   14 1   
     3    1   22 1   
     4    2    3 1   
     5    2   15 1   
     6    2   16 1   
     7    3    4 1   
     8    3    8 1   
     9    4    5 1   
    10    4   10 1   
    11    5   17 1   
    12    6    7 1   
    13    6   18 1   
    14    7    9 1   
    15    8   19 1   
    16   10   11 1   
    17   11   12 1   
    18   11   20 1   
    19   11   21 1   
    20   12   13 1   
    21   12   23 1   
@<TRIPOS>SUBSTRUCTURE
     1 01X         1 TEMP              0 ****  ****    0 ROOT
