@<TRIPOS>MOLECULE
01X
   23    23     1     0     0
SMALL
bcc


@<TRIPOS>ATOM
      1 N'         -0.7960   -2.8130    0.1620 n3        1 01X     -0.915800
      2 CA'         0.1430   -2.3040   -0.8000 c3        1 01X      0.223100
      3 CB'         0.7520   -0.9500   -0.5480 ca        1 01X     -0.148300
      4 CG'        -0.0700    0.1770   -0.3070 ca        1 01X      0.163100
      5 CD'         0.5020    1.4380   -0.0770 ca        1 01X     -0.206000
      6 CE'         1.8860    1.5880   -0.0940 ca        1 01X     -0.099000
      7 CDB         2.6950    0.4790   -0.3440 ca        1 01X     -0.035600
      8 CGB         2.1340   -0.7820   -0.5680 ca        1 01X     -0.098000
      9 CL          4.3940    0.6620   -0.3720 cl        1 01X     -0.142400
     10 OL         -1.4200   -0.0340   -0.3760 os        1 01X     -0.307900
     11 CF         -2.2460    0.8050    0.4460 c3        1 01X     -0.011600
     12 CH         -3.3910   -0.0750    1.0120 c         1 01X      0.920600
     13 OH         -3.1380   -1.2760    1.2950 o         1 01X     -0.822300
     14 H'         -0.4370   -2.7230    1.0920 hn        1 01X      0.379300
     15 HA'1        0.9820   -3.0550   -0.8860 h1        1 01X      0.037200
     16 HA'2       -0.3770   -2.2540   -1.8010 h1        1 01X      0.037200
     17 HD'        -0.1440    2.3060    0.1130 ha        1 01X      0.143000
     18 HE'         2.3330    2.5760    0.0850 ha        1 01X      0.130000
     19 HG'         2.7860   -1.6490   -0.7530 ha        1 01X      0.135000
     20 HF1        -1.6710    1.2350    1.3020 h1        1 01X      0.030700
     21 HF2        -2.6400    1.6250   -0.2050 h1        1 01X      0.030700
     22 H2         -1.6760   -2.3170    0.1240 hn        1 01X      0.379300
     23 OXT        -4.4930    0.5090    1.1870 o         1 01X     -0.822300
@<TRIPOS>BOND
     1    1    2 1   
     2    1   14 1   
     3    1   22 1   
     4    2    3 1   
     5    2   15 1   
     6    2   16 1   
     7    3    4 ar  
     8    3    8 ar  
     9    4    5 ar  
    10    4   10 1   
    11    5    6 ar  
    12    5   17 1   
    13    6    7 ar  
    14    6   18 1   
    15    7    8 ar  
    16    7    9 1   
    17    8   19 1   
    18   10   11 1   
    19   11   12 1   
    20   11   20 1   
    21   11   21 1   
    22   12   13 1   
    23   12   23 1   
@<TRIPOS>SUBSTRUCTURE
     1 01X         1 TEMP              0 ****  ****    0 ROOT
