@<TRIPOS>MOLECULE
01Y
   21    21     1     0     0
SMALL
bcc


@<TRIPOS>ATOM
      1 O32         0.0300    0.9410   -0.2750 o         1 01Y     -0.833800
      2 C14         0.7240   -0.0690    0.0210 c         1 01Y      0.924600
      3 C5          1.6850    0.0540    1.2330 c3        1 01Y      0.002400
      4 O21         0.9750   -0.3350    2.4060 os        1 01Y     -0.392600
      5 C44         1.7430   -0.1760    3.5900 c3        1 01Y      0.142100
      6 C49         1.0080   -0.9160    4.7150 c3        1 01Y     -0.097400
      7 C48         0.8800    0.0400    5.8910 c3        1 01Y     -0.073900
      8 C47         1.5650    1.3460    5.5090 c3        1 01Y     -0.073900
      9 C45         1.8440    1.2950    4.0160 c3        1 01Y     -0.097400
     10 H5          2.0340    1.1140    1.3390 h1        1 01Y      0.002700
     11 H5A         2.5710   -0.6200    1.0970 h1        1 01Y      0.002700
     12 H44         2.8530    1.7100    3.7800 hc        1 01Y      0.051200
     13 H49         2.7720   -0.6060    3.4390 h1        1 01Y      0.021700
     14 H49A        0.0000   -1.2400    4.3490 hc        1 01Y      0.051200
     15 H48         1.5760   -1.8340    5.0030 hc        1 01Y      0.051200
     16 H48A        1.3470   -0.3950    6.8100 hc        1 01Y      0.025950
     17 H47        -0.1990    0.2230    6.1230 hc        1 01Y      0.025950
     18 H47A        0.9200    2.2230    5.7640 hc        1 01Y      0.025950
     19 H45         2.5210    1.4610    6.0800 hc        1 01Y      0.025950
     20 H45A        1.0870    1.8930    3.4480 hc        1 01Y      0.051200
     21 OXT         0.7490   -1.1480   -0.6310 o         1 01Y     -0.833800
@<TRIPOS>BOND
     1    1    2 1   
     2    2    3 1   
     3    2   21 1   
     4    3    4 1   
     5    3   10 1   
     6    3   11 1   
     7    4    5 1   
     8    5    6 1   
     9    5    9 1   
    10    5   13 1   
    11    6    7 1   
    12    6   14 1   
    13    6   15 1   
    14    7    8 1   
    15    7   16 1   
    16    7   17 1   
    17    8    9 1   
    18    8   18 1   
    19    8   19 1   
    20    9   12 1   
    21    9   20 1   
@<TRIPOS>SUBSTRUCTURE
     1 01Y         1 TEMP              0 ****  ****    0 ROOT
