@<TRIPOS>MOLECULE
01Y
   21    21     1     0     0
SMALL
bcc


@<TRIPOS>ATOM
      1 O32        -2.7440    0.1240    1.5000 o         1 01Y     -0.833800
      2 C14        -2.5250   -0.0870    0.2770 c         1 01Y      0.924600
      3 C5         -1.2440    0.5370   -0.3380 c3        1 01Y      0.002400
      4 O21        -0.1800   -0.4010   -0.1960 os        1 01Y     -0.392600
      5 C44         1.0650    0.1110   -0.6530 c3        1 01Y      0.142100
      6 C49         2.0350   -1.0730   -0.7520 c3        1 01Y     -0.097400
      7 C48         3.3100   -0.6880   -0.0160 c3        1 01Y     -0.073900
      8 C47         3.1410    0.7350    0.5000 c3        1 01Y     -0.073900
      9 C45         1.6770    1.1070    0.3410 c3        1 01Y     -0.097400
     10 H5         -1.4020    0.7550   -1.4260 h1        1 01Y      0.002700
     11 H5A        -0.9840    1.4850    0.2000 h1        1 01Y      0.002700
     12 H44         0.9320    0.5990   -1.6570 h1        1 01Y      0.021700
     13 H49         1.5650   -1.9790   -0.2930 hc        1 01Y      0.051200
     14 H49A        2.2460   -1.3050   -1.8240 hc        1 01Y      0.051200
     15 H48         3.4890   -1.3890    0.8380 hc        1 01Y      0.025950
     16 H48A        4.1970   -0.7590   -0.6930 hc        1 01Y      0.025950
     17 H47         3.4580    0.8110    1.5690 hc        1 01Y      0.025950
     18 H47A        3.7870    1.4370   -0.0880 hc        1 01Y      0.025950
     19 H45         1.5630    2.1550   -0.0250 hc        1 01Y      0.051200
     20 H45A        1.1360    1.0260    1.3190 hc        1 01Y      0.051200
     21 OXT        -3.2980   -0.7080   -0.5020 o         1 01Y     -0.833800
@<TRIPOS>BOND
     1    1    2 1   
     2    2    3 1   
     3    2   21 1   
     4    3    4 1   
     5    3   10 1   
     6    3   11 1   
     7    4    5 1   
     8    5    6 1   
     9    5    9 1   
    10    5   12 1   
    11    6    7 1   
    12    6   13 1   
    13    6   14 1   
    14    7    8 1   
    15    7   15 1   
    16    7   16 1   
    17    8    9 1   
    18    8   17 1   
    19    8   18 1   
    20    9   19 1   
    21    9   20 1   
@<TRIPOS>SUBSTRUCTURE
     1 01Y         1 TEMP              0 ****  ****    0 ROOT
