@<TRIPOS>MOLECULE
01Y
   21    20     1     0     0
SMALL
bcc


@<TRIPOS>ATOM
      1 O32         1.4480   -2.5070    1.0380 o         1 01Y     -0.244500
      2 C14         1.8690   -1.5450    0.4760 c1        1 01Y      0.461000
      3 C5          1.2970    1.3300    1.8970 c3        1 01Y     -0.052000
      4 O21         1.1360   -0.0350    2.1650 os        1 01Y     -0.408000
      5 C44         1.4050   -0.4480    3.5650 c3        1 01Y      0.188000
      6 C49         0.1370   -0.1810    4.4050 c3        1 01Y     -0.164000
      7 C48         0.5530    0.7440    5.5450 c3        1 01Y     -0.145000
      8 C47         2.0580    1.0050    5.3850 c3        1 01Y      0.030000
      9 C45         2.4880    0.2260    4.2290 c2        1 01Y     -0.787000
     10 H5          0.2970    1.8380    1.9430 h1        1 01Y      0.043667
     11 H5A         1.7050    1.4120    0.8550 h1        1 01Y      0.043667
     12 H44         1.9990    1.8080    2.6300 h1        1 01Y      0.043667
     13 H49         1.5480   -1.5520    3.3710 h1        1 01Y      0.034000
     14 H49A       -0.6560    0.2900    3.7740 hc        1 01Y      0.046500
     15 H48        -0.2700   -1.1420    4.8030 hc        1 01Y      0.046500
     16 H48A       -0.0240    1.7010    5.5060 hc        1 01Y      0.032000
     17 H47         0.3360    0.2700    6.5350 hc        1 01Y      0.032000
     18 H47A        2.2370    2.1150    5.2760 hc        1 01Y     -0.023000
     19 H45         2.5990    0.7220    6.3340 hc        1 01Y     -0.023000
     20 H45A        3.5240    0.1100    3.9530 ha        1 01Y      0.090000
     21 OXT         2.3220   -0.6840   -0.2150 o         1 01Y     -0.244500
@<TRIPOS>BOND
     1    1    2 1   
     2    2   21 1   
     3    3    4 1   
     4    3   10 1   
     5    3   11 1   
     6    3   12 1   
     7    4    5 1   
     8    5    6 1   
     9    5    9 1   
    10    5   13 1   
    11    6    7 1   
    12    6   14 1   
    13    6   15 1   
    14    7    8 1   
    15    7   16 1   
    16    7   17 1   
    17    8    9 1   
    18    8   18 1   
    19    8   19 1   
    20    9   20 1   
@<TRIPOS>SUBSTRUCTURE
     1 01Y         1 TEMP              0 ****  ****    0 ROOT
