@<TRIPOS>MOLECULE
01Y
   21    20     1     0     0
SMALL
bcc


@<TRIPOS>ATOM
      1 O32        -1.4870    1.4850   -3.5290 o         1 01Y     -0.568500
      2 C14        -2.1050    1.1150   -2.4970 c1        1 01Y      0.344000
      3 C5         -1.4820    1.3090   -1.1320 c2        1 01Y     -0.098000
      4 O21        -0.5960    0.2480   -0.8650 os        1 01Y     -0.249000
      5 C44        -0.0310    0.3130    0.3150 c3        1 01Y      0.031000
      6 C49         1.5270    0.3330    0.1690 c3        1 01Y     -0.176500
      7 C48         1.9740   -0.6060    1.0350 c3        1 01Y     -0.152000
      8 C47         0.7710   -1.6930    1.1900 c3        1 01Y     -0.152000
      9 C45        -0.3670   -0.9950    1.1620 c3        1 01Y     -0.176500
     10 H5         -0.9910    2.1570   -1.1150 h4        1 01Y      0.042000
     11 H5A        -2.1860    1.3260   -0.4510 h4        1 01Y      0.042000
     12 H44        -0.3350    1.1100    0.7910 h1        1 01Y      0.061000
     13 H49         1.8800    1.2140    0.4110 hc        1 01Y      0.090750
     14 H49A        1.7860    0.1020   -0.7470 hc        1 01Y      0.090750
     15 H48         2.1720   -0.1970    1.9030 hc        1 01Y      0.064500
     16 H48A        2.7760   -1.0400    0.6770 hc        1 01Y      0.064500
     17 H47         0.8540   -2.1690    2.0430 hc        1 01Y      0.064500
     18 H47A        0.7940   -2.3300    0.4450 hc        1 01Y      0.064500
     19 H45        -0.6390   -0.7510    2.0710 hc        1 01Y      0.090750
     20 H45A       -1.0730   -1.5130    0.7230 hc        1 01Y      0.090750
     21 OXT        -3.2420    0.5830   -2.6000 o         1 01Y     -0.568500
@<TRIPOS>BOND
     1    1    2 1   
     2    2   21 1   
     3    3    4 1   
     4    3   10 1   
     5    3   11 1   
     6    4    5 1   
     7    5    6 1   
     8    5    9 1   
     9    5   12 1   
    10    6    7 1   
    11    6   13 1   
    12    6   14 1   
    13    7    8 1   
    14    7   15 1   
    15    7   16 1   
    16    8    9 1   
    17    8   17 1   
    18    8   18 1   
    19    9   19 1   
    20    9   20 1   
@<TRIPOS>SUBSTRUCTURE
     1 01Y         1 TEMP              0 ****  ****    0 ROOT
