@<TRIPOS>MOLECULE
01Y
   21    20     1     0     0
SMALL
bcc


@<TRIPOS>ATOM
      1 O32         1.4260   -2.5960    1.1230 o         1 01Y     -0.244500
      2 C14         1.8930   -1.6680    0.5400 c1        1 01Y      0.461000
      3 C5          1.4470    1.2640    1.8870 c3        1 01Y     -0.052000
      4 O21         1.2230   -0.0850    2.1890 os        1 01Y     -0.408000
      5 C44         1.4680   -0.4750    3.5990 c3        1 01Y      0.188000
      6 C49         0.2110   -0.1300    4.4280 c3        1 01Y     -0.164000
      7 C48         0.6660    0.8020    5.5460 c3        1 01Y     -0.145000
      8 C47         2.1820    0.9900    5.3860 c3        1 01Y      0.030000
      9 C45         2.5790    0.1650    4.2510 c2        1 01Y     -0.787000
     10 H5          0.4710    1.8180    1.9170 h1        1 01Y      0.043667
     11 H5A         2.1670    1.7270    2.6120 h1        1 01Y      0.043667
     12 H44         1.8610    1.3020    0.8460 h1        1 01Y      0.043667
     13 H49         1.5610   -1.5890    3.4330 h1        1 01Y      0.034000
     14 H49A       -0.2400   -1.0620    4.8470 hc        1 01Y      0.046500
     15 H48        -0.5570    0.3610    3.7810 hc        1 01Y      0.046500
     16 H48A        0.4250    0.3620    6.5460 hc        1 01Y      0.032000
     17 H47         0.1330    1.7830    5.4810 hc        1 01Y      0.032000
     18 H47A        2.7070    0.7070    6.3440 hc        1 01Y     -0.023000
     19 H45         2.4110    2.0880    5.2510 hc        1 01Y     -0.023000
     20 H45A        3.6100   -0.0060    3.9820 ha        1 01Y      0.090000
     21 OXT         2.3880   -0.8460   -0.1690 o         1 01Y     -0.244500
@<TRIPOS>BOND
     1    1    2 1   
     2    2   21 1   
     3    3    4 1   
     4    3   10 1   
     5    3   11 1   
     6    3   12 1   
     7    4    5 1   
     8    5    6 1   
     9    5    9 1   
    10    5   13 1   
    11    6    7 1   
    12    6   14 1   
    13    6   15 1   
    14    7    8 1   
    15    7   16 1   
    16    7   17 1   
    17    8    9 1   
    18    8   18 1   
    19    8   19 1   
    20    9   20 1   
@<TRIPOS>SUBSTRUCTURE
     1 01Y         1 TEMP              0 ****  ****    0 ROOT
