@<TRIPOS>MOLECULE
01Z
   24    24     1     0     0
SMALL
bcc


@<TRIPOS>ATOM
      1 O32        -3.3610    0.4560    1.1830 o         1 01Z     -0.833300
      2 C14        -2.9430   -0.0460    0.1050 c         1 01Z      0.924600
      3 C5         -1.5750    0.4550   -0.4330 c3        1 01Z      0.003400
      4 O21        -0.5580   -0.4040    0.0740 os        1 01Z     -0.393600
      5 C44         0.7470   -0.0380   -0.3620 c3        1 01Z      0.143100
      6 C49         1.6000   -1.3030   -0.2730 c3        1 01Z     -0.093900
      7 C48         3.0440   -1.0070   -0.6160 c3        1 01Z     -0.072400
      8 C47         3.6100    0.0870    0.2660 c3        1 01Z     -0.074400
      9 C46         2.7680    1.3440    0.1870 c3        1 01Z     -0.072400
     10 C45         1.3210    1.0620    0.5300 c3        1 01Z     -0.093900
     11 H5         -1.5680    0.4220   -1.5540 h1        1 01Z      0.001700
     12 H5A        -1.3890    1.5050   -0.0880 h1        1 01Z      0.001700
     13 H44         0.7210    0.3240   -1.4290 h1        1 01Z      0.021700
     14 H49         1.5240   -1.7180    0.7650 hc        1 01Z      0.051450
     15 H49A        1.1850   -2.0710   -0.9740 hc        1 01Z      0.051450
     16 H48         3.6550   -1.9390   -0.4970 hc        1 01Z      0.026950
     17 H48A        3.1170   -0.6930   -1.6910 hc        1 01Z      0.026950
     18 H47         3.6430   -0.2720    1.3280 hc        1 01Z      0.027700
     19 H47A        4.6620    0.3170   -0.0450 hc        1 01Z      0.027700
     20 H46         3.1780    2.1150    0.8910 hc        1 01Z      0.026950
     21 H46A        2.8310    1.7690   -0.8490 hc        1 01Z      0.026950
     22 H45         0.7100    1.9930    0.4080 hc        1 01Z      0.051450
     23 H45A        1.2310    0.7410    1.6000 hc        1 01Z      0.051450
     24 OXT        -3.5770   -0.8730   -0.6050 o         1 01Z     -0.833300
@<TRIPOS>BOND
     1    1    2 1   
     2    2    3 1   
     3    2   24 1   
     4    3    4 1   
     5    3   11 1   
     6    3   12 1   
     7    4    5 1   
     8    5    6 1   
     9    5   10 1   
    10    5   13 1   
    11    6    7 1   
    12    6   14 1   
    13    6   15 1   
    14    7    8 1   
    15    7   16 1   
    16    7   17 1   
    17    8    9 1   
    18    8   18 1   
    19    8   19 1   
    20    9   10 1   
    21    9   20 1   
    22    9   21 1   
    23   10   22 1   
    24   10   23 1   
@<TRIPOS>SUBSTRUCTURE
     1 01Z         1 TEMP              0 ****  ****    0 ROOT
