@<TRIPOS>MOLECULE
01Z
   24    23     1     0     0
SMALL
bcc


@<TRIPOS>ATOM
      1 O32         1.4250   -2.5060    1.0520 o         1 01Z     -0.246500
      2 C14         1.6740   -1.5120    0.4440 c1        1 01Z      0.462000
      3 C5          1.1880    1.2960    1.9920 c3        1 01Z     -0.049000
      4 O21         1.1520   -0.0760    2.2550 os        1 01Z     -0.421000
      5 C44         1.6700   -0.4890    3.6040 c3        1 01Z      0.204000
      6 C49         0.4650   -0.4200    4.5480 c3        1 01Z     -0.155000
      7 C48         0.8600   -0.0290    5.9540 c3        1 01Z     -0.129000
      8 C47         1.6310    1.2720    5.9360 c3        1 01Z     -0.142000
      9 C46         2.9260    1.1220    5.1520 c3        1 01Z      0.045000
     10 C45         2.8390    0.2130    4.0260 c2        1 01Z     -0.774000
     11 H5          1.4010    1.4170    0.8970 h1        1 01Z      0.041000
     12 H5A         0.1870    1.7490    2.2220 h1        1 01Z      0.041000
     13 H44         1.9810    1.8070    2.5990 h1        1 01Z      0.041000
     14 H49         1.8770   -1.5730    3.3400 h1        1 01Z      0.033000
     15 H49A       -0.0550   -1.4130    4.5660 hc        1 01Z      0.050500
     16 H48        -0.2690    0.3290    4.1480 hc        1 01Z      0.050500
     17 H48A        1.4990   -0.8330    6.4020 hc        1 01Z      0.046000
     18 H47        -0.0570    0.0720    6.5940 hc        1 01Z      0.046000
     19 H47A        0.9960    2.0690    5.4670 hc        1 01Z      0.037500
     20 H46         1.8480    1.5990    6.9870 hc        1 01Z      0.037500
     21 H46A        3.2570    2.1600    4.8370 hc        1 01Z     -0.024000
     22 H45         3.7320    0.7870    5.8770 hc        1 01Z     -0.024000
     23 H45A        3.7630    0.0210    3.4800 ha        1 01Z      0.076000
     24 OXT         1.9390   -0.6200   -0.3030 o         1 01Z     -0.246500
@<TRIPOS>BOND
     1    1    2 1   
     2    2   24 1   
     3    3    4 1   
     4    3   11 1   
     5    3   12 1   
     6    3   13 1   
     7    4    5 1   
     8    5    6 1   
     9    5   10 1   
    10    5   14 1   
    11    6    7 1   
    12    6   15 1   
    13    6   16 1   
    14    7    8 1   
    15    7   17 1   
    16    7   18 1   
    17    8    9 1   
    18    8   19 1   
    19    8   20 1   
    20    9   10 1   
    21    9   21 1   
    22    9   22 1   
    23   10   23 1   
@<TRIPOS>SUBSTRUCTURE
     1 01Z         1 TEMP              0 ****  ****    0 ROOT
