@<TRIPOS>MOLECULE
01Z
   24    23     1     0     0
SMALL
bcc


@<TRIPOS>ATOM
      1 O32        -0.4080   -0.3700    0.9140 o         1 01Z     -0.246500
      2 C14         0.4910   -1.1400    0.7660 c1        1 01Z      0.459000
      3 C5          1.8480    1.4120    2.0270 c3        1 01Z     -0.049000
      4 O21         1.9580    0.0280    2.1820 os        1 01Z     -0.422000
      5 C44         2.2320   -0.4560    3.5830 c3        1 01Z      0.206000
      6 C49         0.8520   -0.7390    4.1900 c3        1 01Z     -0.164000
      7 C48         0.7770   -0.3870    5.6580 c3        1 01Z     -0.127000
      8 C47         1.2510    1.0320    5.8840 c3        1 01Z     -0.143000
      9 C46         2.7160    1.1720    5.4990 c3        1 01Z      0.042000
     10 C45         3.0970    0.3860    4.3410 c2        1 01Z     -0.767000
     11 H5          0.7650    1.6860    1.9170 h1        1 01Z      0.039667
     12 H5A         2.3900    1.6890    1.0840 h1        1 01Z      0.039667
     13 H44         2.2970    1.9600    2.8970 h1        1 01Z      0.039667
     14 H49         2.7190   -1.4380    3.2900 h1        1 01Z      0.033000
     15 H49A        0.0810   -0.1490    3.6250 hc        1 01Z      0.051000
     16 H48         0.6000   -1.8230    4.0570 hc        1 01Z      0.051000
     17 H48A        1.4220   -1.0900    6.2470 hc        1 01Z      0.045500
     18 H47        -0.2770   -0.5060    6.0240 hc        1 01Z      0.045500
     19 H47A        1.1020    1.3160    6.9590 hc        1 01Z      0.039500
     20 H46         0.6300    1.7310    5.2660 hc        1 01Z      0.039500
     21 H46A        2.9290    2.2760    5.3530 hc        1 01Z     -0.022500
     22 H45         3.3410    0.8890    6.4020 hc        1 01Z     -0.022500
     23 H45A        4.1460    0.4230    4.0470 ha        1 01Z      0.079000
     24 OXT         1.2820   -1.9930    0.5040 o         1 01Z     -0.246500
@<TRIPOS>BOND
     1    1    2 1   
     2    2   24 1   
     3    3    4 1   
     4    3   11 1   
     5    3   12 1   
     6    3   13 1   
     7    4    5 1   
     8    5    6 1   
     9    5   10 1   
    10    5   14 1   
    11    6    7 1   
    12    6   15 1   
    13    6   16 1   
    14    7    8 1   
    15    7   17 1   
    16    7   18 1   
    17    8    9 1   
    18    8   19 1   
    19    8   20 1   
    20    9   10 1   
    21    9   21 1   
    22    9   22 1   
    23   10   23 1   
@<TRIPOS>SUBSTRUCTURE
     1 01Z         1 TEMP              0 ****  ****    0 ROOT
