@<TRIPOS>MOLECULE
01Z
   24    23     1     0     0
SMALL
bcc


@<TRIPOS>ATOM
      1 O32        -2.9830   -2.0990   -2.3190 o         1 01Z     -0.568500
      2 C14        -1.7240   -2.0990   -2.3190 c1        1 01Z      0.344000
      3 C5         -0.9670   -2.0990   -1.0090 c2        1 01Z     -0.098000
      4 O21        -0.5590   -0.7870   -0.7020 os        1 01Z     -0.249000
      5 C44         0.1640   -0.6780    0.5160 c3        1 01Z      0.029000
      6 C49        -0.5950    0.2380    1.4560 c3        1 01Z     -0.161500
      7 C48        -0.5920    1.6770    0.9890 c3        1 01Z     -0.153000
      8 C47         0.8050    2.1850    0.6860 c3        1 01Z     -0.148000
      9 C46         1.5640    1.2690   -0.2530 c3        1 01Z     -0.153000
     10 C45         1.5620   -0.1690    0.2140 c3        1 01Z     -0.161500
     11 H5         -0.1820   -2.6750   -1.0860 h4        1 01Z      0.041000
     12 H5A        -1.5470   -2.4340   -0.2980 h4        1 01Z      0.041000
     13 H44         0.2310   -1.5630    0.9230 h1        1 01Z      0.059000
     14 H49        -0.1850    0.1920    2.3410 hc        1 01Z      0.073000
     15 H49A       -1.5190   -0.0710    1.5200 hc        1 01Z      0.073000
     16 H48        -1.1350    1.7470    0.1810 hc        1 01Z      0.084500
     17 H48A       -0.9870    2.2350    1.6850 hc        1 01Z      0.084500
     18 H47         1.3010    2.2600    1.5230 hc        1 01Z      0.059500
     19 H47A        0.7370    3.0700    0.2790 hc        1 01Z      0.059500
     20 H46         1.1540    1.3150   -1.1380 hc        1 01Z      0.084500
     21 H46A        2.4880    1.5790   -0.3170 hc        1 01Z      0.084500
     22 H45         2.1050   -0.2400    1.0220 hc        1 01Z      0.073000
     23 H45A        1.9570   -0.7280   -0.4820 hc        1 01Z      0.073000
     24 OXT        -1.0940   -2.1220   -3.4090 o         1 01Z     -0.568500
@<TRIPOS>BOND
     1    1    2 1   
     2    2   24 1   
     3    3    4 1   
     4    3   11 1   
     5    3   12 1   
     6    4    5 1   
     7    5    6 1   
     8    5   10 1   
     9    5   13 1   
    10    6    7 1   
    11    6   14 1   
    12    6   15 1   
    13    7    8 1   
    14    7   16 1   
    15    7   17 1   
    16    8    9 1   
    17    8   18 1   
    18    8   19 1   
    19    9   10 1   
    20    9   20 1   
    21    9   21 1   
    22   10   22 1   
    23   10   23 1   
@<TRIPOS>SUBSTRUCTURE
     1 01Z         1 TEMP              0 ****  ****    0 ROOT
