@<TRIPOS>MOLECULE
01Z
   24    24     1     0     0
SMALL
bcc


@<TRIPOS>ATOM
      1 O32         0.3290    0.7370   -0.5030 o         1 01Z     -0.833300
      2 C14         0.8840   -0.2820   -0.0100 c         1 01Z      0.924600
      3 C5          1.7710   -0.0740    1.2470 c3        1 01Z      0.003400
      4 O21         0.9560   -0.2610    2.4000 os        1 01Z     -0.393600
      5 C44         1.6720   -0.0980    3.6200 c3        1 01Z      0.143100
      6 C49         0.8980   -0.8810    4.6800 c3        1 01Z     -0.093900
      7 C48         1.5150   -0.6920    6.0490 c3        1 01Z     -0.072400
      8 C47         1.6030    0.7740    6.4200 c3        1 01Z     -0.074400
      9 C46         2.3650    1.5590    5.3720 c3        1 01Z     -0.072400
     10 C45         1.7570    1.3810    3.9980 c3        1 01Z     -0.093900
     11 H5          2.1960    0.9630    1.2490 h1        1 01Z      0.001700
     12 H5A         2.6070   -0.8220    1.2550 h1        1 01Z      0.001700
     13 H44         2.3720    1.9220    3.2340 hc        1 01Z      0.051450
     14 H49         2.7130   -0.5180    3.5270 h1        1 01Z      0.021700
     15 H49A       -0.1670   -0.5320    4.6820 hc        1 01Z      0.051450
     16 H48         0.8960   -1.9660    4.4020 hc        1 01Z      0.051450
     17 H48A        0.9010   -1.2360    6.8140 hc        1 01Z      0.026950
     18 H47         2.5430   -1.1410    6.0620 hc        1 01Z      0.026950
     19 H47A        2.1080    0.8830    7.4150 hc        1 01Z      0.027700
     20 H46         0.5680    1.1950    6.5190 hc        1 01Z      0.027700
     21 H46A        3.4340    1.2160    5.3560 hc        1 01Z      0.026950
     22 H45         2.3660    2.6460    5.6450 hc        1 01Z      0.026950
     23 H45A        0.7260    1.8190    3.9700 hc        1 01Z      0.051450
     24 OXT         0.8290   -1.4450   -0.4950 o         1 01Z     -0.833300
@<TRIPOS>BOND
     1    1    2 1   
     2    2    3 1   
     3    2   24 1   
     4    3    4 1   
     5    3   11 1   
     6    3   12 1   
     7    4    5 1   
     8    5    6 1   
     9    5   10 1   
    10    5   14 1   
    11    6    7 1   
    12    6   15 1   
    13    6   16 1   
    14    7    8 1   
    15    7   17 1   
    16    7   18 1   
    17    8    9 1   
    18    8   19 1   
    19    8   20 1   
    20    9   10 1   
    21    9   21 1   
    22    9   22 1   
    23   10   13 1   
    24   10   23 1   
@<TRIPOS>SUBSTRUCTURE
     1 01Z         1 TEMP              0 ****  ****    0 ROOT
