@<TRIPOS>MOLECULE
020
   29    30     1     0     0
SMALL
bcc


@<TRIPOS>ATOM
      1 FAB         0.1980   -0.4710   -0.4430 f         1 020     -0.235633
      2 CAC         1.3830    0.0130    0.0560 c3        1 020      0.699200
      3 FAG         1.1170    0.2320    1.3870 f         1 020     -0.235633
      4 FAA         2.2210   -1.0750    0.0560 f         1 020     -0.235633
      5 CAD         1.9200    1.2300   -0.6800 ca        1 020     -0.253300
      6 CAE         1.0240    2.1590   -1.2330 ca        1 020      0.006000
      7 CAF         1.4920    3.2720   -1.8910 ca        1 020     -0.241000
      8 CAH         3.2840    1.4340   -0.7940 ca        1 020      0.032000
      9 CAI         3.7900    2.5700   -1.4610 ca        1 020     -0.289200
     10 NAQ         5.2620    2.6930   -1.5170 no        1 020      0.328200
     11 OAR         5.9280    1.8050   -1.0520 o         1 020     -0.221500
     12 OAP         5.7840    3.6610   -2.0110 o         1 020     -0.221500
     13 CAJ         2.8950    3.5310   -2.0420 ca        1 020      0.302600
     14 NAK         3.3210    4.6290   -2.7280 nh        1 020     -0.748600
     15 CAL         2.4020    5.6000   -3.2730 c3        1 020      0.191500
     16 CAM         3.0900    6.7060   -3.9790 cc        1 020      0.193000
     17 CAS         3.0490    7.1730   -5.2780 cd        1 020     -0.216300
     18 OAN         3.9480    7.5030   -3.2080 os        1 020     -0.356800
     19 CAO         4.4420    8.4860   -4.0620 cc        1 020      0.262600
     20 CAT         3.9200    8.3260   -5.3310 cd        1 020     -0.269300
     21 HAE        -0.0620    1.9850   -1.1370 ha        1 020      0.158000
     22 HAF         0.7620    3.9820   -2.3100 ha        1 020      0.150000
     23 HAH         3.9870    0.6960   -0.3600 ha        1 020      0.187000
     24 HNAK        4.2950    4.8550   -2.7750 hn        1 020      0.485800
     25 HAL         1.7740    6.0380   -2.4390 h1        1 020      0.066700
     26 HALA        1.7110    5.0930   -4.0110 h1        1 020      0.066700
     27 HAS         2.4820    6.7670   -6.1120 ha        1 020      0.166000
     28 HAO         5.1350    9.1790   -3.5930 h4        1 020      0.061100
     29 HAT         4.1140    8.9330   -6.2100 ha        1 020      0.169000
@<TRIPOS>BOND
     1    1    2 1   
     2    2    3 1   
     3    2    4 1   
     4    2    5 1   
     5    5    6 ar  
     6    5    8 ar  
     7    6    7 ar  
     8    6   21 1   
     9    7   13 ar  
    10    7   22 1   
    11    8    9 ar  
    12    8   23 1   
    13    9   10 1   
    14    9   13 ar  
    15   10   11 1   
    16   10   12 1   
    17   13   14 1   
    18   14   15 1   
    19   14   24 1   
    20   15   16 1   
    21   15   25 1   
    22   15   26 1   
    23   16   17 2   
    24   16   18 1   
    25   17   20 1   
    26   17   27 1   
    27   18   19 1   
    28   19   20 2   
    29   19   28 1   
    30   20   29 1   
@<TRIPOS>SUBSTRUCTURE
     1 020         1 TEMP              0 ****  ****    0 ROOT
