@<TRIPOS>MOLECULE
020
   29    30     1     0     0
SMALL
bcc


@<TRIPOS>ATOM
      1 FAB         0.2060   -0.4820   -0.4560 f         1 020     -0.235633
      2 CAC         1.3850    0.0100    0.0510 c3        1 020      0.699200
      3 FAG         1.1080    0.2300    1.3800 f         1 020     -0.235633
      4 FAA         2.2290   -1.0740    0.0600 f         1 020     -0.235633
      5 CAD         1.9220    1.2270   -0.6830 ca        1 020     -0.253300
      6 CAE         1.0250    2.1510   -1.2440 ca        1 020      0.006000
      7 CAF         1.4920    3.2660   -1.9000 ca        1 020     -0.241000
      8 CAH         3.2850    1.4380   -0.7870 ca        1 020      0.032000
      9 CAI         3.7900    2.5750   -1.4520 ca        1 020     -0.289200
     10 NAQ         5.2620    2.7060   -1.4980 no        1 020      0.328200
     11 OAR         5.9290    1.8220   -1.0270 o         1 020     -0.221500
     12 OAP         5.7830    3.6760   -1.9900 o         1 020     -0.221500
     13 CAJ         2.8960    3.5310   -2.0410 ca        1 020      0.302600
     14 NAK         3.3210    4.6310   -2.7260 nh        1 020     -0.748600
     15 CAL         2.4010    5.5960   -3.2800 c3        1 020      0.191500
     16 CAM         3.0880    6.7040   -3.9820 cc        1 020      0.193000
     17 CAS         3.0550    7.1690   -5.2820 cd        1 020     -0.216300
     18 OAN         3.9370    7.5070   -3.2060 os        1 020     -0.356800
     19 CAO         4.4320    8.4910   -4.0580 cc        1 020      0.262600
     20 CAT         3.9200    8.3270   -5.3300 cd        1 020     -0.269300
     21 HAE        -0.0610    1.9720   -1.1560 ha        1 020      0.158000
     22 HAF         0.7620    3.9710   -2.3260 ha        1 020      0.150000
     23 HAH         3.9890    0.7040   -0.3470 ha        1 020      0.187000
     24 HNAK        4.2930    4.8610   -2.7660 hn        1 020      0.485800
     25 HAL         1.7180    5.0840   -4.0220 h1        1 020      0.066700
     26 HALA        1.7640    6.0320   -2.4510 h1        1 020      0.066700
     27 HAS         2.4950    6.7600   -6.1190 ha        1 020      0.166000
     28 HAO         5.1190    9.1880   -3.5840 h4        1 020      0.061100
     29 HAT         4.1170    8.9340   -6.2090 ha        1 020      0.169000
@<TRIPOS>BOND
     1    1    2 1   
     2    2    3 1   
     3    2    4 1   
     4    2    5 1   
     5    5    6 ar  
     6    5    8 ar  
     7    6    7 ar  
     8    6   21 1   
     9    7   13 ar  
    10    7   22 1   
    11    8    9 ar  
    12    8   23 1   
    13    9   10 1   
    14    9   13 ar  
    15   10   11 1   
    16   10   12 1   
    17   13   14 1   
    18   14   15 1   
    19   14   24 1   
    20   15   16 1   
    21   15   25 1   
    22   15   26 1   
    23   16   17 2   
    24   16   18 1   
    25   17   20 1   
    26   17   27 1   
    27   18   19 1   
    28   19   20 2   
    29   19   28 1   
    30   20   29 1   
@<TRIPOS>SUBSTRUCTURE
     1 020         1 TEMP              0 ****  ****    0 ROOT
