@<TRIPOS>MOLECULE
020
   29    30     1     0     0
SMALL
bcc


@<TRIPOS>ATOM
      1 FAB        -4.5830   -1.6520    0.6160 f         1 020     -0.235633
      2 CAC        -4.1060   -0.5680   -0.0810 c3        1 020      0.699200
      3 FAG        -4.6090   -0.7400   -1.3480 f         1 020     -0.235633
      4 FAA        -4.8160    0.4960    0.4200 f         1 020     -0.235633
      5 CAD        -2.5960   -0.4060   -0.0260 ca        1 020     -0.253300
      6 CAE        -1.7760   -1.5450    0.0350 ca        1 020      0.006000
      7 CAF        -0.4080   -1.4180    0.0710 ca        1 020     -0.241000
      8 CAH        -2.0240    0.8540   -0.0530 ca        1 020      0.032000
      9 CAI        -0.6230    1.0120   -0.0200 ca        1 020     -0.289200
     10 NAQ        -0.1200    2.4010   -0.0610 no        1 020      0.328200
     11 OAR        -0.9200    3.2990   -0.0600 o         1 020     -0.221500
     12 OAP         1.0640    2.6310   -0.1000 o         1 020     -0.221500
     13 CAJ         0.2370   -0.1360    0.0500 ca        1 020      0.302600
     14 NAK         1.5960   -0.0500    0.1190 nh        1 020     -0.748600
     15 CAL         2.4410   -1.2200    0.1550 c3        1 020      0.191500
     16 CAM         3.8810   -0.8830    0.2310 cc        1 020      0.193000
     17 CAS         4.8740   -1.1650    1.1500 cd        1 020     -0.216300
     18 OAN         4.4130   -0.1600   -0.8460 os        1 020     -0.356800
     19 CAO         5.7700    0.0030   -0.5750 cc        1 020      0.262600
     20 CAT         6.0950   -0.5960    0.6260 cd        1 020     -0.269300
     21 HAE        -2.2430   -2.5450    0.0580 ha        1 020      0.158000
     22 HAF         0.2050   -2.3320    0.1170 ha        1 020      0.150000
     23 HAH        -2.6750    1.7510   -0.0970 ha        1 020      0.187000
     24 HNAK        2.0550    0.8350    0.0320 hn        1 020      0.485800
     25 HAL         2.1810   -1.8460    1.0600 h1        1 020      0.066700
     26 HALA        2.2640   -1.8430   -0.7730 h1        1 020      0.066700
     27 HAS         4.7750   -1.7050    2.0880 ha        1 020      0.166000
     28 HAO         6.3130    0.5600   -1.3340 h4        1 020      0.061100
     29 HAT         7.0700   -0.6390    1.1040 ha        1 020      0.169000
@<TRIPOS>BOND
     1    1    2 1   
     2    2    3 1   
     3    2    4 1   
     4    2    5 1   
     5    5    6 ar  
     6    5    8 ar  
     7    6    7 ar  
     8    6   21 1   
     9    7   13 ar  
    10    7   22 1   
    11    8    9 ar  
    12    8   23 1   
    13    9   10 1   
    14    9   13 ar  
    15   10   11 1   
    16   10   12 1   
    17   13   14 1   
    18   14   15 1   
    19   14   24 1   
    20   15   16 1   
    21   15   25 1   
    22   15   26 1   
    23   16   17 2   
    24   16   18 1   
    25   17   20 1   
    26   17   27 1   
    27   18   19 1   
    28   19   20 2   
    29   19   28 1   
    30   20   29 1   
@<TRIPOS>SUBSTRUCTURE
     1 020         1 TEMP              0 ****  ****    0 ROOT
