@<TRIPOS>MOLECULE
020
   29    30     1     0     0
SMALL
bcc


@<TRIPOS>ATOM
      1 FAB         0.2000   -0.4790   -0.4590 f         1 020     -0.235633
      2 CAC         1.3840    0.0060    0.0440 c3        1 020      0.699200
      3 FAG         1.1160    0.2200    1.3750 f         1 020     -0.235633
      4 FAA         2.2230   -1.0820    0.0410 f         1 020     -0.235633
      5 CAD         1.9210    1.2240   -0.6880 ca        1 020     -0.253300
      6 CAE         1.0240    2.1550   -1.2400 ca        1 020      0.006000
      7 CAF         1.4920    3.2700   -1.8940 ca        1 020     -0.241000
      8 CAH         3.2840    1.4300   -0.8000 ca        1 020      0.032000
      9 CAI         3.7900    2.5680   -1.4630 ca        1 020     -0.289200
     10 NAQ         5.2620    2.6930   -1.5180 no        1 020      0.328200
     11 OAR         5.9290    1.8040   -1.0570 o         1 020     -0.221500
     12 OAP         5.7840    3.6640   -2.0070 o         1 020     -0.221500
     13 CAJ         2.8950    3.5300   -2.0420 ca        1 020      0.302600
     14 NAK         3.3210    4.6310   -2.7250 nu        1 020     -0.748600
     15 CAL         2.4020    5.6020   -3.2700 c3        1 020      0.191500
     16 CAM         3.0890    6.7100   -3.9720 cc        1 020      0.193000
     17 CAS         3.0490    7.1800   -5.2700 cd        1 020     -0.216300
     18 OAN         3.9460    7.5060   -3.1980 os        1 020     -0.356800
     19 CAO         4.4400    8.4910   -4.0500 cc        1 020      0.262600
     20 CAT         3.9190    8.3350   -5.3190 cd        1 020     -0.269300
     21 HAE        -0.0610    1.9790   -1.1460 ha        1 020      0.158000
     22 HAF         0.7620    3.9800   -2.3120 ha        1 020      0.150000
     23 HAH         3.9880    0.6910   -0.3680 ha        1 020      0.187000
     24 HNAK        4.2940    4.8570   -2.7700 hn        1 020      0.485800
     25 HAL         1.7120    5.0960   -4.0090 h1        1 020      0.066700
     26 HALA        1.7720    6.0380   -2.4350 h1        1 020      0.066700
     27 HAS         2.4830    6.7760   -6.1050 ha        1 020      0.166000
     28 HAO         5.1320    9.1840   -3.5780 h4        1 020      0.061100
     29 HAT         4.1130    8.9440   -6.1970 ha        1 020      0.169000
@<TRIPOS>BOND
     1    1    2 1   
     2    2    3 1   
     3    2    4 1   
     4    2    5 1   
     5    5    6 ar  
     6    5    8 ar  
     7    6    7 ar  
     8    6   21 1   
     9    7   13 ar  
    10    7   22 1   
    11    8    9 ar  
    12    8   23 1   
    13    9   10 1   
    14    9   13 ar  
    15   10   11 1   
    16   10   12 1   
    17   13   14 1   
    18   14   15 1   
    19   14   24 1   
    20   15   16 1   
    21   15   25 1   
    22   15   26 1   
    23   16   17 2   
    24   16   18 1   
    25   17   20 1   
    26   17   27 1   
    27   18   19 1   
    28   19   20 2   
    29   19   28 1   
    30   20   29 1   
@<TRIPOS>SUBSTRUCTURE
     1 020         1 TEMP              0 ****  ****    0 ROOT
