@<TRIPOS>MOLECULE
020
   29    25     1     0     0
SMALL
bcc


@<TRIPOS>ATOM
      1 FAB        -2.5980    4.1420    2.1270 f         1 020     -0.163333
      2 CAC        -1.2980    3.9810    2.4090 c3        1 020      0.477000
      3 FAG        -1.1450    3.8130    3.7280 f         1 020     -0.163333
      4 FAA        -0.6190    5.0660    2.0150 f         1 020     -0.163333
      5 CAD        -0.7710    2.7640    1.6810 c2        1 020     -0.234000
      6 CAE        -1.6550    1.8380    1.1480 c2        1 020     -0.002000
      7 CAF        -1.1720    0.7240    0.4800 c1        1 020     -0.225000
      8 CAH         0.5950    2.5750    1.5460 c1        1 020      0.023000
      9 CAI         1.0780    1.4610    0.8780 c1        1 020     -0.227000
     10 NAQ         2.4770    1.2420    0.7820 no        1 020      0.581000
     11 OAR         3.3350    1.9640    1.5620 o         1 020     -0.368000
     12 OAP         2.9120    0.3900    0.0220 o         1 020     -0.368000
     13 CAJ         0.1950    0.5350    0.3450 c1        1 020      0.205000
     14 NAK         0.6890   -0.6150   -0.3230 n3        1 020     -0.293000
     15 CAL         0.1710   -0.9760   -1.5970 c3        1 020      0.035000
     16 CAM         0.1720   -2.4820   -1.7340 c2        1 020     -0.107000
     17 CAS        -0.7910   -3.2390   -2.3710 c1        1 020     -0.167000
     18 OAN         1.1380   -3.3330   -1.2640 os        1 020     -0.097000
     19 CAO         0.7800   -4.6120   -1.6060 c1        1 020     -0.074000
     20 CAT        -0.4160   -4.5510   -2.2920 c1        1 020     -0.201000
     21 HAE        -2.6170    1.9710    1.2440 ha        1 020      0.158000
     22 HAF        -1.7940    0.0720    0.1050 ha        1 020      0.154000
     23 HAH         1.2170    3.2390    1.9000 ha        1 020      0.186000
     24 HNAK        1.3520   -1.1130    0.0570 hn        1 020      0.266000
     25 HAL         0.7290   -0.5830   -2.3000 h1        1 020      0.121000
     26 HALA       -0.7460   -0.6400   -1.6830 h1        1 020      0.121000
     27 HAS        -1.5970   -2.8980   -2.8020 DU        1 020      0.175333
     28 HAO         1.2840   -5.4220   -1.4000 DU        1 020      0.175333
     29 HAT        -0.9070   -5.3120   -2.6570 DU        1 020      0.175333
@<TRIPOS>BOND
     1    1    2 1   
     2    2    3 1   
     3    2    4 1   
     4    2    5 1   
     5    5    6 1   
     6    5    8 1   
     7    6    7 1   
     8    6   21 1   
     9    7   22 1   
    10    8   23 1   
    11    9   10 1   
    12    9   13 1   
    13   10   11 1   
    14   10   12 1   
    15   13   14 1   
    16   14   15 1   
    17   14   24 1   
    18   15   16 1   
    19   15   25 1   
    20   15   26 1   
    21   16   17 1   
    22   16   18 1   
    23   17   20 1   
    24   18   19 1   
    25   19   20 1   
@<TRIPOS>SUBSTRUCTURE
     1 020         1 TEMP              0 ****  ****    0 ROOT
