@<TRIPOS>MOLECULE
021
   22    21     1     0     0
SMALL
bcc


@<TRIPOS>ATOM
      1 C14         1.8570    1.7340   -2.4800 c1        1 021      0.771000
      2 O32         0.9780    1.9410   -3.3500 o         1 021     -0.817500
      3 C15         1.4550    1.5130   -1.0300 c2        1 021      0.145100
      4 N16         0.8330    0.2120   -0.8940 nh        1 021     -0.362100
      5 C17         0.0150    0.1950    0.2830 c3        1 021     -0.008000
      6 C21         0.3210   -1.1410    1.1680 c3        1 021     -0.080900
      7 C20        -1.0990   -1.7690    1.4920 c3        1 021     -0.075400
      8 C19        -2.0090   -0.8020    1.1360 c3        1 021     -0.075400
      9 C18        -1.2850    0.1020   -0.0530 c3        1 021     -0.080900
     10 H15         2.2570    1.5570   -0.4560 h4        1 021     -0.057200
     11 H15A        0.8220    2.2070   -0.7590 h4        1 021     -0.057200
     12 HN16        1.4820   -0.4320   -0.8250 hn        1 021      0.204700
     13 H17         0.1710    0.9980    0.8170 h1        1 021      0.049700
     14 H21         0.8600   -1.7720    0.6520 hc        1 021      0.041950
     15 H21A        0.7840   -0.8980    2.0010 hc        1 021      0.041950
     16 H20        -1.2400   -2.5780    0.9630 hc        1 021      0.023450
     17 H20A       -1.1730   -1.9710    2.4510 hc        1 021      0.023450
     18 H19        -2.2190   -0.2340    1.9110 hc        1 021      0.023450
     19 H19A       -2.8250   -1.2180    0.7920 hc        1 021      0.023450
     20 H18        -1.3770   -0.3440   -0.9170 hc        1 021      0.041950
     21 H18A       -1.6890    0.9960   -0.0900 hc        1 021      0.041950
     22 OXT         3.0810    1.7020   -2.8110 o         1 021     -0.817500
@<TRIPOS>BOND
     1    1    2 2   
     2    1   22 2   
     3    3    4 2   
     4    3   10 1   
     5    3   11 1   
     6    4    5 1   
     7    4   12 1   
     8    5    6 1   
     9    5    9 1   
    10    5   13 1   
    11    6    7 1   
    12    6   14 1   
    13    6   15 1   
    14    7    8 1   
    15    7   16 1   
    16    7   17 1   
    17    8    9 1   
    18    8   18 1   
    19    8   19 1   
    20    9   20 1   
    21    9   21 1   
@<TRIPOS>SUBSTRUCTURE
     1 021         1 TEMP              0 ****  ****    0 ROOT
