@<TRIPOS>MOLECULE
021
   22    22     1     0     0
SMALL
bcc


@<TRIPOS>ATOM
      1 C14         2.1090   -0.0810    1.1190 c         1 021      0.884600
      2 O32         1.9540    1.1390    1.4190 o         1 021     -0.849300
      3 C15         1.3930   -0.6310   -0.1410 c3        1 021      0.018800
      4 N16         0.3310    0.1940   -0.6930 n3        1 021     -0.798200
      5 C17        -0.8980    0.1230    0.0960 c3        1 021      0.169500
      6 C21        -1.6900   -1.1840   -0.1180 c3        1 021     -0.080900
      7 C20        -3.1590   -0.8380    0.0740 c3        1 021     -0.075400
      8 C19        -3.2860    0.6800    0.0280 c3        1 021     -0.075400
      9 C18        -1.9010    1.2490   -0.2340 c3        1 021     -0.080900
     10 H15         2.1690   -0.7370   -0.9490 h1        1 021      0.032700
     11 H15A        0.9910   -1.6530    0.0920 h1        1 021      0.032700
     12 HN16        0.6460    1.1530   -0.6630 hn        1 021      0.359800
     13 H17        -0.6590    0.1980    1.2030 h1        1 021      0.049700
     14 H21        -1.5210   -1.5910   -1.1470 hc        1 021      0.041950
     15 H21A       -1.3560   -1.9610    0.6120 hc        1 021      0.041950
     16 H20        -3.7840   -1.3110   -0.7230 hc        1 021      0.023450
     17 H20A       -3.5270   -1.2270    1.0570 hc        1 021      0.023450
     18 H19        -4.0020    0.9950   -0.7710 hc        1 021      0.023450
     19 H19A       -3.6870    1.0640    1.0010 hc        1 021      0.023450
     20 H18        -1.6980    2.1440    0.4020 hc        1 021      0.041950
     21 H18A       -1.8120    1.5640   -1.3050 hc        1 021      0.041950
     22 OXT         2.8240   -0.8900    1.7740 o         1 021     -0.849300
@<TRIPOS>BOND
     1    1    2 1   
     2    1    3 1   
     3    1   22 1   
     4    3    4 1   
     5    3   10 1   
     6    3   11 1   
     7    4    5 1   
     8    4   12 1   
     9    5    6 1   
    10    5    9 1   
    11    5   13 1   
    12    6    7 1   
    13    6   14 1   
    14    6   15 1   
    15    7    8 1   
    16    7   16 1   
    17    7   17 1   
    18    8    9 1   
    19    8   18 1   
    20    8   19 1   
    21    9   20 1   
    22    9   21 1   
@<TRIPOS>SUBSTRUCTURE
     1 021         1 TEMP              0 ****  ****    0 ROOT
