@<TRIPOS>MOLECULE
022
   52    42     1     0     0
SMALL
bcc


@<TRIPOS>ATOM
      1 C1         -2.8590   -0.4450    4.8860 c1        1 022     -0.092000
      2 N2         -1.5280   -0.2060    4.9300 n3        1 022     -0.105000
      3 C3         -1.1900    0.0180    6.2030 c1        1 022     -0.161000
      4 C4         -2.3240   -0.0820    6.9650 c1        1 022     -0.185000
      5 N5         -3.3420   -0.3660    6.1520 n2        1 022     -0.150000
      6 C11        -0.6930   -0.1990    3.8800 c1        1 022      0.025000
      7 C13        -0.1160   -1.3830    3.4480 c1        1 022     -0.130500
      8 C14         0.6560   -1.3990    2.2900 c1        1 022     -0.130500
      9 C15         0.8460   -0.2310    1.5690 c1        1 022      0.024000
     10 C16         0.2670    0.9550    2.0020 c1        1 022     -0.113000
     11 C17        -0.5020    0.9700    3.1570 c1        1 022     -0.134000
     12 C24         1.7230   -0.2240    0.4480 c1        1 022     -0.048000
     13 C26         3.1040   -0.2750    0.4970 c1        1 022     -0.192500
     14 C27         3.5740   -0.2600   -0.7920 c1        1 022     -0.192500
     15 C28         2.4870   -0.1990   -1.6420 c1        1 022     -0.048000
     16 N29         1.3460   -0.1770   -0.8730 n3        1 022     -0.084000
     17 C35         2.5420   -0.1570   -3.1820 c2        1 022     -0.107000
     18 C37         3.9250    0.3090   -3.6290 c3        1 022     -0.227000
     19 C38         3.8170    0.9860   -4.9890 c2        1 022      0.328000
     20 O41         4.1710    0.3670   -6.0310 o         1 022     -0.578000
     21 O43         3.4040    2.1720   -5.0700 o         1 022     -0.578000
     22 C45         0.0570   -0.1860   -1.3430 c1        1 022      0.040000
     23 C47        -0.5820    1.0090   -1.6350 c1        1 022     -0.015000
     24 C48        -1.9070    1.0030   -2.0660 c1        1 022     -0.090000
     25 C49        -2.5870   -0.2010   -2.2030 c1        1 022     -0.115000
     26 C50        -1.9460   -1.3970   -1.9110 c1        1 022     -0.126000
     27 C51        -0.6240   -1.3900   -1.4810 c1        1 022     -0.126000
     28 C58        -4.0650   -0.2070   -2.6470 c2        1 022      0.346000
     29 O59        -4.6170    0.8380   -2.9350 o         1 022     -0.374000
     30 N62        -4.7630   -1.4470   -2.7880 n         1 022     -0.427000
     31 C64         0.1760    2.3250   -1.5230 c3        1 022     -0.234000
     32 H1         -3.3700   -0.6870    4.0930 DU        1 022      0.169400
     33 H3         -0.2970    0.2180    6.5310 DU        1 022      0.169400
     34 H4         -2.3730    0.0130    7.9320 DU        1 022      0.169400
     35 H13        -0.2950   -2.2170    3.9270 ha        1 022      0.137000
     36 H14         1.0620   -2.2310    1.9870 ha        1 022      0.137000
     37 H16         0.4550    1.7880    1.5310 ha        1 022      0.156000
     38 H17        -0.9110    1.8070    3.4620 ha        1 022      0.140000
     39 H26         3.6480   -0.3140    1.3040 DU        1 022      0.169400
     40 H27         4.5120   -0.2870   -1.0600 DU        1 022      0.169400
     41 H35         1.8670    0.4640   -3.5150 ha        1 022      0.103500
     42 H35A        2.3690   -1.0490   -3.5380 ha        1 022      0.103500
     43 H37         4.5240   -0.4630   -3.6950 hc        1 022      0.071500
     44 H37A        4.2810    0.9420   -2.9780 hc        1 022      0.071500
     45 H48        -2.3580    1.8460   -2.2720 ha        1 022      0.156000
     46 H50        -2.4270   -2.2500   -2.0080 ha        1 022      0.133000
     47 H51        -0.1700   -2.2380   -1.2730 ha        1 022      0.143000
     48 HN62       -5.6530   -1.4490   -3.0050 hn        1 022      0.220000
     49 HN6A       -4.3320   -2.2350   -2.6150 hn        1 022      0.220000
     50 H64         0.0630    2.8380   -2.3450 hc        1 022      0.120333
     51 H64A        1.1280    2.1430   -1.3810 hc        1 022      0.120333
     52 H64B       -0.1730    2.8390   -0.7690 hc        1 022      0.120333
@<TRIPOS>BOND
     1    1    2 1   
     2    1    5 1   
     3    2    3 1   
     4    2    6 1   
     5    3    4 1   
     6    4    5 1   
     7    6   11 1   
     8    7    8 1   
     9    7   35 1   
    10    8   36 1   
    11    9   10 1   
    12   10   37 1   
    13   11   38 1   
    14   12   13 1   
    15   12   16 1   
    16   13   14 1   
    17   14   15 1   
    18   15   16 1   
    19   16   22 1   
    20   17   18 1   
    21   17   41 1   
    22   17   42 1   
    23   18   19 1   
    24   18   43 1   
    25   18   44 1   
    26   19   20 1   
    27   19   21 1   
    28   22   27 1   
    29   23   24 1   
    30   23   31 1   
    31   24   45 1   
    32   25   26 1   
    33   25   28 1   
    34   26   46 1   
    35   27   47 1   
    36   28   29 1   
    37   28   30 1   
    38   30   48 1   
    39   30   49 1   
    40   31   50 1   
    41   31   51 1   
    42   31   52 1   
@<TRIPOS>SUBSTRUCTURE
     1 022         1 TEMP              0 ****  ****    0 ROOT
