@<TRIPOS>MOLECULE
022
   53    56     1     0     0
SMALL
bcc


@<TRIPOS>ATOM
      1 C1          0.0990   -0.3430    0.4100 cc        1 022      0.402400
      2 N2          1.4900   -0.1290    0.3030 na        1 022     -0.142000
      3 C3          1.9640    0.0560    1.6110 cc        1 022     -0.246600
      4 C4          0.8450   -0.0560    2.4510 cd        1 022      0.295200
      5 N5         -0.3040   -0.3010    1.6930 nd        1 022     -0.662000
      6 C11         2.2500   -0.1000   -0.8780 ca        1 022      0.018800
      7 C13         3.4620    0.6240   -0.9380 ca        1 022     -0.146000
      8 C14         4.2050    0.6500   -2.1110 ca        1 022     -0.098500
      9 C15         3.7680   -0.0340   -3.2560 ca        1 022     -0.021000
     10 C16         2.5690   -0.7540   -3.1960 ca        1 022     -0.098500
     11 C17         1.8160   -0.7930   -2.0290 ca        1 022     -0.146000
     12 C24         4.5960   -0.0010   -4.4480 cc        1 022     -0.060300
     13 C26         6.0030   -0.0450   -4.4830 cd        1 022     -0.174000
     14 C27         6.4060    0.0290   -5.8500 cd        1 022     -0.186000
     15 C28         5.2420    0.1200   -6.6320 cc        1 022     -0.105600
     16 N29         4.1300    0.0750   -5.7740 na        1 022      0.001800
     17 C35         5.1630    0.2540   -8.1030 c3        1 022     -0.010100
     18 C37         5.1500   -1.1050   -8.7790 c3        1 022     -0.128400
     19 C38         4.9580   -0.9670  -10.2540 c         1 022      0.634100
     20 O41         5.2970   -2.0860  -10.9560 oh        1 022     -0.609100
     21 O43         4.5340   -0.0110  -10.9100 o         1 022     -0.552000
     22 C45         2.7900    0.2930   -6.1850 ca        1 022      0.005800
     23 C47         1.9540   -0.7760   -6.5820 ca        1 022     -0.072300
     24 C48         0.6460   -0.4930   -6.9990 ca        1 022     -0.085000
     25 C49         0.1620    0.8150   -7.0320 ca        1 022     -0.124600
     26 C50         0.9850    1.8690   -6.6260 ca        1 022     -0.106000
     27 C51         2.2850    1.6120   -6.2060 ca        1 022     -0.120000
     28 C58        -1.2450    1.0340   -7.4770 c         1 022      0.668700
     29 O59        -2.1530    0.2230   -7.2010 o         1 022     -0.604100
     30 N62        -1.5240    2.1590   -8.2120 n         1 022     -0.669000
     31 C64         2.3780   -2.1970   -6.5750 c3        1 022     -0.067800
     32 H1         -0.5420   -0.5050   -0.4630 h5        1 022      0.065100
     33 H3          3.0150    0.2300    1.8330 h4        1 022      0.180000
     34 H4          0.8020    0.0240    3.5360 h4        1 022      0.045100
     35 H13         3.8240    1.1790   -0.0580 ha        1 022      0.144500
     36 H14         5.1480    1.2180   -2.1450 ha        1 022      0.145500
     37 H16         2.2170   -1.3070   -4.0830 ha        1 022      0.145500
     38 H17         0.8820   -1.3760   -2.0120 ha        1 022      0.144500
     39 H26         6.6550   -0.1320   -3.6190 ha        1 022      0.157000
     40 H27         7.4250    0.0190   -6.2250 ha        1 022      0.156000
     41 H35         6.0580    0.8370   -8.4540 hc        1 022      0.072700
     42 H35A        4.2490    0.8320   -8.4110 hc        1 022      0.072700
     43 H37         6.1070   -1.6560   -8.5800 hc        1 022      0.087200
     44 H37A        4.3080   -1.7330   -8.3780 hc        1 022      0.087200
     45 H48        -0.0210   -1.3210   -7.2950 ha        1 022      0.163000
     46 H50         0.6120    2.9040   -6.6170 ha        1 022      0.144000
     47 H51         2.9240    2.4510   -5.8850 ha        1 022      0.154000
     48 HN62        5.1390   -1.9380  -11.9030 ho        1 022      0.445000
     49 HN6A       -2.4450    2.3030   -8.5460 hn        1 022      0.315500
     50 H64         3.4160   -2.3430   -6.1910 hc        1 022      0.056700
     51 H64A        2.3270   -2.6130   -7.6140 hc        1 022      0.056700
     52 H64B        1.6840   -2.7960   -5.9310 hc        1 022      0.056700
     53 H623       -0.8060    2.7670   -8.5080 hn        1 022      0.315500
@<TRIPOS>BOND
     1    1    2 1   
     2    1    5 2   
     3    1   32 1   
     4    2    3 1   
     5    2    6 1   
     6    3    4 2   
     7    3   33 1   
     8    4    5 1   
     9    4   34 1   
    10    6    7 ar  
    11    6   11 ar  
    12    7    8 ar  
    13    7   35 1   
    14    8    9 ar  
    15    8   36 1   
    16    9   10 ar  
    17    9   12 1   
    18   10   11 ar  
    19   10   37 1   
    20   11   38 1   
    21   12   13 2   
    22   12   16 1   
    23   13   14 1   
    24   13   39 1   
    25   14   15 2   
    26   14   40 1   
    27   15   16 1   
    28   15   17 1   
    29   16   22 1   
    30   17   18 1   
    31   17   41 1   
    32   17   42 1   
    33   18   19 1   
    34   18   43 1   
    35   18   44 1   
    36   19   20 1   
    37   19   21 2   
    38   20   48 1   
    39   22   23 ar  
    40   22   27 ar  
    41   23   24 ar  
    42   23   31 1   
    43   24   25 ar  
    44   24   45 1   
    45   25   26 ar  
    46   25   28 1   
    47   26   27 ar  
    48   26   46 1   
    49   27   47 1   
    50   28   29 2   
    51   28   30 1   
    52   30   49 1   
    53   30   53 1   
    54   31   50 1   
    55   31   51 1   
    56   31   52 1   
@<TRIPOS>SUBSTRUCTURE
     1 022         1 TEMP              0 ****  ****    0 ROOT
