@<TRIPOS>MOLECULE
022
   53    56     1     0     0
SMALL
bcc


@<TRIPOS>ATOM
      1 C1          0.1360   -0.4020    0.4250 cc        1 022      0.402400
      2 N2          1.5290   -0.2060    0.3100 na        1 022     -0.142000
      3 C3          2.0160   -0.0500    1.6180 cc        1 022     -0.246600
      4 C4          0.9010   -0.1600    2.4640 cd        1 022      0.295200
      5 N5         -0.2560   -0.3760    1.7120 nd        1 022     -0.662000
      6 C11         2.2810   -0.1680   -0.8760 ca        1 022      0.018800
      7 C13         3.5020    0.5390   -0.9330 ca        1 022     -0.146000
      8 C14         4.2360    0.5740   -2.1110 ca        1 022     -0.098500
      9 C15         3.7810   -0.0850   -3.2640 ca        1 022     -0.021000
     10 C16         2.5730   -0.7890   -3.2070 ca        1 022     -0.098500
     11 C17         1.8280   -0.8360   -2.0340 ca        1 022     -0.146000
     12 C24         4.6000   -0.0440   -4.4620 cc        1 022     -0.060300
     13 C26         6.0060   -0.1070   -4.5080 cd        1 022     -0.174000
     14 C27         6.4000   -0.0170   -5.8770 cd        1 022     -0.186000
     15 C28         5.2320    0.1040   -6.6480 cc        1 022     -0.105600
     16 N29         4.1260    0.0600   -5.7820 na        1 022      0.001800
     17 C35         5.1440    0.2630   -8.1160 c3        1 022     -0.010100
     18 C37         5.1070   -1.0840   -8.8140 c3        1 022     -0.128400
     19 C38         4.9040   -0.9190  -10.2850 c         1 022      0.634100
     20 O41         5.2330   -2.0270  -11.0090 oh        1 022     -0.609100
     21 O43         4.4780    0.0500  -10.9210 o         1 022     -0.552000
     22 C45         2.7860    0.3040   -6.1790 ca        1 022      0.005800
     23 C47         1.9320   -0.7460   -6.5880 ca        1 022     -0.072300
     24 C48         0.6250   -0.4380   -6.9890 ca        1 022     -0.085000
     25 C49         0.1600    0.8760   -6.9970 ca        1 022     -0.124600
     26 C50         1.0000    1.9120   -6.5800 ca        1 022     -0.106000
     27 C51         2.3000    1.6310   -6.1750 ca        1 022     -0.120000
     28 C58        -1.2470    1.1230   -7.4280 c         1 022      0.668700
     29 O59        -2.1650    0.3210   -7.1580 o         1 022     -0.604100
     30 N62        -1.5160    2.2640   -8.1430 n         1 022     -0.669000
     31 C64         2.3370   -2.1730   -6.6080 c3        1 022     -0.067800
     32 H1         -0.5130   -0.5410   -0.4450 h5        1 022      0.065100
     33 H3          3.0700    0.1050    1.8340 h4        1 022      0.180000
     34 H4          0.8680   -0.0970    3.5510 h4        1 022      0.045100
     35 H13         3.8780    1.0740   -0.0470 ha        1 022      0.144500
     36 H14         5.1870    1.1290   -2.1430 ha        1 022      0.145500
     37 H16         2.2060   -1.3220   -4.1000 ha        1 022      0.145500
     38 H17         0.8850   -1.4060   -2.0190 ha        1 022      0.144500
     39 H26         6.6640   -0.2180   -3.6510 ha        1 022      0.157000
     40 H27         7.4170   -0.0350   -6.2590 ha        1 022      0.156000
     41 H35         4.2360    0.8580   -8.4080 hc        1 022      0.073200
     42 H35A        6.0430    0.8400   -8.4640 hc        1 022      0.073200
     43 H37         6.0590   -1.6500   -8.6330 hc        1 022      0.087200
     44 H37A        4.2610   -1.7080   -8.4160 hc        1 022      0.087200
     45 H48        -0.0560   -1.2520   -7.2940 ha        1 022      0.163000
     46 H50         0.6420    2.9530   -6.5510 ha        1 022      0.144000
     47 H51         2.9530    2.4550   -5.8450 ha        1 022      0.154000
     48 HN62        5.0680   -1.8620  -11.9530 ho        1 022      0.445000
     49 HN6A       -0.7910    2.8650   -8.4360 hn        1 022      0.315500
     50 H64         3.3750   -2.3400   -6.2330 hc        1 022      0.056700
     51 H64A        1.6380   -2.7730   -5.9690 hc        1 022      0.056700
     52 H64B        2.2720   -2.5710   -7.6530 hc        1 022      0.056700
     53 H623       -2.4370    2.4260   -8.4680 hn        1 022      0.315500
@<TRIPOS>BOND
     1    1    2 1   
     2    1    5 2   
     3    1   32 1   
     4    2    3 1   
     5    2    6 1   
     6    3    4 2   
     7    3   33 1   
     8    4    5 1   
     9    4   34 1   
    10    6    7 ar  
    11    6   11 ar  
    12    7    8 ar  
    13    7   35 1   
    14    8    9 ar  
    15    8   36 1   
    16    9   10 ar  
    17    9   12 1   
    18   10   11 ar  
    19   10   37 1   
    20   11   38 1   
    21   12   13 2   
    22   12   16 1   
    23   13   14 1   
    24   13   39 1   
    25   14   15 2   
    26   14   40 1   
    27   15   16 1   
    28   15   17 1   
    29   16   22 1   
    30   17   18 1   
    31   17   41 1   
    32   17   42 1   
    33   18   19 1   
    34   18   43 1   
    35   18   44 1   
    36   19   20 1   
    37   19   21 2   
    38   20   48 1   
    39   22   23 ar  
    40   22   27 ar  
    41   23   24 ar  
    42   23   31 1   
    43   24   25 ar  
    44   24   45 1   
    45   25   26 ar  
    46   25   28 1   
    47   26   27 ar  
    48   26   46 1   
    49   27   47 1   
    50   28   29 2   
    51   28   30 1   
    52   30   49 1   
    53   30   53 1   
    54   31   50 1   
    55   31   51 1   
    56   31   52 1   
@<TRIPOS>SUBSTRUCTURE
     1 022         1 TEMP              0 ****  ****    0 ROOT
