@<TRIPOS>MOLECULE
022
   52    55     1     0     0
SMALL
bcc


@<TRIPOS>ATOM
      1 C1         -6.0200    0.7590   -0.4670 cc        1 022      0.395400
      2 N2         -5.4980   -0.5260   -0.2270 na        1 022     -0.125000
      3 C3         -6.5960   -1.3900   -0.1350 cc        1 022     -0.249600
      4 C4         -7.7380   -0.5920   -0.3260 cd        1 022      0.281200
      5 N5         -7.3670    0.7370   -0.5290 nd        1 022     -0.675000
      6 C11        -4.1400   -0.8750   -0.0960 ca        1 022     -0.020200
      7 C13        -3.7550   -1.9750    0.7010 ca        1 022     -0.136500
      8 C14        -2.4140   -2.3110    0.8270 ca        1 022     -0.118000
      9 C15        -1.4150   -1.5700    0.1730 ca        1 022      0.025000
     10 C16        -1.8020   -0.4800   -0.6210 ca        1 022     -0.118000
     11 C17        -3.1400   -0.1320   -0.7580 ca        1 022     -0.136500
     12 C24        -0.0350   -1.9800    0.3090 cc        1 022     -0.126300
     13 C26         0.4310   -3.3020    0.4520 cd        1 022     -0.152000
     14 C27         1.8550   -3.2590    0.5100 cd        1 022     -0.223000
     15 C28         2.2510   -1.9110    0.4090 cc        1 022     -0.024600
     16 N29         1.0930   -1.1310    0.2620 na        1 022     -0.008200
     17 C35         3.6290   -1.3680    0.4600 c3        1 022     -0.024100
     18 C37         4.5470   -2.0130   -0.5530 c3        1 022     -0.195400
     19 C38         5.9860   -1.4860   -0.3800 c         1 022      0.908600
     20 O41         6.4030   -1.2620    0.7930 o         1 022     -0.843800
     21 O43         6.6710   -1.3130   -1.4260 o         1 022     -0.843800
     22 C45         1.0690    0.2850    0.2960 ca        1 022      0.018800
     23 C47         1.4380    1.0450   -0.8420 ca        1 022     -0.056300
     24 C48         1.4260    2.4420   -0.7590 ca        1 022     -0.086000
     25 C49         1.0720    3.0880    0.4250 ca        1 022     -0.137600
     26 C50         0.7000    2.3400    1.5450 ca        1 022     -0.113000
     27 C51         0.6940    0.9510    1.4820 ca        1 022     -0.123000
     28 C58         1.0950    4.5770    0.4680 c         1 022      0.671700
     29 O59         0.5790    5.2840   -0.4220 o         1 022     -0.614100
     30 N62         1.7030    5.1690    1.5530 n         1 022     -0.668000
     31 C64         1.8510    0.3910   -2.1060 c3        1 022     -0.070800
     32 H1         -5.3820    1.6430   -0.5740 h5        1 022      0.065100
     33 H3         -6.4840   -2.4580    0.0370 h4        1 022      0.177000
     34 H4         -8.7820   -0.8980   -0.3280 h4        1 022      0.036100
     35 H13        -4.5130   -2.5690    1.2330 ha        1 022      0.136500
     36 H14        -2.1250   -3.1700    1.4530 ha        1 022      0.147000
     37 H16        -1.0360    0.1080   -1.1540 ha        1 022      0.147000
     38 H17        -3.4100    0.7250   -1.3950 ha        1 022      0.136500
     39 H26        -0.1910   -4.1910    0.4880 ha        1 022      0.140000
     40 H27         2.5310   -4.1030    0.6070 ha        1 022      0.161000
     41 H35         3.6330   -0.2560    0.3010 hc        1 022      0.069700
     42 H35A        4.0550   -1.5510    1.4870 hc        1 022      0.069700
     43 H37         4.5620   -3.1220   -0.4100 hc        1 022      0.027700
     44 H37A        4.2000   -1.8060   -1.5960 hc        1 022      0.027700
     45 H48         1.7040    3.0430   -1.6410 ha        1 022      0.154000
     46 H50         0.4060    2.8420    2.4790 ha        1 022      0.136000
     47 H51         0.4010    0.3690    2.3710 ha        1 022      0.149000
     48 HN62        2.2430    4.6240    2.1760 hn        1 022      0.309000
     49 HN6A        1.8230    6.1510    1.5580 hn        1 022      0.309000
     50 H64         1.0420   -0.2850   -2.4790 hc        1 022      0.062367
     51 H64A        2.0770    1.1460   -2.8980 hc        1 022      0.062367
     52 H64B        2.7730   -0.2270   -1.9330 hc        1 022      0.062367
@<TRIPOS>BOND
     1    1    2 1   
     2    1    5 2   
     3    1   32 1   
     4    2    3 1   
     5    2    6 1   
     6    3    4 2   
     7    3   33 1   
     8    4    5 1   
     9    4   34 1   
    10    6    7 ar  
    11    6   11 ar  
    12    7    8 ar  
    13    7   35 1   
    14    8    9 ar  
    15    8   36 1   
    16    9   10 ar  
    17    9   12 1   
    18   10   11 ar  
    19   10   37 1   
    20   11   38 1   
    21   12   13 2   
    22   12   16 1   
    23   13   14 1   
    24   13   39 1   
    25   14   15 2   
    26   14   40 1   
    27   15   16 1   
    28   15   17 1   
    29   16   22 1   
    30   17   18 1   
    31   17   41 1   
    32   17   42 1   
    33   18   19 1   
    34   18   43 1   
    35   18   44 1   
    36   19   20 1   
    37   19   21 1   
    38   22   23 ar  
    39   22   27 ar  
    40   23   24 ar  
    41   23   31 1   
    42   24   25 ar  
    43   24   45 1   
    44   25   26 ar  
    45   25   28 1   
    46   26   27 ar  
    47   26   46 1   
    48   27   47 1   
    49   28   29 2   
    50   28   30 1   
    51   30   48 1   
    52   30   49 1   
    53   31   50 1   
    54   31   51 1   
    55   31   52 1   
@<TRIPOS>SUBSTRUCTURE
     1 022         1 TEMP              0 ****  ****    0 ROOT
