@<TRIPOS>MOLECULE
022
   53    56     1     0     0
SMALL
bcc


@<TRIPOS>ATOM
      1 C1          0.1520   -0.1190    0.5110 cc        1 022      0.401400
      2 N2          1.5510   -0.0050    0.3540 na        1 022     -0.142000
      3 C3          2.0830    0.1420    1.6450 cc        1 022     -0.246600
      4 C4          0.9890    0.1080    2.5240 cd        1 022      0.295200
      5 N5         -0.2010   -0.0520    1.8070 nd        1 022     -0.662000
      6 C11         2.2680   -0.0260   -0.8540 ca        1 022      0.017800
      7 C13         3.5270    0.6060   -0.9540 ca        1 022     -0.146000
      8 C14         4.2280    0.5830   -2.1530 ca        1 022     -0.099000
      9 C15         3.7020   -0.0600   -3.2840 ca        1 022     -0.021000
     10 C16         2.4550   -0.6890   -3.1840 ca        1 022     -0.099000
     11 C17         1.7420   -0.6780   -1.9900 ca        1 022     -0.146000
     12 C24         4.4850   -0.0860   -4.5050 cc        1 022     -0.062300
     13 C26         5.8850   -0.2060   -4.5960 cd        1 022     -0.171000
     14 C27         6.2330   -0.1980   -5.9800 cd        1 022     -0.191000
     15 C28         5.0430   -0.0730   -6.7180 cc        1 022     -0.101600
     16 N29         3.9690   -0.0230   -5.8130 na        1 022      0.004800
     17 C35         4.9010    0.0230   -8.1880 c3        1 022     -0.013100
     18 C37         5.6290   -1.1150   -8.8780 c3        1 022     -0.123400
     19 C38         5.5280   -0.9900  -10.3630 c         1 022      0.633100
     20 O41         6.2430   -1.9350  -11.0400 oh        1 022     -0.609100
     21 O43         4.9030   -0.1750  -11.0480 o         1 022     -0.551000
     22 C45         2.6230    0.2420   -6.1720 ca        1 022      0.001800
     23 C47         1.7940   -0.7840   -6.6890 ca        1 022     -0.073300
     24 C48         0.4770   -0.4770   -7.0430 ca        1 022     -0.081000
     25 C49        -0.0250    0.8180   -6.9000 ca        1 022     -0.126600
     26 C50         0.7890    1.8260   -6.3800 ca        1 022     -0.107000
     27 C51         2.1030    1.5440   -6.0190 ca        1 022     -0.120000
     28 C58        -1.4450    1.0670   -7.2860 c         1 022      0.668700
     29 O59        -2.3350    0.2130   -7.0950 o         1 022     -0.604100
     30 N62        -1.7570    2.2700   -7.8700 nt        1 022     -0.670000
     31 C64         2.2910   -2.1710   -6.8520 c3        1 022     -0.059800
     32 H1         -0.5290   -0.2330   -0.3390 h5        1 022      0.065100
     33 H3          3.1500    0.2390    1.8290 h4        1 022      0.180000
     34 H4          0.9900    0.1880    3.6100 h4        1 022      0.045100
     35 H13         3.9610    1.1280   -0.0870 ha        1 022      0.145000
     36 H14         5.2090    1.0800   -2.2190 ha        1 022      0.145500
     37 H16         2.0290   -1.2070   -4.0590 ha        1 022      0.145500
     38 H17         0.7690   -1.1900   -1.9410 ha        1 022      0.145000
     39 H26         6.5690   -0.3020   -3.7570 ha        1 022      0.156000
     40 H27         7.2340   -0.2740   -6.3930 ha        1 022      0.154000
     41 H35         5.3320    1.0040   -8.5320 hc        1 022      0.072700
     42 H35A        3.8210    0.0140   -8.5000 hc        1 022      0.072700
     43 H37         6.7150   -1.1230   -8.5890 hc        1 022      0.087700
     44 H37A        5.1940   -2.1060   -8.5760 hc        1 022      0.087700
     45 H48        -0.1870   -1.2690   -7.4310 ha        1 022      0.163000
     46 H50         0.4010    2.8460   -6.2340 ha        1 022      0.143000
     47 H51         2.7340    2.3470   -5.6060 ha        1 022      0.154000
     48 HN62        6.1350   -1.8030  -11.9960 ho        1 022      0.446000
     49 HN6A       -2.6870    2.4390   -8.1630 hn        1 022      0.315000
     50 H64         3.1910   -2.1850   -7.5190 hc        1 022      0.054367
     51 H64A        1.5080   -2.8300   -7.3010 hc        1 022      0.054367
     52 H64B        2.5860   -2.5980   -5.8600 hc        1 022      0.054367
     53 H623       -1.0550    2.9240   -8.1000 hn        1 022      0.315000
@<TRIPOS>BOND
     1    1    2 1   
     2    1    5 2   
     3    1   32 1   
     4    2    3 1   
     5    2    6 1   
     6    3    4 2   
     7    3   33 1   
     8    4    5 1   
     9    4   34 1   
    10    6    7 ar  
    11    6   11 ar  
    12    7    8 ar  
    13    7   35 1   
    14    8    9 ar  
    15    8   36 1   
    16    9   10 ar  
    17    9   12 1   
    18   10   11 ar  
    19   10   37 1   
    20   11   38 1   
    21   12   13 2   
    22   12   16 1   
    23   13   14 1   
    24   13   39 1   
    25   14   15 2   
    26   14   40 1   
    27   15   16 1   
    28   15   17 1   
    29   16   22 1   
    30   17   18 1   
    31   17   41 1   
    32   17   42 1   
    33   18   19 1   
    34   18   43 1   
    35   18   44 1   
    36   19   20 1   
    37   19   21 2   
    38   20   48 1   
    39   22   23 ar  
    40   22   27 ar  
    41   23   24 ar  
    42   23   31 1   
    43   24   25 ar  
    44   24   45 1   
    45   25   26 ar  
    46   25   28 1   
    47   26   27 ar  
    48   26   46 1   
    49   27   47 1   
    50   28   29 2   
    51   28   30 1   
    52   30   49 1   
    53   30   53 1   
    54   31   50 1   
    55   31   51 1   
    56   31   52 1   
@<TRIPOS>SUBSTRUCTURE
     1 022         1 TEMP              0 ****  ****    0 ROOT
