@<TRIPOS>MOLECULE
023
   64    64     1     0     0
SMALL
bcc


@<TRIPOS>ATOM
      1 C25         3.6070    0.4850   -2.0740 c3        1 023      0.076100
      2 N18         4.1780   -0.3570   -0.9800 n4        1 023     -0.650800
      3 C14         3.9710    0.2370    0.3770 c         1 023      0.517100
      4 O19         3.8570    1.4510    0.4750 o         1 023     -0.380100
      5 C10         3.9300   -0.7200    1.5770 c3        1 023      0.054500
      6 C15         2.4550   -1.1870    1.8610 c3        1 023     -0.052000
      7 C22         1.8660   -1.7420    0.5740 c3        1 023     -0.135100
      8 C21         2.4940   -2.2990    2.9010 c3        1 023     -0.135100
      9 C20         1.6100   -0.0260    2.3580 c3        1 023     -0.135100
     10 N5          4.5130   -0.0460    2.7940 n4        1 023     -0.687800
     11 C2          6.0270    0.1090    2.7920 c         1 023      0.565100
     12 O6          6.5860   -0.1950    1.7520 o         1 023     -0.419100
     13 C1          6.6220    0.6810    4.0690 c3        1 023     -0.136700
     14 C3          8.1230    0.2860    4.1160 c3        1 023      0.156500
     15 C8          8.2740   -1.2270    4.2400 c3        1 023     -0.157100
     16 N7          8.9120    0.9700    5.2390 n4        1 023     -0.404700
     17 O12         9.3190    2.1610    4.7400 oh        1 023     -0.374300
     18 C11         8.1750    1.0800    6.5940 c         1 023      0.548900
     19 O16         7.5060    0.1270    6.9240 o         1 023     -0.376100
     20 C4          6.3640    2.1930    4.0690 c3        1 023     -0.128400
     21 C9          5.5810    2.6450    5.2900 c3        1 023     -0.086400
     22 C13         5.8630    4.1010    5.6280 c3        1 023     -0.043100
     23 C17         7.1530    4.2770    6.3510 ca        1 023     -0.135300
     24 C23         8.2770    4.7890    5.6910 ca        1 023     -0.163500
     25 C26         9.4630    5.0170    6.3930 ca        1 023     -0.138500
     26 C28         9.5350    4.7370    7.7590 ca        1 023     -0.117000
     27 C27         8.4170    4.2260    8.4220 ca        1 023     -0.138500
     28 C24         7.2310    3.9980    7.7230 ca        1 023     -0.163500
     29 H251        4.0460    1.5200   -2.0280 hx        1 023      0.137367
     30 H252        2.4900    0.5450   -1.9580 hx        1 023      0.137367
     31 H253        3.8640    0.0050   -3.0610 hx        1 023      0.137367
     32 H18         3.7450   -1.2940   -1.0170 hn        1 023      0.485300
     33 H10         4.5630   -1.6380    1.3710 hx        1 023      0.143700
     34 H5          4.0820    0.8900    2.8980 hn        1 023      0.494300
     35 H221        1.6600   -0.9310   -0.1660 hc        1 023      0.078367
     36 H222        0.8750   -2.2230    0.8050 hc        1 023      0.078367
     37 H223        2.5150   -2.5370    0.1340 hc        1 023      0.078367
     38 H211        1.4730   -2.7610    2.9810 hc        1 023      0.078367
     39 H212        3.2070   -3.1070    2.6100 hc        1 023      0.078367
     40 H213        2.7500   -1.9190    3.9200 hc        1 023      0.078367
     41 H201        1.7480    0.8830    1.7240 hc        1 023      0.078367
     42 H202        0.5250   -0.3120    2.3120 hc        1 023      0.078367
     43 H203        1.8330    0.2240    3.4240 hc        1 023      0.078367
     44 H1          6.1140    0.2020    4.9600 hc        1 023      0.121700
     45 H3          8.6120    0.6430    3.1520 hx        1 023      0.147700
     46 H41C        5.8090    2.5050    3.1430 hc        1 023      0.091200
     47 H42C        7.3380    2.7570    4.0190 hc        1 023      0.091200
     48 H81C        7.7970   -1.6190    5.1740 hc        1 023      0.096700
     49 H82C        7.7970   -1.7100    3.3520 hc        1 023      0.096700
     50 H83C        9.3530   -1.5350    4.2330 hc        1 023      0.096700
     51 H12         9.5960    2.7700    5.4750 ho        1 023      0.494000
     52 H11         8.3480    2.0660    7.1140 hx        1 023      0.187200
     53 H91C        4.4830    2.5220    5.0970 hc        1 023      0.046700
     54 H92C        5.8340    2.0100    6.1810 hc        1 023      0.046700
     55 H131        5.8550    4.7190    4.6900 hc        1 023      0.090700
     56 H132        5.0270    4.4840    6.2790 hc        1 023      0.090700
     57 H23         8.2130    5.0720    4.6280 ha        1 023      0.153500
     58 H24         6.3330    3.6620    8.2670 ha        1 023      0.153500
     59 H26        10.3270    5.4740    5.8800 ha        1 023      0.175000
     60 H28        10.4580    4.9590    8.3220 ha        1 023      0.180000
     61 H27         8.4560    4.0500    9.5110 ha        1 023      0.175000
     62 H182        5.1940   -0.4600   -1.1360 hn        1 023      0.485300
     63 H52         4.2350   -0.6120    3.6150 hn        1 023      0.494300
     64 H71         9.7600    0.3750    5.3930 hn        1 023      0.487800
@<TRIPOS>BOND
     1    1    2 1   
     2    1   29 1   
     3    1   30 1   
     4    1   31 1   
     5    2    3 1   
     6    2   32 1   
     7    2   62 1   
     8    3    4 2   
     9    3    5 1   
    10    5    6 1   
    11    5   10 1   
    12    5   33 1   
    13    6    7 1   
    14    6    8 1   
    15    6    9 1   
    16    7   35 1   
    17    7   36 1   
    18    7   37 1   
    19    8   38 1   
    20    8   39 1   
    21    8   40 1   
    22    9   41 1   
    23    9   42 1   
    24    9   43 1   
    25   10   11 1   
    26   10   34 1   
    27   10   63 1   
    28   11   12 2   
    29   11   13 1   
    30   13   14 1   
    31   13   20 1   
    32   13   44 1   
    33   14   15 1   
    34   14   16 1   
    35   14   45 1   
    36   15   48 1   
    37   15   49 1   
    38   15   50 1   
    39   16   17 1   
    40   16   18 1   
    41   16   64 1   
    42   17   51 1   
    43   18   19 2   
    44   18   52 1   
    45   20   21 1   
    46   20   46 1   
    47   20   47 1   
    48   21   22 1   
    49   21   53 1   
    50   21   54 1   
    51   22   23 1   
    52   22   55 1   
    53   22   56 1   
    54   23   24 ar  
    55   23   28 ar  
    56   24   25 ar  
    57   24   57 1   
    58   25   26 ar  
    59   25   59 1   
    60   26   27 ar  
    61   26   60 1   
    62   27   28 ar  
    63   27   61 1   
    64   28   58 1   
@<TRIPOS>SUBSTRUCTURE
     1 023         1 TEMP              0 ****  ****    0 ROOT
