@<TRIPOS>MOLECULE
023
   64    64     1     0     0
SMALL
bcc


@<TRIPOS>ATOM
      1 C25         3.5140    0.5370   -2.0660 c3        1 023      0.076100
      2 N18         4.1150   -0.3050   -0.9900 ny        1 023     -0.650800
      3 C14         3.8920    0.2570    0.3780 c         1 023      0.518100
      4 O19         3.7400    1.4640    0.5000 o         1 023     -0.381100
      5 C10         3.8830   -0.7230    1.5610 c3        1 023      0.054500
      6 C15         2.4240   -1.2420    1.8370 c3        1 023     -0.052000
      7 C22         1.8520   -1.7930    0.5400 c3        1 023     -0.135100
      8 C21         2.4990   -2.3710    2.8570 c3        1 023     -0.135100
      9 C20         1.5430   -0.1190    2.3550 c3        1 023     -0.135100
     10 N5          4.4440   -0.0530    2.7900 ny        1 023     -0.688800
     11 C2          5.9520    0.1520    2.7900 c         1 023      0.565100
     12 O6          6.5160   -0.0980    1.7380 o         1 023     -0.418100
     13 C1          6.5400    0.7020    4.0810 c3        1 023     -0.138700
     14 C3          8.0240    0.2570    4.1570 c3        1 023      0.132500
     15 C8          8.1170   -1.2650    4.2210 c3        1 023     -0.156100
     16 N7          8.8160    0.8640    5.3150 nx        1 023     -0.407700
     17 O12         9.3170    2.0640    4.9520 oh        1 023     -0.364300
     18 C11         8.1470    0.8680    6.7100 c         1 023      0.557900
     19 O16         7.3200    0.0130    6.9250 o         1 023     -0.380100
     20 C4          6.3480    2.2230    4.0650 c3        1 023     -0.121400
     21 C9          5.7230    2.7340    5.3510 c3        1 023     -0.088400
     22 C13         6.0800    4.1860    5.6210 c3        1 023     -0.047100
     23 C17         7.3870    4.3470    6.3150 ca        1 023     -0.154300
     24 C23         8.4120    5.1040    5.7340 ca        1 023     -0.173000
     25 C26         9.5910    5.3540    6.4390 ca        1 023     -0.119500
     26 C28         9.7600    4.8450    7.7270 ca        1 023     -0.102000
     27 C27         8.7440    4.0830    8.3110 ca        1 023     -0.119500
     28 C24         7.5630    3.8380    7.6120 ca        1 023     -0.173000
     29 H251        3.9170    1.5860   -2.0020 hx        1 023      0.137367
     30 H252        2.3960    0.5570   -1.9480 hx        1 023      0.137367
     31 H253        3.7850    0.0850   -3.0630 hx        1 023      0.137367
     32 H18         5.1340   -0.3710   -1.1500 hn        1 023      0.485300
     33 H10         4.5450   -1.6170    1.3380 hx        1 023      0.143700
     34 H5          3.9820    0.8660    2.9080 hn        1 023      0.493800
     35 H221        0.8770   -2.3100    0.7630 hc        1 023      0.078367
     36 H222        1.6190   -0.9760   -0.1840 hc        1 023      0.078367
     37 H223        2.5260   -2.5580    0.0860 hc        1 023      0.078367
     38 H211        2.7440   -2.0020    3.8820 hc        1 023      0.078367
     39 H212        1.4940   -2.8670    2.9280 hc        1 023      0.078367
     40 H213        3.2380   -3.1510    2.5500 hc        1 023      0.078367
     41 H201        0.4670   -0.4390    2.3040 hc        1 023      0.078367
     42 H202        1.6510    0.8060    1.7380 hc        1 023      0.078367
     43 H203        1.7570    0.1190    3.4250 hc        1 023      0.078367
     44 H1          5.9940    0.2520    4.9640 hc        1 023      0.123700
     45 H3          8.5490    0.6310    3.2190 hx        1 023      0.146700
     46 H41C        7.3320    2.7320    3.8730 hc        1 023      0.083700
     47 H42C        5.6940    2.5340    3.2050 hc        1 023      0.083700
     48 H81C        9.1840   -1.6130    4.2410 hc        1 023      0.095033
     49 H82C        7.5910   -1.6760    5.1200 hc        1 023      0.095033
     50 H83C        7.6600   -1.6970    3.2970 hc        1 023      0.095033
     51 H12         8.8090    2.8010    5.3880 ho        1 023      0.490000
     52 H11         8.5390    1.7040    7.3580 hx        1 023      0.193200
     53 H91C        4.6060    2.6420    5.2810 hc        1 023      0.049200
     54 H92C        6.0470    2.1060    6.2240 hc        1 023      0.049200
     55 H131        5.2780    4.6340    6.2760 hc        1 023      0.091700
     56 H132        6.0720    4.7670    4.6590 hc        1 023      0.091700
     57 H23         8.2700    5.5550    4.7380 ha        1 023      0.149000
     58 H24         6.7270    3.3260    8.1160 ha        1 023      0.149000
     59 H26        10.3770    5.9850    5.9880 ha        1 023      0.173000
     60 H28        10.6780    5.0710    8.2970 ha        1 023      0.180000
     61 H27         8.8550    3.7260    9.3490 ha        1 023      0.173000
     62 H182        3.7140   -1.2560   -1.0430 hn        1 023      0.485300
     63 H52         4.1850   -0.6420    3.6010 hn        1 023      0.493800
     64 H71         9.6660    0.2490    5.4090 hn        1 023      0.506800
@<TRIPOS>BOND
     1    1    2 1   
     2    1   29 1   
     3    1   30 1   
     4    1   31 1   
     5    2    3 1   
     6    2   32 1   
     7    2   62 1   
     8    3    4 2   
     9    3    5 1   
    10    5    6 1   
    11    5   10 1   
    12    5   33 1   
    13    6    7 1   
    14    6    8 1   
    15    6    9 1   
    16    7   35 1   
    17    7   36 1   
    18    7   37 1   
    19    8   38 1   
    20    8   39 1   
    21    8   40 1   
    22    9   41 1   
    23    9   42 1   
    24    9   43 1   
    25   10   11 1   
    26   10   34 1   
    27   10   63 1   
    28   11   12 2   
    29   11   13 1   
    30   13   14 1   
    31   13   20 1   
    32   13   44 1   
    33   14   15 1   
    34   14   16 1   
    35   14   45 1   
    36   15   48 1   
    37   15   49 1   
    38   15   50 1   
    39   16   17 1   
    40   16   18 1   
    41   16   64 1   
    42   17   51 1   
    43   18   19 2   
    44   18   52 1   
    45   20   21 1   
    46   20   46 1   
    47   20   47 1   
    48   21   22 1   
    49   21   53 1   
    50   21   54 1   
    51   22   23 1   
    52   22   55 1   
    53   22   56 1   
    54   23   24 ar  
    55   23   28 ar  
    56   24   25 ar  
    57   24   57 1   
    58   25   26 ar  
    59   25   59 1   
    60   26   27 ar  
    61   26   60 1   
    62   27   28 ar  
    63   27   61 1   
    64   28   58 1   
@<TRIPOS>SUBSTRUCTURE
     1 023         1 TEMP              0 ****  ****    0 ROOT
