@<TRIPOS>MOLECULE
023
   61    59     1     0     0
SMALL
bcc


@<TRIPOS>ATOM
      1 C25        -4.3750   -2.9210   -2.2780 c3        1 023     -0.078000
      2 N18        -2.9870   -2.9330   -1.9450 n         1 023     -0.378000
      3 C14        -2.5860   -2.7990   -0.6080 c2        1 023      0.285000
      4 O19        -3.3730   -2.3300    0.2300 o         1 023     -0.385000
      5 C10        -1.1500   -3.0460   -0.2280 c3        1 023      0.022000
      6 C15        -1.0410   -4.4030    0.4750 c3        1 023     -0.054000
      7 C22         0.4540   -4.7150    0.8090 c3        1 023     -0.214333
      8 C21        -1.8610   -4.3620    1.7800 c3        1 023     -0.214333
      9 C20        -1.6220   -5.5570   -0.4920 c3        1 023     -0.214333
     10 N5         -0.7120   -2.0150    0.6520 n         1 023     -0.365000
     11 C2          0.4780   -1.2440    0.3350 c2        1 023      0.304000
     12 O6          1.3860   -1.7540   -0.3730 o         1 023     -0.372000
     13 C1          0.5590    0.2620    0.7370 c3        1 023     -0.132000
     14 C3          1.0910    0.3830    2.1120 c3        1 023      0.005000
     15 C8          0.1840    1.3270    2.9240 c3        1 023     -0.221000
     16 N7          2.4120    0.9130    2.0660 n         1 023     -0.217000
     17 O12         2.6030    2.2600    1.9560 oh        1 023     -0.226000
     18 C11         3.5820    0.0030    2.1780 c2        1 023      0.261000
     19 O16         3.4640   -1.0800    2.7430 o         1 023     -0.327000
     20 C4          1.4780    1.0010   -0.2300 c3        1 023     -0.148000
     21 C9          0.8230    2.4020   -0.6190 c3        1 023     -0.151000
     22 C13         1.9320    3.3840   -1.0540 c3        1 023     -0.124000
     23 C17         1.2980    4.7280   -1.4920 c2        1 023     -0.071000
     24 C23         0.7270    5.5750   -0.5460 c2        1 023     -0.130000
     25 C26         0.2750    6.8360   -0.9240 c1        1 023     -0.129000
     26 C28         0.3950    7.2430   -2.2360 c1        1 023     -0.130500
     27 C27         0.9680    6.3930   -3.1800 c1        1 023     -0.130500
     28 C24         1.4150    5.1420   -2.8030 c1        1 023     -0.128000
     29 H251       -4.4870   -3.1200   -3.2540 h1        1 023      0.083667
     30 H252       -4.7610   -2.0130   -2.0750 h1        1 023      0.083667
     31 H253       -4.8550   -3.6170   -1.7390 h1        1 023      0.083667
     32 H18        -2.3480   -3.0670   -2.6110 hn        1 023      0.228000
     33 H10        -0.6080   -3.0470   -1.0100 h1        1 023      0.136000
     34 H5         -1.1670   -1.8580    1.4400 hn        1 023      0.238000
     35 H221        0.5220   -5.6030    1.1600 hc        1 023      0.083111
     36 H222        0.7820   -4.0720    1.4800 hc        1 023      0.083111
     37 H223        0.9930   -4.6440   -0.0020 hc        1 023      0.083111
     38 H211       -1.4810   -3.6840    2.3890 hc        1 023      0.083111
     39 H212       -1.8330   -5.2420    2.2130 hc        1 023      0.083111
     40 H213       -2.8170   -4.1210    1.5670 hc        1 023      0.083111
     41 H201       -1.2660   -5.4330   -1.3980 hc        1 023      0.083111
     42 H202       -1.3510   -6.4420   -0.1500 hc        1 023      0.083111
     43 H203       -2.6100   -5.5020   -0.5160 hc        1 023      0.083111
     44 H1         -0.3550    0.6680    0.6990 hc        1 023      0.109000
     45 H3          1.1080   -0.4850    2.5290 h1        1 023      0.129000
     46 H41C        1.6040    0.4560   -1.0490 hc        1 023      0.102500
     47 H42C        2.3500    1.1560    0.1990 hc        1 023      0.102500
     48 H81C        0.1130    2.1910    2.4610 hc        1 023      0.087333
     49 H82C       -0.7050    0.9300    3.0100 hc        1 023      0.087333
     50 H83C        0.5620    1.4630    3.8020 hc        1 023      0.087333
     51 H12         3.3400    2.4920    2.3980 ho        1 023      0.213000
     52 H11         4.4510    0.2640    1.7900 h5        1 023      0.146000
     53 H91C        0.3520    2.7650    0.1520 hc        1 023      0.082500
     54 H92C        0.2000    2.2760   -1.3490 hc        1 023      0.082500
     55 H131        2.4450    2.9890   -1.8290 hc        1 023      0.090500
     56 H132        2.5320    3.5370   -0.3170 hc        1 023      0.090500
     57 H23         0.6440    5.2810    0.3920 ha        1 023      0.131000
     58 H24         1.8320    4.5260   -3.4910 ha        1 023      0.131000
     59 H26        -0.1380    7.4490   -0.2420 ha        1 023      0.130000
     60 H28         0.0780    8.1280   -2.5040 ha        1 023      0.131000
     61 H27         1.0560    6.6880   -4.1320 ha        1 023      0.131000
@<TRIPOS>BOND
     1    1    2 1   
     2    1   29 1   
     3    1   30 1   
     4    1   31 1   
     5    2    3 1   
     6    2   32 1   
     7    3    4 1   
     8    3    5 1   
     9    5    6 1   
    10    5   10 1   
    11    5   33 1   
    12    6    7 1   
    13    6    8 1   
    14    6    9 1   
    15    7   35 1   
    16    7   36 1   
    17    7   37 1   
    18    8   38 1   
    19    8   39 1   
    20    8   40 1   
    21    9   41 1   
    22    9   42 1   
    23    9   43 1   
    24   10   11 1   
    25   10   34 1   
    26   11   12 1   
    27   11   13 1   
    28   13   14 1   
    29   13   20 1   
    30   13   44 1   
    31   14   15 1   
    32   14   16 1   
    33   14   45 1   
    34   15   48 1   
    35   15   49 1   
    36   15   50 1   
    37   16   17 1   
    38   16   18 1   
    39   17   51 1   
    40   18   19 1   
    41   18   52 1   
    42   20   21 1   
    43   20   46 1   
    44   20   47 1   
    45   21   22 1   
    46   21   53 1   
    47   21   54 1   
    48   22   23 1   
    49   22   55 1   
    50   22   56 1   
    51   23   24 1   
    52   23   28 1   
    53   24   25 1   
    54   24   57 1   
    55   25   59 1   
    56   26   27 1   
    57   26   60 1   
    58   27   61 1   
    59   28   58 1   
@<TRIPOS>SUBSTRUCTURE
     1 023         1 TEMP              0 ****  ****    0 ROOT
