@<TRIPOS>MOLECULE
023
   64    64     1     0     0
SMALL
bcc


@<TRIPOS>ATOM
      1 C25         3.4500    0.5310   -2.0200 c3        1 023      0.076100
      2 N18         4.0640   -0.3180   -0.9560 n4        1 023     -0.650800
      3 C14         3.8890    0.2530    0.4150 c         1 023      0.517100
      4 O19         3.7600    1.4640    0.5350 o         1 023     -0.380100
      5 C10         3.8970   -0.7220    1.6010 c3        1 023      0.054500
      6 C15         2.4380   -1.2160    1.9200 c3        1 023     -0.052000
      7 C22         1.8200   -1.7610    0.6430 c3        1 023     -0.135100
      8 C21         2.5230   -2.3420    2.9420 c3        1 023     -0.135100
      9 C20         1.5900   -0.0760    2.4590 c3        1 023     -0.135100
     10 N5          4.5040   -0.0570    2.8110 n4        1 023     -0.687800
     11 C2          6.0150    0.1190    2.7690 c         1 023      0.565100
     12 O6          6.5490   -0.1620    1.7090 o         1 023     -0.419100
     13 C1          6.6380    0.6830    4.0360 c3        1 023     -0.136700
     14 C3          8.1450    0.3080    4.0360 c3        1 023      0.156500
     15 C8          8.3190   -1.2040    4.1370 c3        1 023     -0.157100
     16 N7          8.9560    0.9880    5.1450 n4        1 023     -0.404700
     17 O12         9.3330    2.1900    4.6520 oh        1 023     -0.374300
     18 C11         8.2550    1.0710    6.5220 c         1 023      0.548900
     19 O16         7.6090    0.1040    6.8580 o         1 023     -0.376100
     20 C4          6.3600    2.1910    4.0630 c3        1 023     -0.128400
     21 C9          5.6060    2.6170    5.3110 c3        1 023     -0.086400
     22 C13         5.8780    4.0720    5.6600 c3        1 023     -0.043100
     23 C17         7.1850    4.2570    6.3490 ca        1 023     -0.135300
     24 C23         8.2840    4.7920    5.6660 ca        1 023     -0.163500
     25 C26         9.4860    5.0270    6.3380 ca        1 023     -0.138500
     26 C28         9.5990    4.7310    7.6970 ca        1 023     -0.117000
     27 C27         8.5060    4.1960    8.3840 ca        1 023     -0.138500
     28 C24         7.3040    3.9620    7.7150 ca        1 023     -0.163500
     29 H251        3.8750    1.5720   -1.9710 hx        1 023      0.137367
     30 H252        3.6850    0.0700   -3.0220 hx        1 023      0.137367
     31 H253        2.3360    0.5730   -1.8710 hx        1 023      0.137367
     32 H18         5.0770   -0.4030   -1.1430 hn        1 023      0.485300
     33 H10         4.5370   -1.6280    1.3630 hx        1 023      0.143700
     34 H5          4.0630    0.8710    2.9400 hn        1 023      0.494300
     35 H221        1.5800   -0.9420   -0.0790 hc        1 023      0.078367
     36 H222        2.4680   -2.5390    0.1720 hc        1 023      0.078367
     37 H223        0.8430   -2.2600    0.8940 hc        1 023      0.078367
     38 H211        1.5120   -2.8210    3.0440 hc        1 023      0.078367
     39 H212        2.8030   -1.9740    3.9590 hc        1 023      0.078367
     40 H213        3.2400   -3.1350    2.6180 hc        1 023      0.078367
     41 H201        1.6960    0.8450    1.8350 hc        1 023      0.078367
     42 H202        1.8400    0.1620    3.5210 hc        1 023      0.078367
     43 H203        0.5080   -0.3780    2.4400 hc        1 023      0.078367
     44 H1          6.1610    0.1860    4.9340 hc        1 023      0.121700
     45 H3          8.6020    0.6840    3.0640 hx        1 023      0.147700
     46 H41C        7.3250    2.7690    3.9930 hc        1 023      0.091200
     47 H42C        5.7750    2.5070    3.1580 hc        1 023      0.091200
     48 H81C        7.8740   -1.6140    5.0780 hc        1 023      0.096700
     49 H82C        9.4020   -1.4970    4.0950 hc        1 023      0.096700
     50 H83C        7.8240   -1.6830    3.2550 hc        1 023      0.096700
     51 H12         9.6230    2.7940    5.3860 ho        1 023      0.494000
     52 H11         8.4300    2.0530    7.0500 hx        1 023      0.187200
     53 H91C        4.5040    2.4820    5.1470 hc        1 023      0.046700
     54 H92C        5.8920    1.9740    6.1870 hc        1 023      0.046700
     55 H131        5.0550    4.4360    6.3380 hc        1 023      0.090700
     56 H132        5.8350    4.7020    4.7310 hc        1 023      0.090700
     57 H23         8.1860    5.0870    4.6090 ha        1 023      0.153500
     58 H24         6.4260    3.6060    8.2790 ha        1 023      0.153500
     59 H26        10.3280    5.5020    5.8060 ha        1 023      0.175000
     60 H28        10.5340    4.9580    8.2370 ha        1 023      0.180000
     61 H27         8.5780    4.0080    9.4700 ha        1 023      0.175000
     62 H182        3.6450   -1.2610   -0.9950 hn        1 023      0.485300
     63 H52         4.2580   -0.6390    3.6310 hn        1 023      0.494300
     64 H71         9.8160    0.4020    5.2690 hn        1 023      0.487800
@<TRIPOS>BOND
     1    1    2 1   
     2    1   29 1   
     3    1   30 1   
     4    1   31 1   
     5    2    3 1   
     6    2   32 1   
     7    2   62 1   
     8    3    4 2   
     9    3    5 1   
    10    5    6 1   
    11    5   10 1   
    12    5   33 1   
    13    6    7 1   
    14    6    8 1   
    15    6    9 1   
    16    7   35 1   
    17    7   36 1   
    18    7   37 1   
    19    8   38 1   
    20    8   39 1   
    21    8   40 1   
    22    9   41 1   
    23    9   42 1   
    24    9   43 1   
    25   10   11 1   
    26   10   34 1   
    27   10   63 1   
    28   11   12 2   
    29   11   13 1   
    30   13   14 1   
    31   13   20 1   
    32   13   44 1   
    33   14   15 1   
    34   14   16 1   
    35   14   45 1   
    36   15   48 1   
    37   15   49 1   
    38   15   50 1   
    39   16   17 1   
    40   16   18 1   
    41   16   64 1   
    42   17   51 1   
    43   18   19 2   
    44   18   52 1   
    45   20   21 1   
    46   20   46 1   
    47   20   47 1   
    48   21   22 1   
    49   21   53 1   
    50   21   54 1   
    51   22   23 1   
    52   22   55 1   
    53   22   56 1   
    54   23   24 ar  
    55   23   28 ar  
    56   24   25 ar  
    57   24   57 1   
    58   25   26 ar  
    59   25   59 1   
    60   26   27 ar  
    61   26   60 1   
    62   27   28 ar  
    63   27   61 1   
    64   28   58 1   
@<TRIPOS>SUBSTRUCTURE
     1 023         1 TEMP              0 ****  ****    0 ROOT
