@<TRIPOS>MOLECULE
023
   61    61     1     0     0
SMALL
bcc


@<TRIPOS>ATOM
      1 C25        -4.3080    3.4040   -1.7160 c3        1 023      0.076300
      2 N18        -4.2390    2.0040   -1.4430 n         1 023     -0.565900
      3 C14        -3.5010    1.4770   -0.4090 c         1 023      0.635100
      4 O19        -2.8620    2.2050    0.3790 o         1 023     -0.621100
      5 C10        -3.4750   -0.0700   -0.2660 c3        1 023      0.039700
      6 C15        -4.3870   -0.4900    0.9230 c3        1 023     -0.049000
      7 C22        -5.7280    0.2150    0.7750 c3        1 023     -0.095100
      8 C21        -4.6110   -1.9950    0.8600 c3        1 023     -0.095100
      9 C20        -3.7700   -0.1240    2.2630 c3        1 023     -0.095100
     10 N5         -2.1150   -0.5300   -0.1290 n         1 023     -0.546900
     11 C2         -1.4030   -1.0300   -1.2070 c         1 023      0.661100
     12 O6         -1.9620   -1.2680   -2.2960 o         1 023     -0.613100
     13 C1          0.0860   -1.2980   -0.9750 c3        1 023     -0.153700
     14 C3          0.5360   -2.4430   -1.9140 c3        1 023      0.085700
     15 C8         -0.2190   -3.7220   -1.5470 c3        1 023     -0.105100
     16 N7          1.9880   -2.7000   -1.9490 n         1 023     -0.303300
     17 O12         2.6040   -1.8840   -2.8110 oh        1 023     -0.427100
     18 C11         2.6600   -2.8970   -0.7170 c         1 023      0.619900
     19 O16         3.8600   -2.6430   -0.5590 o         1 023     -0.559100
     20 C4          0.8430    0.0090   -1.2010 c3        1 023     -0.088400
     21 C9          1.8160    0.2920   -0.0760 c3        1 023     -0.077400
     22 C13         2.6920    1.4880   -0.4000 c3        1 023     -0.034100
     23 C17         3.7610    1.6770    0.6190 ca        1 023     -0.083300
     24 C23         4.7550    0.7030    0.7840 ca        1 023     -0.127000
     25 C26         5.7670    0.8860    1.7240 ca        1 023     -0.130000
     26 C28         5.7980    2.0420    2.5060 ca        1 023     -0.134000
     27 C27         4.8110    3.0140    2.3450 ca        1 023     -0.130000
     28 C24         3.7970    2.8330    1.4050 ca        1 023     -0.127000
     29 H251       -3.7670    3.9820   -0.9180 h1        1 023      0.046033
     30 H252       -3.8380    3.6310   -2.7110 h1        1 023      0.046033
     31 H253       -5.3820    3.7340   -1.7420 h1        1 023      0.046033
     32 H18        -4.6870    1.3890   -2.0800 hn        1 023      0.315500
     33 H10        -3.9030   -0.5500   -1.2000 h1        1 023      0.093700
     34 H5         -1.6130   -0.1630    0.6490 hn        1 023      0.324500
     35 H221       -6.1400    0.0670   -0.2520 hc        1 023      0.042811
     36 H222       -6.4570   -0.2020    1.5110 hc        1 023      0.042811
     37 H223       -5.6200    1.3090    0.9700 hc        1 023      0.042811
     38 H211       -3.6440   -2.5450    0.9470 hc        1 023      0.042811
     39 H212       -5.2740   -2.3120    1.7010 hc        1 023      0.042811
     40 H213       -5.0980   -2.2780   -0.1040 hc        1 023      0.042811
     41 H201       -3.3950    0.9290    2.2450 hc        1 023      0.042811
     42 H202       -4.5370   -0.2180    3.0700 hc        1 023      0.042811
     43 H203       -2.9220   -0.8060    2.5110 hc        1 023      0.042811
     44 H1          0.2410   -1.6420    0.0870 hc        1 023      0.065700
     45 H3          0.2450   -2.1450   -2.9680 h1        1 023      0.107700
     46 H41C        1.3920   -0.0320   -2.1800 hc        1 023      0.066200
     47 H42C        0.1220    0.8670   -1.2780 hc        1 023      0.066200
     48 H81C       -1.3100   -3.5490   -1.7210 hc        1 023      0.051367
     49 H82C        0.1090   -4.5750   -2.1880 hc        1 023      0.051367
     50 H83C       -0.0640   -3.9970   -0.4770 hc        1 023      0.051367
     51 H12         3.2330   -2.4530   -3.2980 ho        1 023      0.426000
     52 H11         2.0310   -3.4110    0.0450 h5        1 023      0.039200
     53 H91C        1.2530    0.4840    0.8750 hc        1 023      0.044700
     54 H92C        2.4700   -0.6050    0.0970 hc        1 023      0.044700
     55 H131        3.1710    1.3350   -1.4050 hc        1 023      0.052700
     56 H132        2.0530    2.4080   -0.4710 hc        1 023      0.052700
     57 H23         4.7320   -0.2130    0.1700 ha        1 023      0.139500
     58 H24         3.0210    3.6040    1.2820 ha        1 023      0.139500
     59 H26         6.5430    0.1170    1.8480 ha        1 023      0.130000
     60 H28         6.5980    2.1850    3.2460 ha        1 023      0.128000
     61 H27         4.8320    3.9260    2.9590 ha        1 023      0.130000
@<TRIPOS>BOND
     1    1    2 1   
     2    1   29 1   
     3    1   30 1   
     4    1   31 1   
     5    2    3 1   
     6    2   32 1   
     7    3    4 2   
     8    3    5 1   
     9    5    6 1   
    10    5   10 1   
    11    5   33 1   
    12    6    7 1   
    13    6    8 1   
    14    6    9 1   
    15    7   35 1   
    16    7   36 1   
    17    7   37 1   
    18    8   38 1   
    19    8   39 1   
    20    8   40 1   
    21    9   41 1   
    22    9   42 1   
    23    9   43 1   
    24   10   11 1   
    25   10   34 1   
    26   11   12 2   
    27   11   13 1   
    28   13   14 1   
    29   13   20 1   
    30   13   44 1   
    31   14   15 1   
    32   14   16 1   
    33   14   45 1   
    34   15   48 1   
    35   15   49 1   
    36   15   50 1   
    37   16   17 1   
    38   16   18 1   
    39   17   51 1   
    40   18   19 2   
    41   18   52 1   
    42   20   21 1   
    43   20   46 1   
    44   20   47 1   
    45   21   22 1   
    46   21   53 1   
    47   21   54 1   
    48   22   23 1   
    49   22   55 1   
    50   22   56 1   
    51   23   24 ar  
    52   23   28 ar  
    53   24   25 ar  
    54   24   57 1   
    55   25   26 ar  
    56   25   59 1   
    57   26   27 ar  
    58   26   60 1   
    59   27   28 ar  
    60   27   61 1   
    61   28   58 1   
@<TRIPOS>SUBSTRUCTURE
     1 023         1 TEMP              0 ****  ****    0 ROOT
