@<TRIPOS>MOLECULE
024
   46    48     1     0     0
SMALL
bcc


@<TRIPOS>ATOM
      1 S1          0.0580    1.1360    0.6230 ss        1 024      0.115200
      2 C2          1.3880    0.4440    1.3480 cc        1 024     -0.146700
      3 C3          1.0550   -0.0760    2.5890 cd        1 024      0.062100
      4 C4         -0.3340    0.1240    2.9110 cd        1 024     -0.035900
      5 C5         -0.9890    0.7890    1.8810 cc        1 024     -0.128100
      6 C6          2.7360    0.4590    0.6500 c         1 024      0.939200
      7 O7          3.1440    1.5640    0.2070 o         1 024     -0.807800
      8 O8          3.3530   -0.6360    0.5250 o         1 024     -0.807800
      9 C9         -2.3880    1.1610    1.8350 ca        1 024      0.046000
     10 C10        -3.3790    0.1760    1.9100 ca        1 024     -0.155000
     11 C11        -4.7460    0.5200    1.8610 ca        1 024      0.124600
     12 C12        -5.0910    1.8880    1.7430 ca        1 024     -0.195000
     13 C13        -4.0990    2.8570    1.6600 ca        1 024     -0.108000
     14 C14        -2.7530    2.5090    1.7050 ca        1 024     -0.154000
     15 BR19       -1.1270   -0.3850    4.5080 br        1 024     -0.088100
     16 O20         1.9160   -0.6060    3.5280 os        1 024     -0.291900
     17 C21         2.6210   -1.7750    3.1250 c3        1 024      0.071400
     18 C22         1.9690   -3.0150    3.6840 c         1 024      0.616100
     19 O25         0.7930   -3.3730    3.1000 oh        1 024     -0.593100
     20 O26         2.3870   -3.7750    4.5670 o         1 024     -0.587000
     21 N27        -5.7710   -0.4510    1.8310 nh        1 024     -0.710600
     22 C28        -5.5320   -1.7420    2.4580 c3        1 024      0.187500
     23 C30        -5.2130   -1.6810    3.9630 c3        1 024     -0.095400
     24 C31        -4.9150   -3.0620    4.5030 c3        1 024     -0.074900
     25 C32        -6.0640   -4.0170    4.2530 c3        1 024     -0.078400
     26 C33        -6.4230   -4.0620    2.7830 c3        1 024     -0.074900
     27 C34        -6.7320   -2.6820    2.2440 c3        1 024     -0.095400
     28 H10        -3.0640   -0.8750    2.0070 ha        1 024      0.147000
     29 H12        -6.1470    2.1930    1.7070 ha        1 024      0.118000
     30 H13        -4.3850    3.9150    1.5610 ha        1 024      0.121000
     31 H14        -1.9740    3.2840    1.6490 ha        1 024      0.141000
     32 H211        3.6340   -1.6650    3.5990 h1        1 024      0.123200
     33 H212        2.7110   -1.8550    2.0020 h1        1 024      0.123200
     34 HN27        0.4480   -4.1720    3.5290 ho        1 024      0.423000
     35 H28        -4.6420   -2.2020    1.9320 h1        1 024      0.072700
     36 H301       -4.3250   -1.0160    4.1290 hc        1 024      0.046450
     37 H302       -6.0830   -1.2390    4.5150 hc        1 024      0.046450
     38 H311       -3.9840   -3.4600    4.0190 hc        1 024      0.042200
     39 H312       -4.7160   -2.9950    5.6050 hc        1 024      0.042200
     40 H321       -6.9580   -3.6920    4.8470 hc        1 024      0.034200
     41 H322       -5.7830   -5.0450    4.6030 hc        1 024      0.034200
     42 H331       -7.3140   -4.7260    2.6330 hc        1 024      0.042200
     43 H332       -5.5710   -4.5070    2.2040 hc        1 024      0.042200
     44 H341       -6.9690   -2.7520    1.1510 hc        1 024      0.046450
     45 H342       -7.6360   -2.2690    2.7640 hc        1 024      0.046450
     46 H272       -6.6510   -0.0650    2.1150 hn        1 024      0.373800
@<TRIPOS>BOND
     1    1    2 1   
     2    1    5 1   
     3    2    3 2   
     4    2    6 1   
     5    3    4 1   
     6    3   16 1   
     7    4    5 2   
     8    4   15 1   
     9    5    9 1   
    10    6    7 1   
    11    6    8 1   
    12    9   10 ar  
    13    9   14 ar  
    14   10   11 ar  
    15   10   28 1   
    16   11   12 ar  
    17   11   21 1   
    18   12   13 ar  
    19   12   29 1   
    20   13   14 ar  
    21   13   30 1   
    22   14   31 1   
    23   16   17 1   
    24   17   18 1   
    25   17   32 1   
    26   17   33 1   
    27   18   19 1   
    28   18   20 2   
    29   19   34 1   
    30   21   22 1   
    31   21   46 1   
    32   22   23 1   
    33   22   27 1   
    34   22   35 1   
    35   23   24 1   
    36   23   36 1   
    37   23   37 1   
    38   24   25 1   
    39   24   38 1   
    40   24   39 1   
    41   25   26 1   
    42   25   40 1   
    43   25   41 1   
    44   26   27 1   
    45   26   42 1   
    46   26   43 1   
    47   27   44 1   
    48   27   45 1   
@<TRIPOS>SUBSTRUCTURE
     1 024         1 TEMP              0 ****  ****    0 ROOT
