@<TRIPOS>MOLECULE
024
   45    41     1     0     0
SMALL
bcc


@<TRIPOS>ATOM
      1 S1          3.5310   -0.4360    1.6460 ss        1 024      0.571000
      2 C2          4.8460   -0.1290    0.8740 c1        1 024     -0.422000
      3 C3          4.5890    0.9990   -0.0240 c1        1 024      0.094000
      4 C4          3.0620    1.4520    0.1600 c1        1 024     -0.186000
      5 C5          2.4460    0.5870    1.1580 c2        1 024     -0.428000
      6 C6          6.1750   -0.8400    1.0560 c1        1 024      0.388000
      7 O7          6.4850   -1.7840    0.3040 o         1 024     -0.553500
      8 O8          6.9510   -0.4890    1.9720 o         1 024     -0.553500
      9 C9          1.1350    0.6450    1.5820 c1        1 024      0.076000
     10 C10         0.2070   -0.2360    1.0720 c1        1 024     -0.176000
     11 C11        -1.1100   -0.2120    1.5390 c1        1 024      0.007000
     12 C12        -1.4790    0.6900    2.5060 c1        1 024     -0.174000
     13 C13        -0.5440    1.5770    3.0190 c1        1 024     -0.130000
     14 C14         0.7630    1.5520    2.5550 c1        1 024     -0.130000
     15 BR19        2.2230    2.9380   -0.7050 br        1 024      0.038000
     16 O20         5.5330    1.6210   -0.8480 o         1 024     -0.170000
     17 C21         5.3530    1.3520   -2.2540 c3        1 024     -0.094000
     18 C22         6.3030    2.2440   -3.0710 c2        1 024      0.337000
     19 O25         6.3150    2.1630   -4.3510 o         1 024     -0.586000
     20 O26         7.0090    3.1040   -2.4910 o         1 024     -0.586000
     21 N27        -2.0670   -1.1730    1.0490 n3        1 024     -0.255000
     22 C28        -3.0980   -0.7610    0.1290 c3        1 024     -0.014000
     23 C30        -2.9260   -1.5220   -1.1630 c3        1 024     -0.173500
     24 C31        -4.0660   -1.2930   -2.1260 c3        1 024     -0.151500
     25 C32        -5.4400   -1.5360   -1.4780 c3        1 024     -0.156000
     26 C33        -5.6130   -0.7780   -0.1990 c3        1 024     -0.151500
     27 C34        -4.4590   -1.0050    0.7730 c3        1 024     -0.173500
     28 H10         0.4790   -0.9000    0.3570 ha        1 024      0.141000
     29 H12        -2.3960    0.6770    2.8680 ha        1 024      0.114000
     30 H13        -0.8090    2.2310    3.7190 ha        1 024      0.130500
     31 H14         1.4090    2.1650    2.9110 ha        1 024      0.130500
     32 H211        5.5540    0.4060   -2.4360 h1        1 024      0.093000
     33 H212        4.4430    1.5410   -2.5030 h1        1 024      0.093000
     34 HN27       -1.9910   -2.0410    1.2780 hn        1 024      0.164000
     35 H28        -3.0000    0.1880   -0.0490 h1        1 024      0.098000
     36 H301       -2.1040   -1.2430   -1.5820 hc        1 024      0.088750
     37 H302       -2.8700   -2.5130   -0.9530 hc        1 024      0.088750
     38 H311       -4.0270   -0.3660   -2.4480 hc        1 024      0.073500
     39 H312       -3.9630   -1.8990   -2.8900 hc        1 024      0.073500
     40 H321       -6.1420   -1.2640   -2.1070 hc        1 024      0.071500
     41 H322       -5.5330   -2.4530   -1.2990 hc        1 024      0.071500
     42 H331       -5.6700    0.1760   -0.4040 hc        1 024      0.073500
     43 H332       -6.4480   -1.0610    0.2280 hc        1 024      0.073500
     44 H341       -4.5610   -0.4120    1.5190 hc        1 024      0.088750
     45 H342       -4.4960   -1.9620    1.1070 hc        1 024      0.088750
@<TRIPOS>BOND
     1    1    2 1   
     2    1    5 1   
     3    2    3 1   
     4    3    4 1   
     5    4    5 1   
     6    5    9 1   
     7    6    7 1   
     8    6    8 1   
     9    9   10 1   
    10   10   28 1   
    11   11   12 1   
    12   11   21 1   
    13   12   29 1   
    14   13   14 1   
    15   13   30 1   
    16   14   31 1   
    17   16   17 1   
    18   17   18 1   
    19   17   32 1   
    20   17   33 1   
    21   18   19 1   
    22   18   20 1   
    23   21   22 1   
    24   21   34 1   
    25   22   23 1   
    26   22   27 1   
    27   22   35 1   
    28   23   24 1   
    29   23   36 1   
    30   23   37 1   
    31   24   25 1   
    32   24   38 1   
    33   24   39 1   
    34   25   26 1   
    35   25   40 1   
    36   25   41 1   
    37   26   27 1   
    38   26   42 1   
    39   26   43 1   
    40   27   44 1   
    41   27   45 1   
@<TRIPOS>SUBSTRUCTURE
     1 024         1 TEMP              0 ****  ****    0 ROOT
