@<TRIPOS>MOLECULE
024
   45    47     1     0     0
SMALL
bcc


@<TRIPOS>ATOM
      1 S1         -0.1410   -0.1700    0.3800 ss        1 024      0.031200
      2 C2          1.4730   -0.5580    0.5810 cc        1 024     -0.172700
      3 C3          1.8190   -0.5820    1.9250 cd        1 024      0.139100
      4 C4          0.6890   -0.2460    2.7650 cd        1 024     -0.044900
      5 C5         -0.4530    0.0140    2.0120 cc        1 024     -0.157100
      6 C6          2.2930   -0.7960   -0.6720 c         1 024      0.939200
      7 O7          2.0060   -1.8100   -1.3710 o         1 024     -0.818800
      8 O8          3.1550    0.0650   -0.9940 o         1 024     -0.818800
      9 C9         -1.7620    0.3840    2.4940 ca        1 024      0.076000
     10 C10        -2.8880   -0.3270    2.0570 ca        1 024     -0.177000
     11 C11        -4.1830    0.0140    2.5010 ca        1 024      0.089600
     12 C12        -4.3310    1.0900    3.3990 ca        1 024     -0.174000
     13 C13        -3.2090    1.7940    3.8280 ca        1 024     -0.126000
     14 C14        -1.9350    1.4550    3.3850 ca        1 024     -0.134000
     15 BR19        0.7310   -0.2110    4.6220 br        1 024     -0.102100
     16 O20         2.9980   -0.8600    2.5470 os        1 024     -0.286900
     17 C21         4.0800   -1.3150    1.7170 c3        1 024      0.006400
     18 C22         5.2200   -1.7360    2.6770 c         1 024      0.917600
     19 O25         5.3300   -2.9630    2.9640 o         1 024     -0.851300
     20 O26         6.0240   -0.8510    3.0850 o         1 024     -0.851300
     21 N27        -5.3270   -0.6610    1.9860 nh        1 024     -0.699600
     22 C28        -6.1860   -1.2940    2.9800 c3        1 024      0.183500
     23 C30        -7.5260   -1.7170    2.3520 c3        1 024     -0.094900
     24 C31        -8.4590   -2.2610    3.4130 c3        1 024     -0.072900
     25 C32        -7.8430   -3.4340    4.1480 c3        1 024     -0.077400
     26 C33        -6.4990   -3.0610    4.7390 c3        1 024     -0.072900
     27 C34        -5.5640   -2.5130    3.6830 c3        1 024     -0.094900
     28 H10        -2.7400   -1.1640    1.3560 ha        1 024      0.141000
     29 H12        -5.3270    1.3850    3.7570 ha        1 024      0.114000
     30 H13        -3.3360    2.6340    4.5270 ha        1 024      0.112000
     31 H14        -1.0560    2.0200    3.7290 ha        1 024      0.149000
     32 H211        4.4000   -0.4760    1.0480 h1        1 024      0.053700
     33 H212        3.7350   -2.1840    1.1000 h1        1 024      0.053700
     34 HN27       -5.0540   -1.3310    1.2890 hn        1 024      0.368800
     35 H28        -6.4070   -0.5170    3.7720 h1        1 024      0.058700
     36 H301       -8.0040   -0.8370    1.8490 hc        1 024      0.049450
     37 H302       -7.3460   -2.5000    1.5710 hc        1 024      0.049450
     38 H311       -8.7040   -1.4490    4.1470 hc        1 024      0.034200
     39 H312       -9.4200   -2.5810    2.9330 hc        1 024      0.034200
     40 H321       -8.5340   -3.7730    4.9630 hc        1 024      0.032200
     41 H322       -7.7130   -4.2920    3.4370 hc        1 024      0.032200
     42 H331       -6.6450   -2.2950    5.5450 hc        1 024      0.034200
     43 H332       -6.0350   -3.9640    5.2150 hc        1 024      0.034200
     44 H341       -4.5930   -2.2150    4.1590 hc        1 024      0.049450
     45 H342       -5.3400   -3.3110    2.9280 hc        1 024      0.049450
@<TRIPOS>BOND
     1    1    2 1   
     2    1    5 1   
     3    2    3 2   
     4    2    6 1   
     5    3    4 1   
     6    3   16 1   
     7    4    5 2   
     8    4   15 1   
     9    5    9 1   
    10    6    7 1   
    11    6    8 1   
    12    9   10 ar  
    13    9   14 ar  
    14   10   11 ar  
    15   10   28 1   
    16   11   12 ar  
    17   11   21 1   
    18   12   13 ar  
    19   12   29 1   
    20   13   14 ar  
    21   13   30 1   
    22   14   31 1   
    23   16   17 1   
    24   17   18 1   
    25   17   32 1   
    26   17   33 1   
    27   18   19 1   
    28   18   20 1   
    29   21   22 1   
    30   21   34 1   
    31   22   23 1   
    32   22   27 1   
    33   22   35 1   
    34   23   24 1   
    35   23   36 1   
    36   23   37 1   
    37   24   25 1   
    38   24   38 1   
    39   24   39 1   
    40   25   26 1   
    41   25   40 1   
    42   25   41 1   
    43   26   27 1   
    44   26   42 1   
    45   26   43 1   
    46   27   44 1   
    47   27   45 1   
@<TRIPOS>SUBSTRUCTURE
     1 024         1 TEMP              0 ****  ****    0 ROOT
