@<TRIPOS>MOLECULE
024
   45    47     1     0     0
SMALL
bcc


@<TRIPOS>ATOM
      1 S1         -0.1410   -0.1620    0.3810 ss        1 024      0.031200
      2 C2          1.4730   -0.5540    0.5810 cc        1 024     -0.172700
      3 C3          1.8190   -0.5840    1.9250 cd        1 024      0.139100
      4 C4          0.6890   -0.2490    2.7660 cd        1 024     -0.045900
      5 C5         -0.4520    0.0150    2.0140 cc        1 024     -0.158100
      6 C6          2.2930   -0.7880   -0.6730 c         1 024      0.939200
      7 O7          2.0020   -1.7960   -1.3790 o         1 024     -0.818800
      8 O8          3.1600    0.0700   -0.9880 o         1 024     -0.818800
      9 C9         -1.7600    0.3860    2.4970 ca        1 024      0.076000
     10 C10        -2.8880   -0.3230    2.0590 ca        1 024     -0.177000
     11 C11        -4.1820    0.0190    2.5030 ca        1 024      0.088600
     12 C12        -4.3290    1.0920    3.4050 ca        1 024     -0.174000
     13 C13        -3.2060    1.7940    3.8350 ca        1 024     -0.126000
     14 C14        -1.9330    1.4550    3.3910 ca        1 024     -0.134000
     15 Br19        0.7300   -0.2210    4.6230 br        1 024     -0.102100
     16 O20         2.9970   -0.8660    2.5470 os        1 024     -0.286900
     17 C21         4.0770   -1.3260    1.7150 c3        1 024      0.006400
     18 C22         5.2140   -1.7570    2.6750 c         1 024      0.917600
     19 O25         5.3160   -2.9860    2.9580 o         1 024     -0.851300
     20 O26         6.0230   -0.8780    3.0860 o         1 024     -0.851300
     21 N27        -5.3270   -0.6530    1.9870 nu        1 024     -0.699600
     22 C28        -6.1860   -1.2890    2.9810 c3        1 024      0.183500
     23 C30        -7.5260   -1.7100    2.3530 c3        1 024     -0.094900
     24 C31        -8.4580   -2.2570    3.4140 c3        1 024     -0.072900
     25 C32        -7.8420   -3.4330    4.1430 c3        1 024     -0.077400
     26 C33        -6.4970   -3.0630    4.7340 c3        1 024     -0.072900
     27 C34        -5.5640   -2.5120    3.6790 c3        1 024     -0.094900
     28 H10        -2.7410   -1.1580    1.3550 ha        1 024      0.141000
     29 H12        -5.3240    1.3880    3.7640 ha        1 024      0.114000
     30 H13        -3.3310    2.6320    4.5360 ha        1 024      0.112000
     31 H14        -1.0520    2.0180    3.7360 ha        1 024      0.149000
     32 H211        3.7270   -2.1900    1.0960 h1        1 024      0.053700
     33 H212        4.4020   -0.4860    1.0500 h1        1 024      0.053700
     34 HN27       -5.0550   -1.3220    1.2880 hn        1 024      0.368800
     35 H28        -6.4040   -0.5150    3.7760 h1        1 024      0.058700
     36 H301       -8.0050   -0.8280    1.8540 hc        1 024      0.049450
     37 H302       -7.3490   -2.4900    1.5690 hc        1 024      0.049450
     38 H311       -9.4210   -2.5750    2.9340 hc        1 024      0.034200
     39 H312       -8.7020   -1.4470    4.1510 hc        1 024      0.034200
     40 H321       -7.7140   -4.2880    3.4290 hc        1 024      0.032200
     41 H322       -8.5320   -3.7740    4.9580 hc        1 024      0.032200
     42 H331       -6.6410   -2.2990    5.5420 hc        1 024      0.034200
     43 H332       -6.0330   -3.9680    5.2060 hc        1 024      0.034200
     44 H341       -5.3410   -3.3070    2.9200 hc        1 024      0.049450
     45 H342       -4.5910   -2.2160    4.1540 hc        1 024      0.049450
@<TRIPOS>BOND
     1    1    2 1   
     2    1    5 1   
     3    2    3 2   
     4    2    6 1   
     5    3    4 1   
     6    3   16 1   
     7    4    5 2   
     8    4   15 1   
     9    5    9 1   
    10    6    7 1   
    11    6    8 1   
    12    9   10 ar  
    13    9   14 ar  
    14   10   11 ar  
    15   10   28 1   
    16   11   12 ar  
    17   11   21 1   
    18   12   13 ar  
    19   12   29 1   
    20   13   14 ar  
    21   13   30 1   
    22   14   31 1   
    23   16   17 1   
    24   17   18 1   
    25   17   32 1   
    26   17   33 1   
    27   18   19 1   
    28   18   20 1   
    29   21   22 1   
    30   21   34 1   
    31   22   23 1   
    32   22   27 1   
    33   22   35 1   
    34   23   24 1   
    35   23   36 1   
    36   23   37 1   
    37   24   25 1   
    38   24   38 1   
    39   24   39 1   
    40   25   26 1   
    41   25   40 1   
    42   25   41 1   
    43   26   27 1   
    44   26   42 1   
    45   26   43 1   
    46   27   44 1   
    47   27   45 1   
@<TRIPOS>SUBSTRUCTURE
     1 024         1 TEMP              0 ****  ****    0 ROOT
