@<TRIPOS>MOLECULE
024
   45    47     1     0     0
SMALL
bcc


@<TRIPOS>ATOM
      1 S1          0.8140    1.8950    0.3040 ss        1 024      0.031200
      2 C2          2.3020    1.3570   -0.2360 cc        1 024     -0.172700
      3 C3          2.3730   -0.0290   -0.2120 cd        1 024      0.139100
      4 C4          1.1450   -0.6110    0.2910 cd        1 024     -0.045900
      5 C5          0.2110    0.3670    0.6200 cc        1 024     -0.158100
      6 C6          3.3200    2.4080   -0.6340 c         1 024      0.939200
      7 O7          3.0590    3.1140   -1.6500 o         1 024     -0.818800
      8 O8          4.3240    2.5780    0.1080 o         1 024     -0.818800
      9 C9         -1.1160    0.1750    1.1530 ca        1 024      0.076000
     10 C10        -2.2090    0.7990    0.5350 ca        1 024     -0.176000
     11 C11        -3.5180    0.6400    1.0350 ca        1 024      0.088600
     12 C12        -3.7160   -0.1650    2.1750 ca        1 024     -0.174000
     13 C13        -2.6270   -0.7810    2.7860 ca        1 024     -0.126000
     14 C14        -1.3380   -0.6180    2.2910 ca        1 024     -0.134000
     15 BR19        0.8260   -2.4340    0.4370 br        1 024     -0.102100
     16 O20         3.3670   -0.8880   -0.5720 os        1 024     -0.286900
     17 C21         4.5290   -0.3130   -1.1940 c3        1 024      0.006400
     18 C22         5.3990   -1.5000   -1.6760 c         1 024      0.917600
     19 O25         5.3040   -1.8510   -2.8870 o         1 024     -0.851300
     20 O26         6.2070   -2.0270   -0.8600 o         1 024     -0.851300
     21 N27        -4.6080    1.3460    0.4510 nh        1 024     -0.699600
     22 C28        -5.7110    0.5180   -0.0280 c3        1 024      0.183500
     23 C30        -6.9410    1.3830   -0.3510 c3        1 024     -0.094900
     24 C31        -8.1180    0.5090   -0.7290 c3        1 024     -0.072900
     25 C32        -7.7930   -0.3810   -1.9110 c3        1 024     -0.077400
     26 C33        -6.5560   -1.2130   -1.6410 c3        1 024     -0.072900
     27 C34        -5.3780   -0.3450   -1.2580 c3        1 024     -0.094900
     28 H10        -2.0230    1.4210   -0.3550 ha        1 024      0.141000
     29 H12        -4.7220   -0.3030    2.5940 ha        1 024      0.114000
     30 H13        -2.7920   -1.4050    3.6770 ha        1 024      0.112000
     31 H14        -0.4840   -1.1080    2.7830 ha        1 024      0.149000
     32 H211        5.0720    0.3100   -0.4380 h1        1 024      0.053700
     33 H212        4.2110    0.3260   -2.0560 h1        1 024      0.053700
     34 HN27       -4.2820    1.9450   -0.2860 hn        1 024      0.368800
     35 H28        -5.9920   -0.1810    0.8160 h1        1 024      0.058700
     36 H301       -7.2110    2.0080    0.5400 hc        1 024      0.049450
     37 H302       -6.7030    2.0800   -1.1960 hc        1 024      0.049450
     38 H311       -8.4090   -0.1270    0.1480 hc        1 024      0.034200
     39 H312       -8.9980    1.1590   -0.9790 hc        1 024      0.034200
     40 H321       -8.6620   -1.0550   -2.1260 hc        1 024      0.032200
     41 H322       -7.6240    0.2530   -2.8200 hc        1 024      0.032200
     42 H331       -6.7690   -1.9420   -0.8140 hc        1 024      0.034200
     43 H332       -6.2980   -1.8090   -2.5550 hc        1 024      0.034200
     44 H341       -5.1030    0.3170   -2.1200 hc        1 024      0.049450
     45 H342       -4.4910   -0.9930   -1.0320 hc        1 024      0.049450
@<TRIPOS>BOND
     1    1    2 1   
     2    1    5 1   
     3    2    3 2   
     4    2    6 1   
     5    3    4 1   
     6    3   16 1   
     7    4    5 2   
     8    4   15 1   
     9    5    9 1   
    10    6    7 1   
    11    6    8 1   
    12    9   10 ar  
    13    9   14 ar  
    14   10   11 ar  
    15   10   28 1   
    16   11   12 ar  
    17   11   21 1   
    18   12   13 ar  
    19   12   29 1   
    20   13   14 ar  
    21   13   30 1   
    22   14   31 1   
    23   16   17 1   
    24   17   18 1   
    25   17   32 1   
    26   17   33 1   
    27   18   19 1   
    28   18   20 1   
    29   21   22 1   
    30   21   34 1   
    31   22   23 1   
    32   22   27 1   
    33   22   35 1   
    34   23   24 1   
    35   23   36 1   
    36   23   37 1   
    37   24   25 1   
    38   24   38 1   
    39   24   39 1   
    40   25   26 1   
    41   25   40 1   
    42   25   41 1   
    43   26   27 1   
    44   26   42 1   
    45   26   43 1   
    46   27   44 1   
    47   27   45 1   
@<TRIPOS>SUBSTRUCTURE
     1 024         1 TEMP              0 ****  ****    0 ROOT
