@<TRIPOS>MOLECULE
025
   18    17     1     0     0
SMALL
bcc


@<TRIPOS>ATOM
      1 C1         -0.3800    0.2290   -0.4620 c2        1 025     -0.978000
      2 S11        -0.6130   -0.1610   -2.3020 s6        1 025      2.881000
      3 O24        -1.8730    0.3370   -2.6330 o         1 025     -1.045333
      4 O25         0.4660    0.5130   -2.8880 o         1 025     -1.045333
      5 C2          0.9090   -0.3690   -0.0910 c3        1 025     -0.012000
      6 C3          1.4240   -0.0330    1.2620 c2        1 025     -0.061000
      7 C4          0.7230    0.3260    2.2990 c1        1 025     -0.110000
      8 C5          0.0580    0.7320    3.3400 c2        1 025     -0.198000
      9 C6         -0.4800   -0.2000    4.4120 c3        1 025      0.461000
     10 F61         0.4590   -0.5950    5.3400 f         1 025     -0.177667
     11 F1         -1.4680    0.3680    5.1840 f         1 025     -0.177667
     12 F6         -1.0300   -1.3800    3.9820 f         1 025     -0.177667
     13 C10        -1.2770    0.9020    0.1690 c1        1 025      0.147000
     14 H2          0.8220   -1.4950   -0.1590 hc        1 025      0.119000
     15 H3          1.6870   -0.0470   -0.8450 hc        1 025      0.119000
     16 H4          2.5230   -0.1170    1.3680 ha        1 025      0.134000
     17 H10        -0.1740    1.7930    3.5260 ha        1 025      0.167000
     18 O1         -0.4940   -1.5560   -2.3270 o         1 025     -1.045333
@<TRIPOS>BOND
     1    1    2 1   
     2    1    5 1   
     3    1   13 1   
     4    2    3 1   
     5    2    4 1   
     6    2   18 1   
     7    5    6 1   
     8    5   14 1   
     9    5   15 1   
    10    6    7 1   
    11    6   16 1   
    12    7    8 1   
    13    8    9 1   
    14    8   17 1   
    15    9   10 1   
    16    9   11 1   
    17    9   12 1   
@<TRIPOS>SUBSTRUCTURE
     1 025         1 TEMP              0 ****  ****    0 ROOT
