@<TRIPOS>MOLECULE
025
   18    17     1     0     0
SMALL
bcc


@<TRIPOS>ATOM
      1 C1         -0.3800    0.2300   -0.4630 c2        1 025     -0.978000
      2 S11        -0.6120   -0.1620   -2.3020 s6        1 025      2.881000
      3 O24        -1.8720    0.3360   -2.6340 o         1 025     -1.045333
      4 O25         0.4670    0.5110   -2.8880 o         1 025     -1.045333
      5 C2          0.9080   -0.3690   -0.0900 c3        1 025     -0.011000
      6 C3          1.4230   -0.0310    1.2620 c2        1 025     -0.061000
      7 C4          0.7220    0.3270    2.2990 c1        1 025     -0.110000
      8 C5          0.0570    0.7320    3.3400 c2        1 025     -0.198000
      9 C6         -0.4790   -0.2000    4.4120 c3        1 025      0.461000
     10 F61         0.4620   -0.6010    5.3360 f         1 025     -0.177667
     11 F1         -1.4630    0.3680    5.1900 f         1 025     -0.177667
     12 F6         -1.0350   -1.3780    3.9820 f         1 025     -0.177667
     13 C10        -1.2770    0.9030    0.1670 c1        1 025      0.147000
     14 H2          0.8210   -1.4950   -0.1570 hc        1 025      0.119000
     15 H3          1.6870   -0.0480   -0.8450 hc        1 025      0.119000
     16 H4          2.5230   -0.1130    1.3680 ha        1 025      0.134000
     17 H10        -0.1780    1.7920    3.5260 ha        1 025      0.167000
     18 O1         -0.4940   -1.5560   -2.3260 o         1 025     -1.045333
@<TRIPOS>BOND
     1    1    2 1   
     2    1    5 1   
     3    1   13 1   
     4    2    3 1   
     5    2    4 1   
     6    2   18 1   
     7    5    6 1   
     8    5   14 1   
     9    5   15 1   
    10    6    7 1   
    11    6   16 1   
    12    7    8 1   
    13    8    9 1   
    14    8   17 1   
    15    9   10 1   
    16    9   11 1   
    17    9   12 1   
@<TRIPOS>SUBSTRUCTURE
     1 025         1 TEMP              0 ****  ****    0 ROOT
