@<TRIPOS>MOLECULE
025
   18    14     1     0     0
SMALL
bcc


@<TRIPOS>ATOM
      1 C1         -0.0630   -0.0200   -1.1380 c1        1 025     -0.696000
      2 S11        -0.9420    0.0040   -2.6770 ss        1 025      2.873000
      3 O24        -2.2890    0.6720   -2.5290 o         1 025     -1.065000
      4 O25        -0.2710    0.9150   -3.6770 o         1 025     -1.065000
      5 C2          1.3230   -0.0310   -1.1310 c1        1 025     -0.017000
      6 C3          2.0100   -0.0410    0.0730 c1        1 025     -0.128500
      7 C4          1.3120   -0.0390    1.2700 c1        1 025     -0.128500
      8 C5         -0.0740   -0.0280    1.2630 c1        1 025     -0.202000
      9 C6         -0.8360    0.0160    2.5690 c3        1 025      0.468000
     10 F61        -1.0550    1.2910    2.9150 f         1 025     -0.181667
     11 F1         -2.0080   -0.6150    2.4240 f         1 025     -0.181667
     12 F6         -0.1190   -0.5890    3.5250 f         1 025     -0.181667
     13 C10        -0.7620   -0.0190    0.0600 c2        1 025      0.006000
     14 H2          1.8150   -0.0140   -1.9740 ha        1 025      0.152000
     15 H3          2.9860   -0.0480    0.0770 ha        1 025      0.121000
     16 H4          1.7960   -0.0460    2.1170 ha        1 025      0.121000
     17 H10        -1.7380   -0.0110    0.0550 ha        1 025      0.164000
     18 O1         -1.0830   -1.3970   -3.2210 os        1 025     -1.060000
@<TRIPOS>BOND
     1    1    5 1   
     2    1   13 1   
     3    2    3 1   
     4    2    4 1   
     5    5   14 1   
     6    6    7 1   
     7    6   15 1   
     8    7   16 1   
     9    8    9 1   
    10    8   13 1   
    11    9   10 1   
    12    9   11 1   
    13    9   12 1   
    14   13   17 1   
@<TRIPOS>SUBSTRUCTURE
     1 025         1 TEMP              0 ****  ****    0 ROOT
