@<TRIPOS>MOLECULE
025
   18    18     1     0     0
SMALL
bcc


@<TRIPOS>ATOM
      1 C1         -1.0280    0.4350   -0.0150 ca        1 025     -0.251500
      2 S11        -2.6160   -0.3890   -0.0720 s6        1 025      1.460100
      3 O24        -2.3780   -1.6430    0.5290 o         1 025     -0.740533
      4 O25        -3.4690    0.4660    0.6610 o         1 025     -0.740533
      5 C2         -0.9640    1.8250    0.0450 ca        1 025     -0.017000
      6 C3          0.2660    2.4880    0.0720 ca        1 025     -0.176000
      7 C4          1.4480    1.7550    0.0450 ca        1 025     -0.081000
      8 C5          1.3900    0.3580   -0.0050 ca        1 025     -0.209300
      9 C6          2.6850   -0.4340   -0.0090 c3        1 025      0.689200
     10 F61         3.7180    0.1500   -0.7100 f         1 025     -0.252967
     11 F1          3.2360   -0.6470    1.2340 f         1 025     -0.252967
     12 F6          2.6070   -1.6960   -0.5470 f         1 025     -0.252967
     13 C10         0.1580   -0.2980   -0.0330 ca        1 025      0.006000
     14 H2         -1.9060    2.4000    0.0840 ha        1 025      0.152000
     15 H3          0.3030    3.5850    0.1160 ha        1 025      0.119000
     16 H4          2.4250    2.2610    0.0590 ha        1 025      0.123000
     17 H10         0.1110   -1.4020   -0.0600 ha        1 025      0.164000
     18 O1         -2.9280   -0.4600   -1.4450 o         1 025     -0.740533
@<TRIPOS>BOND
     1    1    2 1   
     2    1    5 ar  
     3    1   13 ar  
     4    2    3 1   
     5    2    4 1   
     6    2   18 1   
     7    5    6 ar  
     8    5   14 1   
     9    6    7 ar  
    10    6   15 1   
    11    7    8 ar  
    12    7   16 1   
    13    8    9 1   
    14    8   13 ar  
    15    9   10 1   
    16    9   11 1   
    17    9   12 1   
    18   13   17 1   
@<TRIPOS>SUBSTRUCTURE
     1 025         1 TEMP              0 ****  ****    0 ROOT
