@<TRIPOS>MOLECULE
025
   18    17     1     0     0
SMALL
bcc


@<TRIPOS>ATOM
      1 C1          0.9670   -0.3690   -0.6160 ce        1 025     -0.127000
      2 S11        -1.5830    0.0160   -1.5620 s6        1 025      1.445700
      3 O24        -2.5550   -0.8500   -1.0170 o         1 025     -0.741200
      4 O25        -1.9820    1.3680   -1.6300 o         1 025     -0.741200
      5 C2          2.0950   -0.3710    0.2800 ce        1 025     -0.021000
      6 C3          2.1340   -0.2330    1.6190 cf        1 025     -0.127700
      7 C4          1.0570   -0.0620    2.4940 ch        1 025      0.040700
      8 C5          0.1970    0.0820    3.3160 c1        1 025     -0.292100
      9 C6         -0.8460    0.2540    4.3170 c3        1 025      0.760000
     10 F61        -0.3750    0.5850    5.5730 f         1 025     -0.238633
     11 F1         -1.7610    1.2440    4.0490 f         1 025     -0.238633
     12 F6         -1.6180   -0.8600    4.5540 f         1 025     -0.238633
     13 C10        -0.2830    0.0180   -0.3550 c2        1 025     -0.261100
     14 H2          1.2030   -0.7170   -1.6440 ha        1 025      0.146000
     15 H3          3.0710   -0.5130   -0.2300 ha        1 025      0.110000
     16 H4          3.1140   -0.2590    2.1360 ha        1 025      0.128000
     17 H10        -0.5760    0.3790    0.6410 h4        1 025      0.138000
     18 O1         -0.9800   -0.4660   -2.7470 o         1 025     -0.741200
@<TRIPOS>BOND
     1    1    5 1   
     2    1   13 2   
     3    1   14 1   
     4    2    3 1   
     5    2    4 1   
     6    2   13 1   
     7    2   18 1   
     8    5    6 2   
     9    5   15 1   
    10    6    7 1   
    11    6   16 1   
    12    7    8 3   
    13    8    9 1   
    14    9   10 1   
    15    9   11 1   
    16    9   12 1   
    17   13   17 1   
@<TRIPOS>SUBSTRUCTURE
     1 025         1 TEMP              0 ****  ****    0 ROOT
