@<TRIPOS>MOLECULE
026
   28    28     1     0     0
SMALL
bcc


@<TRIPOS>ATOM
      1 N26         0.1080    0.0490   -0.1340 n3        1 026     -0.822200
      2 C27         1.5430   -0.1070   -0.0230 c3        1 026      0.164800
      3 C28         2.0140   -0.1950    1.4440 c3        1 026      0.170300
      4 N29         1.2700   -1.1820    2.2180 n3        1 026     -0.743600
      5 C30        -0.1750   -1.0530    2.0720 c3        1 026      0.170300
      6 C31        -0.6240   -0.9610    0.6000 c3        1 026      0.164800
      7 C32         1.6910   -1.2370    3.6050 c3        1 026      0.188800
      8 C33         1.6070   -2.6710    4.1570 c3        1 026     -0.122400
      9 C8          2.1640   -2.6750    5.5720 c3        1 026      0.099800
     10 N9          2.1400   -4.0370    6.1870 n4        1 026     -0.839600
     11 H271        1.9210   -1.0190   -0.5710 h1        1 026      0.044450
     12 H272        2.0260    0.8000   -0.4840 h1        1 026      0.044450
     13 H281        3.0960   -0.5040    1.4400 h1        1 026      0.039200
     14 H282        1.9420    0.8310    1.9080 h1        1 026      0.039200
     15 H301       -0.5680   -0.1500    2.6260 h1        1 026      0.039200
     16 H302       -0.6490   -1.9690    2.5220 h1        1 026      0.039200
     17 H311       -0.5300   -1.9860    0.1350 h1        1 026      0.044450
     18 H312       -1.7130   -0.6740    0.5890 h1        1 026      0.044450
     19 H321        2.7620   -0.8940    3.6850 h1        1 026      0.043700
     20 H322        1.0680   -0.5690    4.2710 h1        1 026      0.043700
     21 H331        0.5390   -3.0160    4.1510 hc        1 026      0.077700
     22 H332        2.1970   -3.3610    3.4960 hc        1 026      0.077700
     23 H8C1        3.2360   -2.3210    5.5710 hx        1 026      0.112700
     24 H8C2        1.5570   -1.9900    6.2340 hx        1 026      0.112700
     25 H9N1        1.1770   -4.3870    6.2270 hn        1 026      0.461800
     26 H9N2        2.5250   -4.0040    7.1360 hn        1 026      0.461800
     27 H2         -0.1720    0.0610   -1.0970 hn        1 026      0.381800
     28 H93         2.6970   -4.6860    5.6210 hn        1 026      0.461800
@<TRIPOS>BOND
     1    1    2 1   
     2    1    6 1   
     3    1   27 1   
     4    2    3 1   
     5    2   11 1   
     6    2   12 1   
     7    3    4 1   
     8    3   13 1   
     9    3   14 1   
    10    4    5 1   
    11    4    7 1   
    12    5    6 1   
    13    5   15 1   
    14    5   16 1   
    15    6   17 1   
    16    6   18 1   
    17    7    8 1   
    18    7   19 1   
    19    7   20 1   
    20    8    9 1   
    21    8   21 1   
    22    8   22 1   
    23    9   10 1   
    24    9   23 1   
    25    9   24 1   
    26   10   25 1   
    27   10   26 1   
    28   10   28 1   
@<TRIPOS>SUBSTRUCTURE
     1 026         1 TEMP              0 ****  ****    0 ROOT
