@<TRIPOS>MOLECULE
026
   28    28     1     0     0
SMALL
bcc


@<TRIPOS>ATOM
      1 N26         0.1210    0.0440   -0.1420 n7        1 026     -0.822200
      2 C27         1.5550   -0.1090   -0.0220 c3        1 026      0.164800
      3 C28         2.0180   -0.1940    1.4470 c3        1 026      0.170300
      4 N29         1.2710   -1.1820    2.2180 n3        1 026     -0.743600
      5 C30        -0.1730   -1.0560    2.0640 c3        1 026      0.170300
      6 C31        -0.6140   -0.9670    0.5890 c3        1 026      0.164800
      7 C32         1.6850   -1.2350    3.6080 c3        1 026      0.188800
      8 C33         1.6040   -2.6700    4.1590 c3        1 026     -0.122400
      9 C8          2.1510   -2.6700    5.5780 c3        1 026      0.099800
     10 N9          2.1300   -4.0330    6.1930 nz        1 026     -0.839600
     11 H271        2.0390    0.7980   -0.4810 h1        1 026      0.044450
     12 H272        1.9380   -1.0210   -0.5670 h1        1 026      0.044450
     13 H281        1.9410    0.8330    1.9100 h1        1 026      0.039200
     14 H282        3.1010   -0.5010    1.4500 h1        1 026      0.039200
     15 H301       -0.5710   -0.1540    2.6150 h1        1 026      0.039200
     16 H302       -0.6480   -1.9730    2.5120 h1        1 026      0.039200
     17 H311       -1.7030   -0.6820    0.5720 h1        1 026      0.044450
     18 H312       -0.5140   -1.9920    0.1260 h1        1 026      0.044450
     19 H321        2.7530   -0.8870    3.6940 h1        1 026      0.043700
     20 H322        1.0550   -0.5700    4.2700 h1        1 026      0.043700
     21 H331        2.2020   -3.3560    3.5020 hc        1 026      0.077700
     22 H332        0.5380   -3.0190    4.1460 hc        1 026      0.077700
     23 H8C1        1.5350   -1.9900    6.2360 hx        1 026      0.112700
     24 H8C2        3.2210   -2.3100    5.5850 hx        1 026      0.112700
     25 H9N1        2.6950   -4.6790    5.6310 hn        1 026      0.461800
     26 H9N2        1.1690   -4.3880    6.2260 hn        1 026      0.461800
     27 H2         -0.1550    0.0540   -1.1060 hn        1 026      0.381800
     28 H93         2.5070   -3.9970    7.1440 hn        1 026      0.461800
@<TRIPOS>BOND
     1    1    2 1   
     2    1    6 1   
     3    1   27 1   
     4    2    3 1   
     5    2   11 1   
     6    2   12 1   
     7    3    4 1   
     8    3   13 1   
     9    3   14 1   
    10    4    5 1   
    11    4    7 1   
    12    5    6 1   
    13    5   15 1   
    14    5   16 1   
    15    6   17 1   
    16    6   18 1   
    17    7    8 1   
    18    7   19 1   
    19    7   20 1   
    20    8    9 1   
    21    8   21 1   
    22    8   22 1   
    23    9   10 1   
    24    9   23 1   
    25    9   24 1   
    26   10   25 1   
    27   10   26 1   
    28   10   28 1   
@<TRIPOS>SUBSTRUCTURE
     1 026         1 TEMP              0 ****  ****    0 ROOT
