@<TRIPOS>MOLECULE
026
   27    27     1     0     0
SMALL
bcc


@<TRIPOS>ATOM
      1 N26        -1.6960    1.1500   -2.6830 n3        1 026     -0.819200
      2 C27        -0.2710    1.1500   -2.6830 c3        1 026      0.161300
      3 C28         0.3080    1.1500   -1.2790 c3        1 026      0.167300
      4 N29        -0.2410    0.1160   -0.4650 n3        1 026     -0.729600
      5 C30        -1.6670    0.1160   -0.4650 c3        1 026      0.167300
      6 C31        -2.2450    0.1160   -1.8700 c3        1 026      0.161300
      7 C32         0.2400    0.2630    0.8900 c3        1 026      0.170800
      8 C33         1.0230   -0.9920    1.2930 c3        1 026     -0.086400
      9 C8          1.5550   -0.8260    2.7170 c3        1 026      0.158800
     10 N9          2.2660   -2.0020    3.0990 n3        1 026     -0.915800
     11 H271        0.0450    0.3550   -3.1550 h1        1 026      0.033700
     12 H272        0.0450    1.9440   -3.1550 h1        1 026      0.033700
     13 H281        0.1220    2.0120   -0.8610 h1        1 026      0.037450
     14 H282        1.2740    1.0270   -1.3350 h1        1 026      0.037450
     15 H301       -1.9820   -0.6780    0.0060 h1        1 026      0.037450
     16 H302       -1.9820    0.9100    0.0060 h1        1 026      0.037450
     17 H311       -2.0600   -0.7460   -2.2880 h1        1 026      0.033700
     18 H312       -3.2120    0.2390   -1.8140 h1        1 026      0.033700
     19 H321       -0.5180    0.3810    1.4940 h1        1 026      0.031200
     20 H322        0.8240    1.0420    0.9450 h1        1 026      0.031200
     21 H331        0.4340   -1.7700    1.2550 hc        1 026      0.054200
     22 H332        1.7710   -1.1200    0.6790 hc        1 026      0.054200
     23 H8C1        0.8080   -0.6830    3.3290 h1        1 026      0.024200
     24 H8C2        2.1560   -0.0570    2.7520 h1        1 026      0.024200
     25 H9N1        3.1310   -1.7860    3.2900 hn        1 026      0.348800
     26 H9N2        1.8740   -2.3670    3.8370 hn        1 026      0.348800
     27 H2         -2.0000    1.0580   -3.5380 hn        1 026      0.362800
@<TRIPOS>BOND
     1    1    2 1   
     2    1    6 1   
     3    1   27 1   
     4    2    3 1   
     5    2   11 1   
     6    2   12 1   
     7    3    4 1   
     8    3   13 1   
     9    3   14 1   
    10    4    5 1   
    11    4    7 1   
    12    5    6 1   
    13    5   15 1   
    14    5   16 1   
    15    6   17 1   
    16    6   18 1   
    17    7    8 1   
    18    7   19 1   
    19    7   20 1   
    20    8    9 1   
    21    8   21 1   
    22    8   22 1   
    23    9   10 1   
    24    9   23 1   
    25    9   24 1   
    26   10   25 1   
    27   10   26 1   
@<TRIPOS>SUBSTRUCTURE
     1 026         1 TEMP              0 ****  ****    0 ROOT
