@<TRIPOS>MOLECULE
026
   28    28     1     0     0
SMALL
bcc


@<TRIPOS>ATOM
      1 N26         0.1210    0.0450   -0.1420 n3        1 026     -0.822200
      2 C27         1.5560   -0.1140   -0.0240 c3        1 026      0.164800
      3 C28         2.0200   -0.1990    1.4440 c3        1 026      0.170300
      4 N29         1.2710   -1.1830    2.2180 n3        1 026     -0.743600
      5 C30        -0.1730   -1.0510    2.0660 c3        1 026      0.170300
      6 C31        -0.6160   -0.9620    0.5920 c3        1 026      0.164800
      7 C32         1.6870   -1.2360    3.6070 c3        1 026      0.188800
      8 C33         1.6030   -2.6700    4.1590 c3        1 026     -0.122400
      9 C8          2.1510   -2.6710    5.5780 c3        1 026      0.099800
     10 N9          2.1280   -4.0320    6.1940 n4        1 026     -0.839600
     11 H271        1.9340   -1.0290   -0.5690 h1        1 026      0.044450
     12 H272        2.0420    0.7910   -0.4860 h1        1 026      0.044450
     13 H281        3.1020   -0.5100    1.4450 h1        1 026      0.039200
     14 H282        1.9490    0.8290    1.9060 h1        1 026      0.039200
     15 H301       -0.6510   -1.9660    2.5170 h1        1 026      0.039200
     16 H302       -0.5660   -0.1460    2.6160 h1        1 026      0.039200
     17 H311       -0.5220   -1.9880    0.1300 h1        1 026      0.044450
     18 H312       -1.7040   -0.6730    0.5760 h1        1 026      0.044450
     19 H321        1.0600   -0.5680    4.2690 h1        1 026      0.043700
     20 H322        2.7570   -0.8910    3.6910 h1        1 026      0.043700
     21 H331        0.5360   -3.0160    4.1480 hc        1 026      0.077700
     22 H332        2.1980   -3.3580    3.5030 hc        1 026      0.077700
     23 H8C1        3.2220   -2.3130    5.5840 hx        1 026      0.112700
     24 H8C2        1.5380   -1.9880    6.2360 hx        1 026      0.112700
     25 H9N1        2.5060   -3.9970    7.1450 hn        1 026      0.461800
     26 H9N2        1.1650   -4.3860    6.2280 hn        1 026      0.461800
     27 H2         -0.1560    0.0540   -1.1050 hn        1 026      0.381800
     28 H93         2.6910   -4.6800    5.6310 hn        1 026      0.461800
@<TRIPOS>BOND
     1    1    2 1   
     2    1    6 1   
     3    1   27 1   
     4    2    3 1   
     5    2   11 1   
     6    2   12 1   
     7    3    4 1   
     8    3   13 1   
     9    3   14 1   
    10    4    5 1   
    11    4    7 1   
    12    5    6 1   
    13    5   15 1   
    14    5   16 1   
    15    6   17 1   
    16    6   18 1   
    17    7    8 1   
    18    7   19 1   
    19    7   20 1   
    20    8    9 1   
    21    8   21 1   
    22    8   22 1   
    23    9   10 1   
    24    9   23 1   
    25    9   24 1   
    26   10   25 1   
    27   10   26 1   
    28   10   28 1   
@<TRIPOS>SUBSTRUCTURE
     1 026         1 TEMP              0 ****  ****    0 ROOT
