@<TRIPOS>MOLECULE
026
   27    27     1     0     0
SMALL
bcc


@<TRIPOS>ATOM
      1 N26        -3.2750    0.4380   -0.1120 n3        1 026     -0.796200
      2 C27        -2.8690   -0.8780    0.3370 c3        1 026      0.149300
      3 C28        -1.4490   -1.3010   -0.0950 c3        1 026      0.131300
      4 N29        -0.4430   -0.2870    0.1930 n3        1 026     -0.727600
      5 C30        -0.8290    1.0450   -0.2510 c3        1 026      0.131300
      6 C31        -2.2610    1.4320    0.1750 c3        1 026      0.149300
      7 C32         0.8700   -0.6910   -0.2930 c3        1 026      0.171800
      8 C33         2.0050    0.2330    0.1420 c3        1 026     -0.086400
      9 C8          3.3410   -0.4260   -0.2020 c3        1 026      0.158800
     10 N9          4.4780    0.4200    0.0730 n3        1 026     -0.915800
     11 H271       -2.9250   -0.8840    1.4610 h1        1 026      0.058450
     12 H272       -3.5960   -1.6410   -0.0560 h1        1 026      0.058450
     13 H281       -1.1690   -2.2290    0.4770 h1        1 026      0.033700
     14 H282       -1.4680   -1.5690   -1.1920 h1        1 026      0.033700
     15 H301       -0.1160    1.7780    0.2190 h1        1 026      0.033700
     16 H302       -0.7420    1.1510   -1.3720 h1        1 026      0.033700
     17 H311       -2.5330    2.3930   -0.3430 h1        1 026      0.058450
     18 H312       -2.2740    1.6150    1.2860 h1        1 026      0.058450
     19 H321        1.0690   -1.7220    0.1170 h1        1 026      0.030200
     20 H322        0.8880   -0.7690   -1.4220 h1        1 026      0.030200
     21 H331        1.9210    1.2190   -0.3850 hc        1 026      0.054700
     22 H332        1.9450    0.4300    1.2440 hc        1 026      0.054700
     23 H8C1        3.3950   -1.4140    0.3470 h1        1 026      0.024200
     24 H8C2        3.3590   -0.6610   -1.3040 h1        1 026      0.024200
     25 H9N1        4.4360    0.7930    1.0000 hn        1 026      0.349800
     26 H9N2        5.3280   -0.0960   -0.0370 hn        1 026      0.349800
     27 H2         -3.4620    0.4180   -1.1000 hn        1 026      0.346800
@<TRIPOS>BOND
     1    1    2 1   
     2    1    6 1   
     3    1   27 1   
     4    2    3 1   
     5    2   11 1   
     6    2   12 1   
     7    3    4 1   
     8    3   13 1   
     9    3   14 1   
    10    4    5 1   
    11    4    7 1   
    12    5    6 1   
    13    5   15 1   
    14    5   16 1   
    15    6   17 1   
    16    6   18 1   
    17    7    8 1   
    18    7   19 1   
    19    7   20 1   
    20    8    9 1   
    21    8   21 1   
    22    8   22 1   
    23    9   10 1   
    24    9   23 1   
    25    9   24 1   
    26   10   25 1   
    27   10   26 1   
@<TRIPOS>SUBSTRUCTURE
     1 026         1 TEMP              0 ****  ****    0 ROOT
