@<TRIPOS>MOLECULE
027
   55    58     1     0     0
SMALL
bcc


@<TRIPOS>ATOM
      1 N1          0.1700   -0.4170   -0.1060 nc        1 027     -0.469300
      2 N2          1.4920   -0.3070    0.0030 n         1 027     -0.200800
      3 C3         -0.6140   -0.3100    0.9690 cd        1 027      0.528800
      4 C4          2.1770   -0.1280    1.2290 c         1 027      0.684100
      5 C5          1.3320   -0.0350    2.4420 ca        1 027     -0.108600
      6 C6         -0.0690   -0.1090    2.3250 ca        1 027     -0.138900
      7 C7         -2.6080   -0.3290   -0.4330 cc        1 027      0.494200
      8 N8         -2.0390   -0.3500    0.8580 nh        1 027     -0.714900
      9 C9         -2.4370    0.7390   -1.4070 cc        1 027     -0.264300
     10 N10        -3.8830   -0.8230   -2.1180 na        1 027     -0.013600
     11 N11        -3.4990   -1.2660   -0.9260 nd        1 027     -0.550800
     12 N12         1.8050    0.3270    6.1170 nh        1 027     -0.637000
     13 C13         1.9450    0.1340    3.6840 ca        1 027     -0.114000
     14 C14         1.1680    0.2500    4.8570 ca        1 027      0.144600
     15 C15        -3.2730    0.3880   -2.4770 cd        1 027     -0.099600
     16 C16        -0.8430    0.0160    3.4840 ca        1 027     -0.087000
     17 N17         2.7860    1.1470    8.7290 n3        1 027     -0.732600
     18 O18         3.4210   -0.0500    1.2590 o         1 027     -0.632500
     19 C19         2.2750   -0.3770   -1.2540 c3        1 027      0.125700
     20 C20        -0.2430    0.1970    4.7210 ca        1 027     -0.162000
     21 C21         0.9480    0.2580    7.2870 c3        1 027      0.186800
     22 C22         2.8580    1.3250    6.2380 c3        1 027      0.186800
     23 C23         3.6460    1.1970    7.5560 c3        1 027      0.164800
     24 C24         1.7480    0.1350    8.6000 c3        1 027      0.164800
     25 C25         3.5330    1.0200    9.9590 c3        1 027      0.157100
     26 C26        -3.5150    1.0930   -3.7450 c3        1 027     -0.034800
     27 C27         2.0960   -1.7040   -1.9870 c3        1 027     -0.104600
     28 C28         1.9590    0.7740   -2.2060 c3        1 027     -0.104600
     29 HN8        -2.4010   -1.0980    1.4270 hn        1 027      0.407800
     30 H9         -1.7900    1.6030   -1.3130 ha        1 027      0.173000
     31 H13         3.0480    0.1610    3.7160 ha        1 027      0.167000
     32 H16        -1.9430   -0.0070    3.4310 ha        1 027      0.148000
     33 H19         3.3600   -0.2900   -0.9380 h1        1 027      0.091700
     34 H20        -0.8940    0.3060    5.6030 ha        1 027      0.139000
     35 H21         0.2740    1.1610    7.3590 h1        1 027      0.046950
     36 H21A        0.3020   -0.6610    7.1990 h1        1 027      0.046950
     37 H22         2.4300    2.3680    6.1700 h1        1 027      0.046950
     38 H22A        3.5890    1.1920    5.3940 h1        1 027      0.046950
     39 H23         4.3170    0.2910    7.4900 h1        1 027      0.041200
     40 H23A        4.3020    2.1080    7.6480 h1        1 027      0.041200
     41 H24         2.1710   -0.9100    8.6680 h1        1 027      0.041200
     42 H24A        1.0240    0.2720    9.4510 h1        1 027      0.041200
     43 H25         2.8180    1.0750   10.8220 h1        1 027      0.034033
     44 H25A        4.1110    0.0580   10.0340 h1        1 027      0.034033
     45 H25B        4.2540    1.8760   10.0320 h1        1 027      0.034033
     46 H26        -3.2190    0.4590   -4.6190 hc        1 027      0.053367
     47 H26A       -4.5950    1.3630   -3.8550 hc        1 027      0.053367
     48 H26B       -2.9100    2.0330   -3.7680 hc        1 027      0.053367
     49 H27         2.8060   -1.7310   -2.8480 hc        1 027      0.045700
     50 H27A        1.0560   -1.8140   -2.3770 hc        1 027      0.045700
     51 H27B        2.3190   -2.5670   -1.3140 hc        1 027      0.045700
     52 H28         0.9100    0.7110   -2.5820 hc        1 027      0.045700
     53 H28A        2.6560    0.7140   -3.0770 hc        1 027      0.045700
     54 H28B        2.1010    1.7600   -1.7030 hc        1 027      0.045700
     55 HN10       -4.5510   -1.3330   -2.6450 hn        1 027      0.319700
@<TRIPOS>BOND
     1    1    2 1   
     2    1    3 2   
     3    2    4 1   
     4    2   19 1   
     5    3    6 1   
     6    3    8 1   
     7    4    5 1   
     8    4   18 2   
     9    5    6 ar  
    10    5   13 ar  
    11    6   16 ar  
    12    7    8 1   
    13    7    9 1   
    14    7   11 2   
    15    8   29 1   
    16    9   15 2   
    17    9   30 1   
    18   10   11 1   
    19   10   15 1   
    20   10   55 1   
    21   12   14 1   
    22   12   21 1   
    23   12   22 1   
    24   13   14 ar  
    25   13   31 1   
    26   14   20 ar  
    27   15   26 1   
    28   16   20 ar  
    29   16   32 1   
    30   17   23 1   
    31   17   24 1   
    32   17   25 1   
    33   19   27 1   
    34   19   28 1   
    35   19   33 1   
    36   20   34 1   
    37   21   24 1   
    38   21   35 1   
    39   21   36 1   
    40   22   23 1   
    41   22   37 1   
    42   22   38 1   
    43   23   39 1   
    44   23   40 1   
    45   24   41 1   
    46   24   42 1   
    47   25   43 1   
    48   25   44 1   
    49   25   45 1   
    50   26   46 1   
    51   26   47 1   
    52   26   48 1   
    53   27   49 1   
    54   27   50 1   
    55   27   51 1   
    56   28   52 1   
    57   28   53 1   
    58   28   54 1   
@<TRIPOS>SUBSTRUCTURE
     1 027         1 TEMP              0 ****  ****    0 ROOT
