@<TRIPOS>MOLECULE
027
   55    58     1     0     0
SMALL
bcc


@<TRIPOS>ATOM
      1 N1          0.1700   -0.4180   -0.1070 nc        1 027     -0.468300
      2 N2          1.4910   -0.2940   -0.0020 n         1 027     -0.200800
      3 C3         -0.6130   -0.3230    0.9700 cd        1 027      0.528800
      4 C4          2.1780   -0.1120    1.2230 c         1 027      0.684100
      5 C5          1.3350   -0.0330    2.4380 ca        1 027     -0.108600
      6 C6         -0.0650   -0.1220    2.3240 ca        1 027     -0.138900
      7 C7         -2.6100   -0.3510   -0.4270 cc        1 027      0.494200
      8 N8         -2.0370   -0.3780    0.8630 nu        1 027     -0.713900
      9 C9         -2.4580    0.7330   -1.3870 cc        1 027     -0.264300
     10 N10        -3.8810   -0.8420   -2.1150 na        1 027     -0.013600
     11 N11        -3.4870   -1.2950   -0.9300 nd        1 027     -0.550800
     12 N12         1.8150    0.3210    6.1130 nh        1 027     -0.637000
     13 C13         1.9500    0.1390    3.6790 ca        1 027     -0.114000
     14 C14         1.1750    0.2410    4.8550 ca        1 027      0.144600
     15 C15        -3.2910    0.3840   -2.4600 cd        1 027     -0.099600
     16 C16        -0.8380   -0.0090    3.4870 ca        1 027     -0.087000
     17 N17         2.7930    1.1440    8.7250 n3        1 027     -0.732600
     18 O18         3.4200   -0.0210    1.2490 o         1 027     -0.632500
     19 C19         2.2710   -0.3520   -1.2620 c3        1 027      0.125700
     20 C20        -0.2360    0.1740    4.7230 ca        1 027     -0.162000
     21 C21         0.9610    0.2380    7.2850 c3        1 027      0.186800
     22 C22         2.8560    1.3310    6.2340 c3        1 027      0.186800
     23 C23         3.6500    1.2070    7.5500 c3        1 027      0.164800
     24 C24         1.7660    0.1200    8.5950 c3        1 027      0.164800
     25 C25         3.5450    1.0220    9.9530 c3        1 027      0.157100
     26 C26        -3.5460    1.1010   -3.7180 c3        1 027     -0.034800
     27 C27         2.1050   -1.6800   -1.9960 c3        1 027     -0.104600
     28 C28         1.9390    0.7970   -2.2110 c3        1 027     -0.104600
     29 HN8        -2.3880   -1.1380    1.4230 hn        1 027      0.406800
     30 H9         -1.8250    1.6060   -1.2820 ha        1 027      0.173000
     31 H13         3.0520    0.1780    3.7080 ha        1 027      0.167000
     32 H16        -1.9380   -0.0440    3.4370 ha        1 027      0.148000
     33 H19         3.3560   -0.2530   -0.9490 h1        1 027      0.091700
     34 H20        -0.8850    0.2720    5.6070 ha        1 027      0.139000
     35 H21         0.2780    1.1340    7.3620 h1        1 027      0.046950
     36 H21A        0.3260   -0.6870    7.1960 h1        1 027      0.046950
     37 H22         3.5870    1.2090    5.3880 h1        1 027      0.046950
     38 H22A        2.4170    2.3690    6.1720 h1        1 027      0.046950
     39 H23         4.2950    2.1250    7.6440 h1        1 027      0.041200
     40 H23A        4.3300    0.3090    7.4800 h1        1 027      0.041200
     41 H24         2.2020   -0.9200    8.6590 h1        1 027      0.041200
     42 H24A        1.0440    0.2460    9.4490 h1        1 027      0.041200
     43 H25         2.8320    1.0650   10.8180 h1        1 027      0.034033
     44 H25A        4.1340    0.0660   10.0230 h1        1 027      0.034033
     45 H25B        4.2560    1.8850   10.0270 h1        1 027      0.034033
     46 H26        -3.2410    0.4830   -4.6000 hc        1 027      0.053367
     47 H26A       -2.9560    2.0510   -3.7290 hc        1 027      0.053367
     48 H26B       -4.6310    1.3540   -3.8220 hc        1 027      0.053367
     49 H27         1.0660   -1.8010   -2.3830 hc        1 027      0.045700
     50 H27A        2.3410   -2.5410   -1.3270 hc        1 027      0.045700
     51 H27B        2.8130   -1.6970   -2.8600 hc        1 027      0.045700
     52 H28         2.6350    0.7470   -3.0830 hc        1 027      0.045700
     53 H28A        0.8900    0.7220   -2.5840 hc        1 027      0.045700
     54 H28B        2.0700    1.7840   -1.7060 hc        1 027      0.045700
     55 HN10       -4.5410   -1.3560   -2.6480 hn        1 027      0.319700
@<TRIPOS>BOND
     1    1    2 1   
     2    1    3 2   
     3    2    4 1   
     4    2   19 1   
     5    3    6 1   
     6    3    8 1   
     7    4    5 1   
     8    4   18 2   
     9    5    6 ar  
    10    5   13 ar  
    11    6   16 ar  
    12    7    8 1   
    13    7    9 1   
    14    7   11 2   
    15    8   29 1   
    16    9   15 2   
    17    9   30 1   
    18   10   11 1   
    19   10   15 1   
    20   10   55 1   
    21   12   14 1   
    22   12   21 1   
    23   12   22 1   
    24   13   14 ar  
    25   13   31 1   
    26   14   20 ar  
    27   15   26 1   
    28   16   20 ar  
    29   16   32 1   
    30   17   23 1   
    31   17   24 1   
    32   17   25 1   
    33   19   27 1   
    34   19   28 1   
    35   19   33 1   
    36   20   34 1   
    37   21   24 1   
    38   21   35 1   
    39   21   36 1   
    40   22   23 1   
    41   22   37 1   
    42   22   38 1   
    43   23   39 1   
    44   23   40 1   
    45   24   41 1   
    46   24   42 1   
    47   25   43 1   
    48   25   44 1   
    49   25   45 1   
    50   26   46 1   
    51   26   47 1   
    52   26   48 1   
    53   27   49 1   
    54   27   50 1   
    55   27   51 1   
    56   28   52 1   
    57   28   53 1   
    58   28   54 1   
@<TRIPOS>SUBSTRUCTURE
     1 027         1 TEMP              0 ****  ****    0 ROOT
