@<TRIPOS>MOLECULE
027
   55    58     1     0     0
SMALL
bcc


@<TRIPOS>ATOM
      1 N1         -2.3420   -0.7210    0.4580 nc        1 027     -0.468300
      2 N2         -1.6960   -1.8830    0.3960 n         1 027     -0.200800
      3 C3         -1.6780    0.4340    0.3770 cd        1 027      0.528800
      4 C4         -0.2880   -2.0060    0.2990 c         1 027      0.684100
      5 C5          0.4760   -0.7390    0.2380 ca        1 027     -0.108600
      6 C6         -0.2090    0.4900    0.2620 ca        1 027     -0.138900
      7 C7         -3.7710    1.6770    0.2540 cc        1 027      0.494200
      8 N8         -2.3640    1.6880    0.3660 nh        1 027     -0.713900
      9 C9         -4.5160    1.1200   -0.8660 cc        1 027     -0.264300
     10 N10        -5.8580    2.1480    0.6100 na        1 027     -0.013600
     11 N11        -4.6460    2.2880    1.1340 nd        1 027     -0.550800
     12 N12         4.0360    0.3330    0.0720 nh        1 027     -0.637000
     13 C13         1.8670   -0.7900    0.1500 ca        1 027     -0.114000
     14 C14         2.6240    0.3990    0.0670 ca        1 027      0.144600
     15 C15        -5.8560    1.4430   -0.6030 cd        1 027     -0.099600
     16 C16         0.5380    1.6720    0.1680 ca        1 027     -0.087000
     17 N17         6.8630    0.5040   -0.5890 n3        1 027     -0.732600
     18 O18         0.2510   -3.1290    0.2630 o         1 027     -0.632500
     19 C19        -2.5250   -3.1120    0.4300 c3        1 027      0.125700
     20 C20         1.9210    1.6300    0.0680 ca        1 027     -0.162000
     21 C21         4.7480    1.5960    0.1710 c3        1 027      0.186800
     22 C22         4.6350   -0.5860   -0.8850 c3        1 027      0.186800
     23 C23         6.1510   -0.7630   -0.6680 c3        1 027      0.164800
     24 C24         6.2630    1.4060    0.3830 c3        1 027      0.164800
     25 C25         8.2820    0.3280   -0.3790 c3        1 027      0.157100
     26 C26        -7.0620    1.1410   -1.3880 c3        1 027     -0.034800
     27 C27        -3.3400   -3.2370    1.7150 c3        1 027     -0.104600
     28 C28        -3.4560   -3.2250   -0.7740 c3        1 027     -0.104600
     29 HN8        -2.0440    2.2550    1.1350 hn        1 027      0.406800
     30 H9         -4.1090    0.5690   -1.7040 ha        1 027      0.173000
     31 H13         2.3490   -1.7830    0.1600 ha        1 027      0.167000
     32 H16         0.0380    2.6530    0.1540 ha        1 027      0.148000
     33 H19        -1.7880   -3.9730    0.3930 h1        1 027      0.091700
     34 H20         2.4630    2.5840   -0.0180 ha        1 027      0.139000
     35 H21         4.5890    2.2320   -0.7490 h1        1 027      0.046950
     36 H21A        4.3510    2.1570    1.0640 h1        1 027      0.046950
     37 H22         4.1580   -1.5980   -0.7700 h1        1 027      0.046950
     38 H22A        4.4580   -0.2330   -1.9430 h1        1 027      0.046950
     39 H23         6.5550   -1.3310   -1.5520 h1        1 027      0.041200
     40 H23A        6.3130   -1.3930    0.2540 h1        1 027      0.041200
     41 H24         6.4390    1.0570    1.4420 h1        1 027      0.041200
     42 H24A        6.7510    2.4140    0.2650 h1        1 027      0.041200
     43 H25         8.5320   -0.1600    0.6030 h1        1 027      0.034033
     44 H25A        8.6930   -0.3060   -1.2070 h1        1 027      0.034033
     45 H25B        8.7790    1.3330   -0.4130 h1        1 027      0.034033
     46 H26        -7.7770    0.5130   -0.7990 hc        1 027      0.053367
     47 H26A       -7.5870    2.0810   -1.6940 hc        1 027      0.053367
     48 H26B       -6.7720    0.5800   -2.3110 hc        1 027      0.053367
     49 H27        -4.1260   -2.4470    1.7740 hc        1 027      0.045700
     50 H27A       -3.8350   -4.2370    1.7230 hc        1 027      0.045700
     51 H27B       -2.6840   -3.1570    2.6150 hc        1 027      0.045700
     52 H28        -3.9670   -4.2180   -0.7340 hc        1 027      0.045700
     53 H28A       -4.2320   -2.4230   -0.7610 hc        1 027      0.045700
     54 H28B       -2.8850   -3.1570   -1.7300 hc        1 027      0.045700
     55 HN10       -6.6450    2.5400    1.0700 hn        1 027      0.319700
@<TRIPOS>BOND
     1    1    2 1   
     2    1    3 2   
     3    2    4 1   
     4    2   19 1   
     5    3    6 1   
     6    3    8 1   
     7    4    5 1   
     8    4   18 2   
     9    5    6 ar  
    10    5   13 ar  
    11    6   16 ar  
    12    7    8 1   
    13    7    9 1   
    14    7   11 2   
    15    8   29 1   
    16    9   15 2   
    17    9   30 1   
    18   10   11 1   
    19   10   15 1   
    20   10   55 1   
    21   12   14 1   
    22   12   21 1   
    23   12   22 1   
    24   13   14 ar  
    25   13   31 1   
    26   14   20 ar  
    27   15   26 1   
    28   16   20 ar  
    29   16   32 1   
    30   17   23 1   
    31   17   24 1   
    32   17   25 1   
    33   19   27 1   
    34   19   28 1   
    35   19   33 1   
    36   20   34 1   
    37   21   24 1   
    38   21   35 1   
    39   21   36 1   
    40   22   23 1   
    41   22   37 1   
    42   22   38 1   
    43   23   39 1   
    44   23   40 1   
    45   24   41 1   
    46   24   42 1   
    47   25   43 1   
    48   25   44 1   
    49   25   45 1   
    50   26   46 1   
    51   26   47 1   
    52   26   48 1   
    53   27   49 1   
    54   27   50 1   
    55   27   51 1   
    56   28   52 1   
    57   28   53 1   
    58   28   54 1   
@<TRIPOS>SUBSTRUCTURE
     1 027         1 TEMP              0 ****  ****    0 ROOT
