@<TRIPOS>MOLECULE
027
   55    50     1     0     0
SMALL
bcc


@<TRIPOS>ATOM
      1 N1         -0.5370    0.2990   -2.9570 n1        1 027     -0.042000
      2 N2          0.8840    0.4170   -2.9870 n2        1 027     -0.226000
      3 C3         -1.2310    0.2590   -1.7000 c1        1 027     -0.008000
      4 C4          1.6320    0.4950   -1.7500 c2        1 027      0.326000
      5 C5          0.9050    0.4530   -0.4190 c2        1 027     -0.118000
      6 C6         -0.4450    0.3420   -0.3910 c1        1 027      0.002000
      7 C7         -3.4200   -0.6920   -2.4170 c1        1 027     -0.045500
      8 N8         -2.6680    0.2870   -1.6740 n2        1 027     -0.158000
      9 C9         -4.4520   -0.4280   -3.2770 c1        1 027     -0.244000
     10 N10        -4.3030   -2.6080   -3.0580 n2        1 027     -0.131000
     11 N11        -3.3260   -2.0300   -2.2800 n2        1 027     -0.131000
     12 N12         1.2410    0.4680    3.4600 n3        1 027     -0.223000
     13 C13         1.6370    0.5300    0.7980 c1        1 027     -0.102000
     14 C14         0.9690    0.4900    2.0140 c1        1 027      0.000000
     15 C15        -4.9910   -1.6210   -3.6680 c1        1 027     -0.045500
     16 C16        -1.1270    0.3010    0.8490 c1        1 027     -0.103000
     17 N17         3.0990    0.2900    5.6190 n3        1 027     -0.259000
     18 O18         2.8430    0.5810   -1.7770 o         1 027     -0.351000
     19 C19         1.5610    0.5440   -4.2360 c3        1 027      0.045000
     20 C20        -0.4100    0.3760    2.0410 c1        1 027     -0.086000
     21 C21         1.8260   -0.7830    3.8150 c3        1 027     -0.068000
     22 C22         2.0670    1.5800    3.8070 c3        1 027     -0.068000
     23 C23         2.5140    1.5400    5.2630 c3        1 027     -0.069000
     24 C24         2.2740   -0.8210    5.2740 c3        1 027     -0.069000
     25 C25         3.3660    0.2690    7.0390 c3        1 027     -0.118000
     26 C26        -6.3550   -2.0500   -4.1880 c2        1 027     -0.162000
     27 C27         1.0410    1.7680   -4.9730 c3        1 027     -0.222500
     28 C28         1.3140   -0.6940   -5.0740 c3        1 027     -0.222500
     29 HN8        -3.1020    0.9690   -1.2540 hn        1 027      0.199000
     30 H9         -4.7500    0.4580   -3.5620 DU        1 027      0.220000
     31 H13         2.6080    0.6240    0.7770 ha        1 027      0.164000
     32 H16        -2.1030    0.2210    0.8680 ha        1 027      0.160000
     33 H19         2.5200    0.6430   -4.0780 h1        1 027      0.133000
     34 H20        -0.8860    0.4260    2.8920 ha        1 027      0.150000
     35 H21         2.6020   -0.9430    3.2420 h1        1 027      0.083750
     36 H21A        1.1710   -1.4920    3.6670 h1        1 027      0.083750
     37 H22         2.8600    1.5760    3.2320 h1        1 027      0.083750
     38 H22A        1.5670    2.4070    3.6520 h1        1 027      0.083750
     39 H23         3.1700    2.2520    5.4120 h1        1 027      0.077000
     40 H23A        1.7350    1.7010    5.8380 h1        1 027      0.077000
     41 H24         1.4800   -0.8180    5.8500 h1        1 027      0.077000
     42 H24A        2.7750   -1.6500    5.4300 h1        1 027      0.077000
     43 H25         3.9230   -0.5130    7.2560 h1        1 027      0.071333
     44 H25A        3.8400    1.0900    7.2960 h1        1 027      0.071333
     45 H25B        2.5170    0.2130    7.5310 h1        1 027      0.071333
     46 H26        -6.2780   -2.3140   -5.1280 ha        1 027      0.094667
     47 H26A       -6.6810   -2.8100   -3.6600 ha        1 027      0.094667
     48 H26B       -6.9850   -1.3020   -4.1090 ha        1 027      0.094667
     49 H27         1.0770    2.5470   -4.3780 hc        1 027      0.085500
     50 H27A        1.5960    1.9340   -5.7640 hc        1 027      0.085500
     51 H27B        0.1130    1.6120   -5.2510 hc        1 027      0.085500
     52 H28         1.4630   -1.4930   -4.5270 hc        1 027      0.085500
     53 H28A        1.9280   -0.7000   -5.8370 hc        1 027      0.085500
     54 H28B        0.3880   -0.6890   -5.3990 hc        1 027      0.085500
     55 HN10       -4.4590   -3.5070   -3.1470 DU        1 027      0.220000
@<TRIPOS>BOND
     1    1    3 1   
     2    2    4 1   
     3    2   19 1   
     4    3    8 1   
     5    4    5 1   
     6    4   18 1   
     7    5    6 1   
     8    5   13 1   
     9    6   16 1   
    10    7    9 1   
    11    7   11 1   
    12    8   29 1   
    13    9   15 1   
    14   10   11 1   
    15   10   15 1   
    16   12   14 1   
    17   12   21 1   
    18   12   22 1   
    19   13   31 1   
    20   14   20 1   
    21   16   32 1   
    22   17   23 1   
    23   17   24 1   
    24   17   25 1   
    25   19   27 1   
    26   19   28 1   
    27   19   33 1   
    28   20   34 1   
    29   21   24 1   
    30   21   35 1   
    31   21   36 1   
    32   22   23 1   
    33   22   37 1   
    34   22   38 1   
    35   23   39 1   
    36   23   40 1   
    37   24   41 1   
    38   24   42 1   
    39   25   43 1   
    40   25   44 1   
    41   25   45 1   
    42   26   46 1   
    43   26   47 1   
    44   26   48 1   
    45   27   49 1   
    46   27   50 1   
    47   27   51 1   
    48   28   52 1   
    49   28   53 1   
    50   28   54 1   
@<TRIPOS>SUBSTRUCTURE
     1 027         1 TEMP              0 ****  ****    0 ROOT
