@<TRIPOS>MOLECULE
027
   56    59     1     0     0
SMALL
bcc


@<TRIPOS>ATOM
      1 N1          0.1890    0.4040   -0.1380 nc        1 027     -0.352300
      2 N2          1.4850    0.5180   -0.0130 n         1 027     -0.179800
      3 C3         -0.5820    0.2850    0.9470 cd        1 027      0.357800
      4 C4          2.1690    0.5270    1.2570 c         1 027      0.689100
      5 C5          1.3170    0.3940    2.4600 ca        1 027     -0.078600
      6 C6         -0.0820    0.2770    2.3190 ca        1 027     -0.189900
      7 C7         -2.5190    0.0860   -0.5910 cc        1 027      0.329200
      8 N8         -2.0440    0.1560    0.7750 n4        1 027     -0.619700
      9 C9         -2.9810   -1.1150   -1.2560 cc        1 027     -0.254300
     10 N10        -3.0630    0.7030   -2.5790 na        1 027      0.027400
     11 N11        -2.5790    1.1710   -1.4470 nd        1 027     -0.436800
     12 N12         1.7360    0.1460    6.1460 nh        1 027     -0.634000
     13 C13         1.9190    0.3940    3.7140 ca        1 027     -0.142000
     14 C14         1.1410    0.2590    4.8960 ca        1 027      0.209600
     15 C15        -3.3310   -0.6790   -2.5470 cd        1 027     -0.047600
     16 C16        -0.8610    0.1760    3.4780 ca        1 027     -0.103000
     17 N17         2.8950    0.7590    8.7310 n3        1 027     -0.729600
     18 O18         3.4000    0.6410    1.2870 o         1 027     -0.554500
     19 C19         2.2910    0.6630   -1.2640 c3        1 027      0.114700
     20 C20        -0.2740    0.1750    4.7310 ca        1 027     -0.156000
     21 C21         0.8920    0.3100    7.3160 c3        1 027      0.198300
     22 C22         3.1360    0.5130    6.2620 c3        1 027      0.198300
     23 C23         3.7560    0.2970    7.6550 c3        1 027      0.159800
     24 C24         1.6010    0.1010    8.6670 c3        1 027      0.159800
     25 C25         3.5160    0.6600   10.0330 c3        1 027      0.153100
     26 C26        -3.8730   -1.4440   -3.6790 c3        1 027     -0.055800
     27 C27         2.1550   -0.5440   -2.1860 c3        1 027     -0.110600
     28 C28         1.9560    1.9400   -2.0250 c3        1 027     -0.110600
     29 HN8        -2.3300   -0.7130    1.2490 hn        1 027      0.469800
     30 H9         -3.0390   -2.1210   -0.8540 ha        1 027      0.191000
     31 H13         3.0170    0.5040    3.7530 ha        1 027      0.178000
     32 H16        -1.9580    0.1040    3.4260 ha        1 027      0.117000
     33 H19         3.3660    0.7250   -0.9100 h1        1 027      0.110700
     34 H20        -0.9370    0.1090    5.6090 ha        1 027      0.155000
     35 H21         0.4240    1.3370    7.3080 h1        1 027      0.052700
     36 H21A        0.0690   -0.4600    7.2670 h1        1 027      0.052700
     37 H22         3.7280   -0.1290    5.5470 h1        1 027      0.052700
     38 H22A        3.2720    1.5950    5.9680 h1        1 027      0.052700
     39 H23         4.0180   -0.7960    7.7680 h1        1 027      0.050950
     40 H23A        4.7140    0.8880    7.6890 h1        1 027      0.050950
     41 H24         1.6850   -1.0090    8.8620 h1        1 027      0.050950
     42 H24A        0.9390    0.5430    9.4640 h1        1 027      0.050950
     43 H25         2.8230    1.1040   10.7950 h1        1 027      0.043033
     44 H25A        3.7530   -0.3970   10.3330 h1        1 027      0.043033
     45 H25B        4.4680    1.2530   10.0220 h1        1 027      0.043033
     46 H26        -4.8780   -1.0520   -3.9830 hc        1 027      0.078700
     47 H26A       -3.1880   -1.3880   -4.5640 hc        1 027      0.078700
     48 H26B       -3.9850   -2.5180   -3.3840 hc        1 027      0.078700
     49 H27         2.8840   -0.4250   -3.0240 hc        1 027      0.055700
     50 H27A        2.3870   -1.4940   -1.6480 hc        1 027      0.055700
     51 H27B        1.1280   -0.6140   -2.6160 hc        1 027      0.055700
     52 H28         0.9220    1.9070   -2.4440 hc        1 027      0.055700
     53 H28A        2.0510    2.8390   -1.3700 hc        1 027      0.055700
     54 H28B        2.6800    2.0420   -2.8710 hc        1 027      0.055700
     55 HN10       -3.2050    1.3220   -3.3520 hn        1 027      0.354700
     56 H82        -2.4730    0.9660    1.2480 hn        1 027      0.469800
@<TRIPOS>BOND
     1    1    2 1   
     2    1    3 2   
     3    2    4 1   
     4    2   19 1   
     5    3    6 1   
     6    3    8 1   
     7    4    5 1   
     8    4   18 2   
     9    5    6 ar  
    10    5   13 ar  
    11    6   16 ar  
    12    7    8 1   
    13    7    9 1   
    14    7   11 2   
    15    8   29 1   
    16    8   56 1   
    17    9   15 2   
    18    9   30 1   
    19   10   11 1   
    20   10   15 1   
    21   10   55 1   
    22   12   14 1   
    23   12   21 1   
    24   12   22 1   
    25   13   14 ar  
    26   13   31 1   
    27   14   20 ar  
    28   15   26 1   
    29   16   20 ar  
    30   16   32 1   
    31   17   23 1   
    32   17   24 1   
    33   17   25 1   
    34   19   27 1   
    35   19   28 1   
    36   19   33 1   
    37   20   34 1   
    38   21   24 1   
    39   21   35 1   
    40   21   36 1   
    41   22   23 1   
    42   22   37 1   
    43   22   38 1   
    44   23   39 1   
    45   23   40 1   
    46   24   41 1   
    47   24   42 1   
    48   25   43 1   
    49   25   44 1   
    50   25   45 1   
    51   26   46 1   
    52   26   47 1   
    53   26   48 1   
    54   27   49 1   
    55   27   50 1   
    56   27   51 1   
    57   28   52 1   
    58   28   53 1   
    59   28   54 1   
@<TRIPOS>SUBSTRUCTURE
     1 027         1 TEMP              0 ****  ****    0 ROOT
