@<TRIPOS>MOLECULE
028
   30    29     1     0     0
SMALL
bcc


@<TRIPOS>ATOM
      1 CAA         0.2460   -0.6880   -0.1610 c3        1 028     -0.081100
      2 CAI         1.6140   -0.0750    0.0060 c3        1 028     -0.084400
      3 CAJ         2.1850   -0.3200    1.3900 c3        1 028     -0.077400
      4 CAK         3.5610    0.2980    1.5560 c3        1 028     -0.068400
      5 CAL         4.1240    0.0470    2.9450 c3        1 028     -0.068400
      6 CAM         5.5060    0.6710    3.1040 c3        1 028      0.013600
      7 CAN         6.1450    0.4760    4.4470 c3        1 028     -0.207600
      8 PAO         7.4260   -0.8440    4.1240 p5        1 028      1.251700
      9 OAE         8.6450   -0.2850    3.4050 o         1 028     -0.988833
     10 OAF         7.7780   -1.4690    5.4670 o         1 028     -0.988833
     11 OAB         6.7510   -1.8730    3.2130 o         1 028     -0.988833
     12 PAP         5.9440    2.1440    5.2630 p5        1 028      1.251700
     13 OAG         4.5220    2.6060    4.9310 o         1 028     -0.988833
     14 OAH         6.1010    1.9370    6.7630 o         1 028     -0.988833
     15 OAC         6.9270    3.1650    4.7090 o         1 028     -0.988833
     16 OAD         5.2910   -0.2830    5.3280 oh        1 028     -0.667800
     17 HAA1        0.2910   -1.7930   -0.0020 hc        1 028      0.002367
     18 HAA2       -0.1580   -0.4980   -1.1860 hc        1 028      0.002367
     19 HAA3       -0.4680   -0.2590    0.5820 hc        1 028      0.002367
     20 HAI1        1.5540    1.0290   -0.1790 hc        1 028      0.023700
     21 HAI2        2.3110   -0.5020   -0.7620 hc        1 028      0.023700
     22 HAJ1        2.2510   -1.4230    1.5760 hc        1 028      0.027700
     23 HAJ2        1.4920    0.1090    2.1600 hc        1 028      0.027700
     24 HAK1        3.4950    1.4020    1.3720 hc        1 028      0.014700
     25 HAK2        4.2540   -0.1330    0.7870 hc        1 028      0.014700
     26 HAL1        4.2060   -1.0550    3.1260 hc        1 028      0.056700
     27 HAL2        3.4410    0.4900    3.7150 hc        1 028      0.056700
     28 HAM1        5.4090    1.7750    2.8880 hc        1 028      0.004700
     29 HAM2        6.1710    0.2380    2.3020 hc        1 028      0.004700
     30 HOAD        5.8360   -0.3220    6.1270 ho        1 028      0.409000
@<TRIPOS>BOND
     1    1    2 1   
     2    1   17 1   
     3    1   18 1   
     4    1   19 1   
     5    2    3 1   
     6    2   20 1   
     7    2   21 1   
     8    3    4 1   
     9    3   22 1   
    10    3   23 1   
    11    4    5 1   
    12    4   24 1   
    13    4   25 1   
    14    5    6 1   
    15    5   26 1   
    16    5   27 1   
    17    6    7 1   
    18    6   28 1   
    19    6   29 1   
    20    7    8 1   
    21    7   12 1   
    22    7   16 1   
    23    8    9 1   
    24    8   10 1   
    25    8   11 1   
    26   12   13 1   
    27   12   14 1   
    28   12   15 1   
    29   16   30 1   
@<TRIPOS>SUBSTRUCTURE
     1 028         1 TEMP              0 ****  ****    0 ROOT
