@<TRIPOS>MOLECULE
028
   30    29     1     0     0
SMALL
bcc


@<TRIPOS>ATOM
      1 CAA         6.5980    0.5850    0.3460 c3        1 028     -0.081100
      2 CAI         5.3380    0.7200   -0.4720 c3        1 028     -0.084400
      3 CAJ         4.0950    0.3930    0.3330 c3        1 028     -0.078400
      4 CAK         2.8290    0.5300   -0.4930 c3        1 028     -0.068400
      5 CAL         1.5890    0.1910    0.3170 c3        1 028     -0.076400
      6 CAM         0.3250    0.3190   -0.5250 c3        1 028     -0.057400
      7 CAN        -0.9590   -0.0240    0.2040 c3        1 028     -0.163600
      8 PAO        -1.7690    1.6010    0.4500 p5        1 028      1.250200
      9 OAE        -1.5530    2.5060   -0.7620 o         1 028     -0.984833
     10 OAF        -3.2450    1.5180    0.7980 o         1 028     -0.984833
     11 OAB        -0.9770    2.1580    1.6470 o         1 028     -0.984833
     12 PAP        -1.3150   -1.7680   -0.5630 p5        1 028      1.250200
     13 OAG        -0.0130   -2.5430   -0.3690 o         1 028     -0.984833
     14 OAH        -2.4710   -2.4870    0.1060 o         1 028     -0.984833
     15 OAC        -1.5680   -1.5730   -2.0510 o         1 028     -0.984833
     16 OAD        -0.7250   -0.4880    1.5190 oh        1 028     -0.633800
     17 HAA1        7.5020    0.8290   -0.2640 hc        1 028      0.003033
     18 HAA2        6.5710    1.2760    1.2230 hc        1 028      0.003033
     19 HAA3        6.7040   -0.4590    0.7290 hc        1 028      0.003033
     20 HAI1        5.2590    1.7680   -0.8660 hc        1 028      0.024700
     21 HAI2        5.3930    0.0370   -1.3590 hc        1 028      0.024700
     22 HAJ1        4.1680   -0.6550    0.7240 hc        1 028      0.026700
     23 HAJ2        4.0360    1.0770    1.2200 hc        1 028      0.026700
     24 HAK1        2.7530    1.5790   -0.8810 hc        1 028      0.017200
     25 HAK2        2.8890   -0.1550   -1.3790 hc        1 028      0.017200
     26 HAL1        1.6550   -0.8640    0.6920 hc        1 028      0.049200
     27 HAL2        1.5230    0.8780    1.1990 hc        1 028      0.049200
     28 HAM1        0.2710    1.3750   -0.9170 hc        1 028      0.026700
     29 HAM2        0.4430   -0.3540   -1.4220 hc        1 028      0.026700
     30 HOAD       -0.5300    0.2860    2.0750 ho        1 028      0.356000
@<TRIPOS>BOND
     1    1    2 1   
     2    1   17 1   
     3    1   18 1   
     4    1   19 1   
     5    2    3 1   
     6    2   20 1   
     7    2   21 1   
     8    3    4 1   
     9    3   22 1   
    10    3   23 1   
    11    4    5 1   
    12    4   24 1   
    13    4   25 1   
    14    5    6 1   
    15    5   26 1   
    16    5   27 1   
    17    6    7 1   
    18    6   28 1   
    19    6   29 1   
    20    7    8 1   
    21    7   12 1   
    22    7   16 1   
    23    8    9 1   
    24    8   10 1   
    25    8   11 1   
    26   12   13 1   
    27   12   14 1   
    28   12   15 1   
    29   16   30 1   
@<TRIPOS>SUBSTRUCTURE
     1 028         1 TEMP              0 ****  ****    0 ROOT
