@<TRIPOS>MOLECULE
028
   30    29     1     0     0
SMALL
bcc


@<TRIPOS>ATOM
      1 CAA        -3.9650    0.6230   -2.7540 c3        1 028     -0.081100
      2 CAI        -2.6440   -0.0830   -2.5450 c3        1 028     -0.084400
      3 CAJ        -2.0250    0.3800   -1.2440 c3        1 028     -0.077400
      4 CAK        -0.7260   -0.3610   -1.0110 c3        1 028     -0.068400
      5 CAL        -0.0510    0.1820    0.2290 c3        1 028     -0.068400
      6 CAM         1.2790   -0.5120    0.4240 c3        1 028      0.013600
      7 CAN         1.9520    0.0280    1.6670 c3        1 028     -0.207600
      8 PAO         3.6450    0.5430    1.2630 p5        1 028      1.251700
      9 OAE         3.6020    1.6980    0.2920 o         1 028     -0.988833
     10 OAF         4.3870   -0.6130    0.6370 o         1 028     -0.988833
     11 OAB         4.3550    0.9720    2.5250 o         1 028     -0.988833
     12 PAP         2.0000   -1.2670    2.9390 p5        1 028      1.251700
     13 OAG         2.6960   -2.4880    2.3880 o         1 028     -0.988833
     14 OAH         2.7530   -0.7590    4.1450 o         1 028     -0.988833
     15 OAC         0.5910   -1.6290    3.3420 o         1 028     -0.988833
     16 OAD         1.2280    1.1330    2.1500 oh        1 028     -0.667800
     17 HAA1       -4.3640    0.3260   -3.5980 hc        1 028      0.002367
     18 HAA2       -4.5710    0.4090   -2.0130 hc        1 028      0.002367
     19 HAA3       -3.8170    1.5920   -2.7850 hc        1 028      0.002367
     20 HAI1       -2.0410    0.1280   -3.2850 hc        1 028      0.023700
     21 HAI2       -2.7920   -1.0490   -2.5100 hc        1 028      0.023700
     22 HAJ1       -1.8490    1.3410   -1.2900 hc        1 028      0.027700
     23 HAJ2       -2.6410    0.1970   -0.5060 hc        1 028      0.027700
     24 HAK1       -0.9110   -1.3130   -0.8910 hc        1 028      0.014700
     25 HAK2       -0.1380   -0.2370   -1.7830 hc        1 028      0.014700
     26 HAL1        0.0950    1.1440    0.1260 hc        1 028      0.056700
     27 HAL2       -0.6210    0.0200    1.0080 hc        1 028      0.056700
     28 HAM1        1.8500   -0.3470   -0.3530 hc        1 028      0.004700
     29 HAM2        1.1330   -1.4740    0.5230 hc        1 028      0.004700
     30 HOAD        1.5900    1.4150    2.9120 ho        1 028      0.409000
@<TRIPOS>BOND
     1    1    2 1   
     2    1   17 1   
     3    1   18 1   
     4    1   19 1   
     5    2    3 1   
     6    2   20 1   
     7    2   21 1   
     8    3    4 1   
     9    3   22 1   
    10    3   23 1   
    11    4    5 1   
    12    4   24 1   
    13    4   25 1   
    14    5    6 1   
    15    5   26 1   
    16    5   27 1   
    17    6    7 1   
    18    6   28 1   
    19    6   29 1   
    20    7    8 1   
    21    7   12 1   
    22    7   16 1   
    23    8    9 1   
    24    8   10 1   
    25    8   11 1   
    26   12   13 1   
    27   12   14 1   
    28   12   15 1   
    29   16   30 1   
@<TRIPOS>SUBSTRUCTURE
     1 028         1 TEMP              0 ****  ****    0 ROOT
