@<TRIPOS>MOLECULE
028
   30    29     1     0     0
SMALL
bcc


@<TRIPOS>ATOM
      1 CAA         0.1940   -0.6140   -0.1100 c3        1 028     -0.081100
      2 CAI         1.5730   -0.0220    0.0420 c3        1 028     -0.084400
      3 CAJ         2.1610   -0.2840    1.4150 c3        1 028     -0.077400
      4 CAK         3.5480    0.3130    1.5640 c3        1 028     -0.068400
      5 CAL         4.1270    0.0450    2.9440 c3        1 028     -0.068400
      6 CAM         5.5210    0.6470    3.0860 c3        1 028      0.013600
      7 CAN         6.1760    0.4330    4.4180 c3        1 028     -0.207600
      8 PAO         7.4320   -0.9040    4.0670 p5        1 028      1.251700
      9 OAE         8.6450   -0.3600    3.3270 o         1 028     -0.988833
     10 OAF         7.8010   -1.5400    5.4010 o         1 028     -0.988833
     11 OAB         6.7250   -1.9200    3.1650 o         1 028     -0.988833
     12 PAP         6.0140    2.0990    5.2480 p5        1 028      1.251700
     13 OAG         4.5970    2.5880    4.9360 o         1 028     -0.988833
     14 OAH         6.1840    1.8770    6.7450 o         1 028     -0.988833
     15 OAC         7.0090    3.1060    4.6920 o         1 028     -0.988833
     16 OAD         5.3240   -0.3190    5.3070 oh        1 028     -0.667800
     17 HAA1        0.2250   -1.7200    0.0420 hc        1 028      0.002367
     18 HAA2       -0.5030   -0.1790    0.6470 hc        1 028      0.002367
     19 HAA3       -0.2220   -0.4110   -1.1280 hc        1 028      0.002367
     20 HAI1        1.5260    1.0850   -0.1360 hc        1 028      0.023700
     21 HAI2        2.2530   -0.4530   -0.7400 hc        1 028      0.023700
     22 HAJ1        2.2130   -1.3890    1.5930 hc        1 028      0.027700
     23 HAJ2        1.4850    0.1500    2.1980 hc        1 028      0.027700
     24 HAK1        4.2230   -0.1230    0.7830 hc        1 028      0.014700
     25 HAK2        3.4950    1.4190    1.3890 hc        1 028      0.014700
     26 HAL1        3.4620    0.4920    3.7270 hc        1 028      0.056700
     27 HAL2        4.1960   -1.0600    3.1170 hc        1 028      0.056700
     28 HAM1        5.4380    1.7530    2.8790 hc        1 028      0.004700
     29 HAM2        6.1670    0.2090    2.2720 hc        1 028      0.004700
     30 HOAD        5.8790   -0.3670    6.0990 ho        1 028      0.409000
@<TRIPOS>BOND
     1    1    2 1   
     2    1   17 1   
     3    1   18 1   
     4    1   19 1   
     5    2    3 1   
     6    2   20 1   
     7    2   21 1   
     8    3    4 1   
     9    3   22 1   
    10    3   23 1   
    11    4    5 1   
    12    4   24 1   
    13    4   25 1   
    14    5    6 1   
    15    5   26 1   
    16    5   27 1   
    17    6    7 1   
    18    6   28 1   
    19    6   29 1   
    20    7    8 1   
    21    7   12 1   
    22    7   16 1   
    23    8    9 1   
    24    8   10 1   
    25    8   11 1   
    26   12   13 1   
    27   12   14 1   
    28   12   15 1   
    29   16   30 1   
@<TRIPOS>SUBSTRUCTURE
     1 028         1 TEMP              0 ****  ****    0 ROOT
