@<TRIPOS>MOLECULE
028
   30    29     1     0     0
SMALL
bcc


@<TRIPOS>ATOM
      1 CAA         0.1520   -0.6560    0.0360 c3        1 028     -0.081100
      2 CAI         1.5340   -0.0630    0.1470 c3        1 028     -0.084400
      3 CAJ         2.1590   -0.3170    1.5050 c3        1 028     -0.078400
      4 CAK         3.5500    0.2810    1.6130 c3        1 028     -0.068400
      5 CAL         4.1650    0.0310    2.9790 c3        1 028     -0.076400
      6 CAM         5.5570    0.6470    3.0810 c3        1 028     -0.057400
      7 CAN         6.2340    0.4610    4.4240 c3        1 028     -0.163600
      8 PAO         7.5430   -0.7760    4.0850 p5        1 028      1.250200
      9 OAE         8.6230   -0.8520    5.1520 o         1 028     -0.984833
     10 OAF         6.7290   -2.0820    4.0660 o         1 028     -0.984833
     11 OAB         8.1640   -0.5470    2.7080 o         1 028     -0.984833
     12 PAP         6.0190    2.2450    5.1490 p5        1 028      1.250200
     13 OAG         4.5260    2.5400    5.0020 o         1 028     -0.984833
     14 OAH         6.4430    2.3520    6.6020 o         1 028     -0.984833
     15 OAC         6.8090    3.2000    4.2670 o         1 028     -0.984833
     16 OAD         5.3980   -0.1810    5.3670 oh        1 028     -0.633800
     17 HAA1        0.1870   -1.7620    0.1920 hc        1 028      0.003033
     18 HAA2       -0.5240   -0.2180    0.8110 hc        1 028      0.003033
     19 HAA3       -0.2930   -0.4570   -0.9700 hc        1 028      0.003033
     20 HAI1        1.4820    1.0430   -0.0340 hc        1 028      0.024700
     21 HAI2        2.1920   -0.4970   -0.6510 hc        1 028      0.024700
     22 HAJ1        2.2150   -1.4220    1.6880 hc        1 028      0.026700
     23 HAJ2        1.5070    0.1210    2.3040 hc        1 028      0.026700
     24 HAK1        4.2040   -0.1600    0.8160 hc        1 028      0.017200
     25 HAK2        3.4920    1.3860    1.4310 hc        1 028      0.017200
     26 HAL1        3.5220    0.4860    3.7770 hc        1 028      0.049200
     27 HAL2        4.2300   -1.0730    3.1610 hc        1 028      0.049200
     28 HAM1        5.4600    1.7470    2.8540 hc        1 028      0.026700
     29 HAM2        6.1960    0.2030    2.2650 hc        1 028      0.026700
     30 HOAD        5.3910   -1.1320    5.1560 ho        1 028      0.356000
@<TRIPOS>BOND
     1    1    2 1   
     2    1   17 1   
     3    1   18 1   
     4    1   19 1   
     5    2    3 1   
     6    2   20 1   
     7    2   21 1   
     8    3    4 1   
     9    3   22 1   
    10    3   23 1   
    11    4    5 1   
    12    4   24 1   
    13    4   25 1   
    14    5    6 1   
    15    5   26 1   
    16    5   27 1   
    17    6    7 1   
    18    6   28 1   
    19    6   29 1   
    20    7    8 1   
    21    7   12 1   
    22    7   16 1   
    23    8    9 1   
    24    8   10 1   
    25    8   11 1   
    26   12   13 1   
    27   12   14 1   
    28   12   15 1   
    29   16   30 1   
@<TRIPOS>SUBSTRUCTURE
     1 028         1 TEMP              0 ****  ****    0 ROOT
