@<TRIPOS>MOLECULE
029
   30    29     1     0     0
SMALL
bcc


@<TRIPOS>ATOM
      1 C1         -1.3860   -0.3280   -0.0200 c3        1 029     -0.073400
      2 C6          0.1070   -0.3340   -0.0820 c3        1 029     -0.070700
      3 C7          0.5830    0.9410   -0.8620 c3        1 029      0.175800
      4 N8          1.1610    0.5450   -2.1300 nh        1 029     -0.766000
      5 C9          1.8240    1.5240   -2.9580 c2        1 029      0.318000
      6 N11         2.9600    2.0430   -2.5740 n1        1 029     -0.360000
      7 N10         1.2390    1.9250   -4.1960 nh        1 029     -0.819600
      8 C5          0.7530   -0.3370    1.2700 c3        1 029     -0.073400
      9 C4          0.2250   -1.4330    2.1730 c3        1 029     -0.047900
     10 C3         -1.3240   -1.4300    2.2930 c3        1 029     -0.187700
     11 C12        -1.8100   -0.2690    3.1530 c         1 029      0.912600
     12 O13        -1.1700    0.0600    4.1870 o         1 029     -0.846800
     13 C2         -1.9440   -1.4230    0.8670 c3        1 029     -0.047900
     14 H11A       -1.7380   -0.4450   -0.9250 hc        1 029      0.041700
     15 H12        -1.6830    0.5390    0.3260 hc        1 029      0.041700
     16 H6          0.3970   -1.1240   -0.5690 hc        1 029      0.038700
     17 H71        -0.1830    1.5300   -1.0230 h1        1 029      0.039700
     18 H72         1.2530    1.4160   -0.3330 h1        1 029      0.039700
     19 HN8         1.0680   -0.3140   -2.4250 hn        1 029      0.399800
     20 H11         3.3330    1.7870   -1.7850 DU        1 029      0.149000
     21 H101        0.4770    1.5290   -4.4880 hn        1 029      0.382800
     22 H102        1.6240    2.5930   -4.6870 hn        1 029      0.382800
     23 H51         0.5910    0.5290    1.6990 hc        1 029      0.041700
     24 H52A        1.7190   -0.4590    1.1580 hc        1 029      0.041700
     25 H41         0.6080   -1.3170    3.0650 hc        1 029      0.025700
     26 H42         0.5110   -2.2990    1.8170 hc        1 029      0.025700
     27 H3         -1.6460   -2.1950    2.8080 hc        1 029      0.033700
     28 H21        -1.7710   -2.2890    0.4450 hc        1 029      0.025700
     29 H22        -2.9080   -1.3010    0.9460 hc        1 029      0.025700
     30 OXT        -2.8690    0.3370    2.8500 o         1 029     -0.846800
@<TRIPOS>BOND
     1    1    2 1   
     2    1   13 1   
     3    1   14 1   
     4    1   15 1   
     5    2    3 1   
     6    2    8 1   
     7    2   16 1   
     8    3    4 1   
     9    3   17 1   
    10    3   18 1   
    11    4    5 1   
    12    4   19 1   
    13    5    6 2   
    14    5    7 1   
    15    7   21 1   
    16    7   22 1   
    17    8    9 1   
    18    8   23 1   
    19    8   24 1   
    20    9   10 1   
    21    9   25 1   
    22    9   26 1   
    23   10   11 1   
    24   10   13 1   
    25   10   27 1   
    26   11   12 1   
    27   11   30 1   
    28   13   28 1   
    29   13   29 1   
@<TRIPOS>SUBSTRUCTURE
     1 029         1 TEMP              0 ****  ****    0 ROOT
