@<TRIPOS>MOLECULE
029
   30    30     1     0     0
SMALL
bcc


@<TRIPOS>ATOM
      1 C1          0.8350   -0.6820   -1.3670 c3        1 029     -0.075900
      2 C6         -0.2360    0.3070   -0.9280 c3        1 029     -0.068700
      3 C7         -1.5500   -0.4600   -0.7150 c3        1 029      0.171800
      4 N8         -2.7260    0.3840   -0.6360 nh        1 029     -0.806200
      5 C9         -3.7990   -0.0590    0.2040 c2        1 029      0.752100
      6 N11        -4.4890    0.8310    0.8790 n2        1 029     -0.886100
      7 N10        -4.1520   -1.4540    0.1320 nh        1 029     -0.929800
      8 C5          0.1940    1.0090    0.3500 c3        1 029     -0.075900
      9 C4          1.5410    1.6830    0.1920 c3        1 029     -0.047400
     10 C3          2.6110    0.7170   -0.2790 c3        1 029     -0.187700
     11 C12         3.0180   -0.3170    0.8020 c         1 029      0.912600
     12 O13         2.4040   -0.3340    1.9070 o         1 029     -0.847300
     13 C2          2.1740    0.0020   -1.5450 c3        1 029     -0.047400
     14 H11A        0.9430   -1.4820   -0.5850 hc        1 029      0.043950
     15 H12         0.5260   -1.1710   -2.3270 hc        1 029      0.043950
     16 H6         -0.3730    1.0720   -1.7430 hc        1 029      0.039700
     17 H71        -1.7080   -1.1540   -1.5910 h1        1 029      0.034700
     18 H72        -1.4230   -1.0970    0.2080 h1        1 029      0.034700
     19 HN8        -2.5050    1.3520   -0.4980 hn        1 029      0.416800
     20 H11        -5.2940    0.4760    1.3480 hn        1 029      0.380400
     21 H101       -3.5300   -2.0150   -0.4090 hn        1 029      0.382300
     22 H102       -4.3060   -1.8500    1.0350 hn        1 029      0.382300
     23 H51        -0.5750    1.7690    0.6440 hc        1 029      0.043950
     24 H52A        0.2880    0.2560    1.1820 hc        1 029      0.043950
     25 H41         1.4540    2.5330   -0.5360 hc        1 029      0.025200
     26 H42         1.8480    2.1010    1.1860 hc        1 029      0.025200
     27 H3          3.5420    1.3060   -0.5110 hc        1 029      0.033700
     28 H21         2.9500   -0.7660   -1.8040 hc        1 029      0.025200
     29 H22         2.1090    0.7350   -2.3930 hc        1 029      0.025200
     30 OXT         3.9700   -1.0990    0.5180 o         1 029     -0.847300
@<TRIPOS>BOND
     1    1    2 1   
     2    1   13 1   
     3    1   14 1   
     4    1   15 1   
     5    2    3 1   
     6    2    8 1   
     7    2   16 1   
     8    3    4 1   
     9    3   17 1   
    10    3   18 1   
    11    4    5 1   
    12    4   19 1   
    13    5    6 2   
    14    5    7 1   
    15    6   20 1   
    16    7   21 1   
    17    7   22 1   
    18    8    9 1   
    19    8   23 1   
    20    8   24 1   
    21    9   10 1   
    22    9   25 1   
    23    9   26 1   
    24   10   11 1   
    25   10   13 1   
    26   10   27 1   
    27   11   12 1   
    28   11   30 1   
    29   13   28 1   
    30   13   29 1   
@<TRIPOS>SUBSTRUCTURE
     1 029         1 TEMP              0 ****  ****    0 ROOT
