@<TRIPOS>MOLECULE
02A
   13    13     1     0     0
SMALL
bcc


@<TRIPOS>ATOM
      1 N25         1.3380    0.9050   -0.2910 n3        1 02A     -0.762200
      2 C28         0.2510   -0.0870   -0.5320 cy        1 02A      0.031500
      3 C29        -1.1110    0.2330    0.1280 c         1 02A      0.936600
      4 O30        -1.8800    1.0140   -0.4980 o         1 02A     -0.839800
      5 C27         1.1040   -1.1880    0.1520 cy        1 02A     -0.115400
      6 C26         2.2280   -0.1330    0.2750 cy        1 02A      0.113800
      7 H28         0.0670   -0.2910   -1.6180 h1        1 02A      0.021700
      8 H271        0.6700   -1.5220    1.1200 hc        1 02A      0.049700
      9 H272        1.3520   -2.0600   -0.4850 hc        1 02A      0.049700
     10 H261        3.1470   -0.3660   -0.3170 h1        1 02A      0.020700
     11 H262        2.5190    0.1240    1.3200 h1        1 02A      0.020700
     12 H2          1.6910    1.2840   -1.1470 hn        1 02A      0.312800
     13 OXT        -1.4010   -0.3440    1.2120 o         1 02A     -0.839800
@<TRIPOS>BOND
     1    1    2 1   
     2    1    6 1   
     3    1   12 1   
     4    2    3 1   
     5    2    5 1   
     6    2    7 1   
     7    3    4 1   
     8    3   13 1   
     9    5    6 1   
    10    5    8 1   
    11    5    9 1   
    12    6   10 1   
    13    6   11 1   
@<TRIPOS>SUBSTRUCTURE
     1 02A         1 TEMP              0 ****  ****    0 ROOT
