@<TRIPOS>MOLECULE
02B
   28    24     1     0     0
SMALL
bcc


@<TRIPOS>ATOM
      1 S20         1.0310   -2.5040    1.5930 ss        1 02B      2.869000
      2 O21         0.8840   -2.4550    3.0400 o         1 02B     -1.068000
      3 O22         0.1750   -3.7200    1.2530 o         1 02B     -1.068000
      4 C11         0.3830   -1.0080    0.8030 c1        1 02B     -0.702000
      5 C12        -0.0610   -1.0570   -0.5120 c2        1 02B      0.043000
      6 C13        -0.5870    0.0960   -1.1210 c1        1 02B     -0.126000
      7 C14        -0.6630    1.2960   -0.4030 c1        1 02B      0.055000
      8 C15        -0.2220    1.3500    0.9120 c1        1 02B     -0.207000
      9 C16         0.3050    0.1970    1.5250 c1        1 02B      0.034000
     10 C17         0.0220   -2.3490   -1.2970 c3        1 02B     -0.226000
     11 C18        -1.2420   -0.0040   -2.4890 c3        1 02B     -0.160000
     12 C10         0.8800    0.2810    2.9070 c3        1 02B     -0.187000
     13 O11        -1.2480    2.4510   -1.0050 os        1 02B     -0.240000
     14 C19        -0.3540    3.5400   -1.1550 c3        1 02B     -0.065000
     15 H151       -0.2840    2.2460    1.4450 ha        1 02B      0.118000
     16 H171        0.8590   -2.8000   -1.0910 hc        1 02B      0.103000
     17 H172       -0.7350   -2.9340   -1.0520 hc        1 02B      0.103000
     18 H173       -0.0160   -2.1410   -2.2960 hc        1 02B      0.103000
     19 H181       -1.8340    0.7760   -2.6310 hc        1 02B      0.072333
     20 H182       -0.5410   -0.0210   -3.1930 hc        1 02B      0.072333
     21 H183       -1.7640   -0.8160   -2.5360 hc        1 02B      0.072333
     22 H101        0.2480   -0.1110    3.5500 hc        1 02B      0.090667
     23 H102        1.7150   -0.2090    2.9370 hc        1 02B      0.090667
     24 H103        1.0400    1.2160    3.1380 hc        1 02B      0.090667
     25 H191       -0.8010    4.2620   -1.6540 h1        1 02B      0.066667
     26 H192       -0.0770    3.8800   -0.2390 h1        1 02B      0.066667
     27 H193        0.4150    3.2570   -1.6310 h1        1 02B      0.066667
     28 O1          2.4700   -2.7180    1.2020 os        1 02B     -1.066000
@<TRIPOS>BOND
     1    1    2 1   
     2    1    3 1   
     3    4    5 1   
     4    4    9 1   
     5    5    6 1   
     6    5   10 1   
     7    6   11 1   
     8    7    8 1   
     9    7   13 1   
    10    8   15 1   
    11    9   12 1   
    12   10   16 1   
    13   10   17 1   
    14   10   18 1   
    15   11   19 1   
    16   11   20 1   
    17   11   21 1   
    18   12   22 1   
    19   12   23 1   
    20   12   24 1   
    21   13   14 1   
    22   14   25 1   
    23   14   26 1   
    24   14   27 1   
@<TRIPOS>SUBSTRUCTURE
     1 02B         1 TEMP              0 ****  ****    0 ROOT
