@<TRIPOS>MOLECULE
02B
   28    28     1     0     0
SMALL
bcc


@<TRIPOS>ATOM
      1 S20         0.5260    0.1760   -0.6160 s6        1 02B      2.909000
      2 O21         1.7110   -0.1440   -1.2760 o         1 02B     -0.992000
      3 O22         0.5720    0.0060    0.7770 o         1 02B     -0.992000
      4 C11        -0.1970    1.5410   -1.0610 c2        1 02B     -0.974000
      5 C12        -0.5010    1.5180   -2.4310 c1        1 02B     -0.285000
      6 C13        -1.1140    2.6180   -3.0420 c2        1 02B     -0.138000
      7 C14        -1.4180    3.7400   -2.2630 c2        1 02B      0.100000
      8 C15        -1.1280    3.7690   -0.8800 c2        1 02B     -0.290000
      9 C16        -0.5250    2.6700   -0.2820 c2        1 02B      0.084000
     10 C17        -0.6560   -1.4950   -2.3570 c3        1 02B     -0.036000
     11 C18        -1.4290    2.5900   -4.4870 c3        1 02B     -0.128000
     12 C10        -0.2340    2.7030    1.1740 c3        1 02B     -0.196000
     13 O11        -2.0170    4.8050   -2.9250 os        1 02B     -0.229000
     14 C19        -2.3320    5.9410   -2.1400 c3        1 02B     -0.067000
     15 H151       -1.3780    4.6490   -0.2760 ha        1 02B      0.105000
     16 H171       -0.6830   -0.5940   -3.0330 h1        1 02B      0.073000
     17 H172       -1.6210   -2.0600   -2.4150 h1        1 02B      0.073000
     18 H173        0.1940   -2.1700   -2.6380 h1        1 02B      0.073000
     19 H181       -1.1750    1.5920   -4.9200 hc        1 02B      0.057000
     20 H182       -0.8460    3.3760   -5.0290 hc        1 02B      0.057000
     21 H183       -2.5160    2.7950   -4.6570 hc        1 02B      0.057000
     22 H101        0.8640    2.5810    1.3510 hc        1 02B      0.081333
     23 H102       -0.5650    3.6630    1.6390 hc        1 02B      0.081333
     24 H103       -0.7520    1.8540    1.6880 hc        1 02B      0.081333
     25 H191       -3.0620    5.6830   -1.3350 h1        1 02B      0.064333
     26 H192       -2.7940    6.6540   -2.8690 h1        1 02B      0.064333
     27 H193       -1.4100    6.3870   -1.6940 h1        1 02B      0.064333
     28 O1         -0.5080   -1.1000   -1.0220 os        1 02B     -0.696000
@<TRIPOS>BOND
     1    1    2 1   
     2    1    3 1   
     3    1    4 1   
     4    1   28 1   
     5    4    5 1   
     6    4    9 1   
     7    5    6 1   
     8    6    7 1   
     9    6   11 1   
    10    7    8 1   
    11    7   13 1   
    12    8    9 1   
    13    8   15 1   
    14    9   12 1   
    15   10   16 1   
    16   10   17 1   
    17   10   18 1   
    18   10   28 1   
    19   11   19 1   
    20   11   20 1   
    21   11   21 1   
    22   12   22 1   
    23   12   23 1   
    24   12   24 1   
    25   13   14 1   
    26   14   25 1   
    27   14   26 1   
    28   14   27 1   
@<TRIPOS>SUBSTRUCTURE
     1 02B         1 TEMP              0 ****  ****    0 ROOT
