@<TRIPOS>MOLECULE
02B
   28    28     1     0     0
SMALL
bcc


@<TRIPOS>ATOM
      1 S20         2.3530   -0.1890   -0.0440 s6        1 02B      1.457100
      2 O21         2.6910   -0.8130    1.1820 o         1 02B     -0.746533
      3 O22         2.6320   -0.9880   -1.1790 o         1 02B     -0.746533
      4 C11         0.5610   -0.0680   -0.0060 ca        1 02B     -0.280500
      5 C12        -0.1540    1.1400   -0.0100 ca        1 02B      0.048700
      6 C13        -1.5630    1.1590   -0.0050 ca        1 02B     -0.154300
      7 C14        -2.2480   -0.0700    0.0230 ca        1 02B      0.130100
      8 C15        -1.5560   -1.2800    0.0440 ca        1 02B     -0.246000
      9 C16        -0.1570   -1.2730    0.0290 ca        1 02B      0.047700
     10 C17         0.5810    2.4320   -0.0180 c3        1 02B     -0.069800
     11 C18        -2.3280    2.4280   -0.0290 c3        1 02B     -0.027800
     12 C10         0.5450   -2.5820    0.0530 c3        1 02B     -0.098800
     13 O11        -3.6380    0.0120    0.0340 os        1 02B     -0.345900
     14 C19        -4.3340   -1.2230    0.0080 c3        1 02B      0.122700
     15 H151       -2.0900   -2.2390    0.0720 ha        1 02B      0.117000
     16 H171        1.1900    2.5180   -0.9550 hc        1 02B      0.054033
     17 H172       -0.0940    3.3180    0.0500 hc        1 02B      0.054033
     18 H173        1.2970    2.4690    0.8430 hc        1 02B      0.054033
     19 H181       -2.0430    3.0390   -0.9220 hc        1 02B      0.030700
     20 H182       -3.4290    2.2420   -0.0760 hc        1 02B      0.030700
     21 H183       -2.1180    3.0280    0.8920 hc        1 02B      0.030700
     22 H101        1.2610   -2.6150    0.9160 hc        1 02B      0.062700
     23 H102       -0.1740   -3.4310    0.1460 hc        1 02B      0.062700
     24 H103        1.1400   -2.7100   -0.8900 hc        1 02B      0.062700
     25 H191       -4.0770   -1.8080   -0.9090 h1        1 02B      0.031033
     26 H192       -4.1140   -1.8230    0.9240 h1        1 02B      0.031033
     27 H193       -5.4120   -0.9210   -0.0110 h1        1 02B      0.031033
     28 O1          2.8690    1.1210   -0.1570 o         1 02B     -0.746533
@<TRIPOS>BOND
     1    1    2 1   
     2    1    3 1   
     3    1    4 1   
     4    1   28 1   
     5    4    5 ar  
     6    4    9 ar  
     7    5    6 ar  
     8    5   10 1   
     9    6    7 ar  
    10    6   11 1   
    11    7    8 ar  
    12    7   13 1   
    13    8    9 ar  
    14    8   15 1   
    15    9   12 1   
    16   10   16 1   
    17   10   17 1   
    18   10   18 1   
    19   11   19 1   
    20   11   20 1   
    21   11   21 1   
    22   12   22 1   
    23   12   23 1   
    24   12   24 1   
    25   13   14 1   
    26   14   25 1   
    27   14   26 1   
    28   14   27 1   
@<TRIPOS>SUBSTRUCTURE
     1 02B         1 TEMP              0 ****  ****    0 ROOT
