@<TRIPOS>MOLECULE
02B
   28    28     1     0     0
SMALL
bcc


@<TRIPOS>ATOM
      1 S20        -0.0880   -0.0860    0.1150 s6        1 02B      1.457100
      2 O21         1.1940    0.2490    0.6140 o         1 02B     -0.746533
      3 O22        -1.0900   -0.1230    1.1150 o         1 02B     -0.746533
      4 C11        -0.5420    1.3060   -0.9260 ca        1 02B     -0.280500
      5 C12        -0.7750    1.2220   -2.3080 ca        1 02B      0.048700
      6 C13        -1.1480    2.3550   -3.0590 ca        1 02B     -0.154300
      7 C14        -1.2700    3.5890   -2.3930 ca        1 02B      0.130100
      8 C15        -1.0300    3.6950   -1.0240 ca        1 02B     -0.246000
      9 C16        -0.6680    2.5540   -0.2990 ca        1 02B      0.048700
     10 C17        -0.6250   -0.0830   -3.0030 c3        1 02B     -0.069800
     11 C18        -1.4110    2.2750   -4.5160 c3        1 02B     -0.027800
     12 C10        -0.4200    2.7070    1.1580 c3        1 02B     -0.098800
     13 O11        -1.6360    4.6710   -3.1880 os        1 02B     -0.345900
     14 C19        -1.7970    5.9100   -2.5160 c3        1 02B      0.122700
     15 H151       -1.1200    4.6580   -0.5060 ha        1 02B      0.117000
     16 H171       -1.3590   -0.8220   -2.5870 hc        1 02B      0.054033
     17 H172        0.3990   -0.4980   -2.8200 hc        1 02B      0.054033
     18 H173       -0.7810   -0.0100   -4.1050 hc        1 02B      0.054033
     19 H181       -0.4880    1.9590   -5.0630 hc        1 02B      0.030700
     20 H182       -2.2200    1.5300   -4.7260 hc        1 02B      0.030700
     21 H183       -1.7360    3.2610   -4.9280 hc        1 02B      0.030700
     22 H101        0.6090    2.3400    1.4110 hc        1 02B      0.063033
     23 H102       -1.1560    2.0870    1.7350 hc        1 02B      0.063033
     24 H103       -0.5130    3.7720    1.4800 hc        1 02B      0.063033
     25 H191       -0.8340    6.2430   -2.0580 h1        1 02B      0.031367
     26 H192       -2.5930    5.8400   -1.7350 h1        1 02B      0.031367
     27 H193       -2.1080    6.6140   -3.3290 h1        1 02B      0.031367
     28 O1         -0.0800   -1.2430   -0.6950 o         1 02B     -0.746533
@<TRIPOS>BOND
     1    1    2 1   
     2    1    3 1   
     3    1    4 1   
     4    1   28 1   
     5    4    5 ar  
     6    4    9 ar  
     7    5    6 ar  
     8    5   10 1   
     9    6    7 ar  
    10    6   11 1   
    11    7    8 ar  
    12    7   13 1   
    13    8    9 ar  
    14    8   15 1   
    15    9   12 1   
    16   10   16 1   
    17   10   17 1   
    18   10   18 1   
    19   11   19 1   
    20   11   20 1   
    21   11   21 1   
    22   12   22 1   
    23   12   23 1   
    24   12   24 1   
    25   13   14 1   
    26   14   25 1   
    27   14   26 1   
    28   14   27 1   
@<TRIPOS>SUBSTRUCTURE
     1 02B         1 TEMP              0 ****  ****    0 ROOT
