@<TRIPOS>MOLECULE
02B
   28    28     1     0     0
SMALL
bcc


@<TRIPOS>ATOM
      1 S20        -0.1680   -0.1440   -0.5040 s6        1 02B      1.795000
      2 O21         1.2530    0.0940   -0.1210 o         1 02B     -0.953000
      3 O22        -0.9250   -0.5050    0.7230 o         1 02B     -0.953000
      4 C11        -0.8090    1.4190   -1.0460 ca        1 02B     -0.550000
      5 C12        -1.3080    1.4820   -2.3420 ca        1 02B     -0.063000
      6 C13        -1.8250    2.6670   -2.8840 ca        1 02B     -0.122000
      7 C14        -1.8350    3.8080   -2.0670 ca        1 02B      0.041000
      8 C15        -1.3440    3.7670   -0.7570 ca        1 02B     -0.193000
      9 C16        -0.8320    2.5710   -0.2460 ca        1 02B      0.029000
     10 C17         1.0020   -1.9050   -2.2130 c2        1 02B     -0.126000
     11 C18        -2.3600    2.7000   -4.2620 c3        1 02B     -0.156000
     12 C10        -0.3100    2.5150    1.1410 c3        1 02B     -0.209000
     13 O11        -2.4220    4.9760   -2.5590 os        1 02B     -0.239000
     14 C19        -1.5030    6.0530   -2.6940 c3        1 02B     -0.066000
     15 H151       -1.3710    4.6740   -0.1370 ha        1 02B      0.118000
     16 H171       -1.2900    0.5710   -2.9650 ha        1 02B      0.135000
     17 H172        1.6220   -1.4310   -2.9900 h4        1 02B      0.065500
     18 H173        1.4690   -2.7000   -1.6110 h4        1 02B      0.065500
     19 H181       -1.8020    1.9920   -4.9220 hc        1 02B      0.069667
     20 H182       -2.2840    3.7300   -4.6910 hc        1 02B      0.069667
     21 H183       -3.4390    2.4040   -4.2620 hc        1 02B      0.069667
     22 H101       -0.3840    3.5050    1.6500 hc        1 02B      0.098667
     23 H102       -0.8860    1.7500    1.7260 hc        1 02B      0.098667
     24 H103        0.7610    2.1810    1.1240 hc        1 02B      0.098667
     25 H191       -1.0210    6.2910   -1.7150 h1        1 02B      0.066333
     26 H192       -2.1320    6.9100   -3.0410 h1        1 02B      0.066333
     27 H193       -0.7220    5.8060   -3.4530 h1        1 02B      0.066333
     28 O1         -0.1280   -1.4310   -1.9050 os        1 02B     -0.324000
@<TRIPOS>BOND
     1    1    2 1   
     2    1    3 1   
     3    1    4 1   
     4    1   28 1   
     5    4    5 1   
     6    4    9 1   
     7    5    6 1   
     8    5   16 1   
     9    6    7 1   
    10    6   11 1   
    11    7    8 1   
    12    7   13 1   
    13    8    9 1   
    14    8   15 1   
    15    9   12 1   
    16   10   17 1   
    17   10   18 1   
    18   10   28 1   
    19   11   19 1   
    20   11   20 1   
    21   11   21 1   
    22   12   22 1   
    23   12   23 1   
    24   12   24 1   
    25   13   14 1   
    26   14   25 1   
    27   14   26 1   
    28   14   27 1   
@<TRIPOS>SUBSTRUCTURE
     1 02B         1 TEMP              0 ****  ****    0 ROOT
