@<TRIPOS>MOLECULE
02C
   18    14     1     0     0
SMALL
bcc


@<TRIPOS>ATOM
      1 C1         -1.1910   -0.0520   -1.1600 c1        1 02C     -0.241900
      2 C2          0.2490    0.0270   -1.1480 cg        1 02C     -0.033200
      3 N3          0.7280    0.0720    0.3460 n1        1 02C     -0.510600
      4 C4         -0.4220    0.0200    1.1910 c1        1 02C      0.248900
      5 S5         -1.6710   -0.0600    0.2880 ss        1 02C      0.145800
      6 C6          1.1450    0.0600   -2.3670 c1        1 02C      0.542600
      7 C7         -0.4210    0.1080    2.7010 c2        1 02C      0.297100
      8 N8         -1.2930   -0.8850    3.2360 nh        1 02C     -0.519100
      9 N28         1.6230   -1.0530   -2.8560 n1        1 02C     -0.635800
     10 N29         1.4650    1.2990   -2.9790 n3        1 02C     -0.792400
     11 H1         -1.7580   -0.0930   -1.9530 DU        1 02C      0.167500
     12 H71        -0.7300    0.9960    2.9770 h4        1 02C     -0.031700
     13 H72         0.4870   -0.0400    3.0360 h4        1 02C     -0.031700
     14 HN8        -1.9420   -0.4820    3.7410 hn        1 02C      0.207700
     15 HN28        1.4160   -1.8520   -2.4620 DU        1 02C      0.167500
     16 H291        1.6190    2.0380   -2.4620 hn        1 02C      0.405800
     17 H292        1.5100    1.3610   -3.8900 hn        1 02C      0.405800
     18 H2         -0.8130   -1.4630    3.7600 hn        1 02C      0.207700
@<TRIPOS>BOND
     1    1    2 3   
     2    1    5 1   
     3    2    3 1   
     4    3    4 3   
     5    4    5 1   
     6    6    9 3   
     7    6   10 1   
     8    7    8 2   
     9    7   12 1   
    10    7   13 1   
    11    8   14 1   
    12    8   18 1   
    13   10   16 1   
    14   10   17 1   
@<TRIPOS>SUBSTRUCTURE
     1 02C         1 TEMP              0 ****  ****    0 ROOT
