@<TRIPOS>MOLECULE
02C
   20    20     1     0     0
SMALL
bcc


@<TRIPOS>ATOM
      1 C1          0.0600   -0.6260    0.0950 cc        1 02C     -0.236400
      2 C2          1.3430   -0.0470    0.0360 cd        1 02C      0.195000
      3 N3          1.8700    0.3000    1.2620 nd        1 02C     -0.623000
      4 C4          0.9670   -0.0140    2.2200 cc        1 02C      0.207700
      5 S5         -0.4640   -0.7160    1.6380 ss        1 02C      0.306700
      6 C6          2.0420    0.2120   -1.2420 cf        1 02C      0.495200
      7 C7          1.2370    0.1660    3.6750 c3        1 02C      0.097500
      8 N8          1.7480    1.5280    4.0110 nz        1 02C     -0.834600
      9 N28         1.5990    0.6930   -2.3370 n2        1 02C     -0.669100
     10 N29         3.4890   -0.1820   -1.2110 nz        1 02C     -0.812600
     11 H1         -0.5020   -0.9760   -0.7810 h4        1 02C      0.232000
     12 H71         0.2870   -0.0040    4.2680 hx        1 02C      0.135700
     13 H72         2.0140   -0.5860    4.0180 hx        1 02C      0.135700
     14 HN8         1.0800    2.2490    3.7160 hn        1 02C      0.474467
     15 HN28        0.6440    0.9820   -2.4110 hn        1 02C      0.499400
     16 H291        3.5580   -1.1630   -0.9150 hn        1 02C      0.482133
     17 H292        3.9280   -0.0760   -2.1400 hn        1 02C      0.482133
     18 H2          2.6430    1.7020    3.5370 hn        1 02C      0.474467
     19 H83         1.8910    1.6010    5.0270 hn        1 02C      0.474467
     20 H293        3.9810    0.4150   -0.5370 hn        1 02C      0.482133
@<TRIPOS>BOND
     1    1    2 2   
     2    1    5 1   
     3    1   11 1   
     4    2    3 1   
     5    2    6 1   
     6    3    4 2   
     7    4    5 1   
     8    4    7 1   
     9    6    9 2   
    10    6   10 1   
    11    7    8 1   
    12    7   12 1   
    13    7   13 1   
    14    8   14 1   
    15    8   18 1   
    16    8   19 1   
    17    9   15 1   
    18   10   16 1   
    19   10   17 1   
    20   10   20 1   
@<TRIPOS>SUBSTRUCTURE
     1 02C         1 TEMP              0 ****  ****    0 ROOT
