@<TRIPOS>MOLECULE
02C
   20    20     1     0     0
SMALL
bcc


@<TRIPOS>ATOM
      1 C1          0.0750   -0.6510    0.0920 cc        1 02C     -0.236400
      2 C2          1.3490   -0.0500    0.0350 cd        1 02C      0.195000
      3 N3          1.8690    0.3030    1.2620 nd        1 02C     -0.623000
      4 C4          0.9720   -0.0280    2.2190 cc        1 02C      0.207700
      5 S5         -0.4470   -0.7540    1.6350 ss        1 02C      0.306700
      6 C6          2.0430    0.2240   -1.2420 cf        1 02C      0.495200
      7 C7          1.2380    0.1530    3.6750 c3        1 02C      0.097500
      8 N8          1.7270    1.5230    4.0140 n4        1 02C     -0.834600
      9 N28         1.5920    0.6990   -2.3360 n2        1 02C     -0.669100
     10 N29         3.4970   -0.1460   -1.2110 n4        1 02C     -0.812600
     11 H1         -0.4800   -1.0090   -0.7840 h4        1 02C      0.232000
     12 H71         0.2920   -0.0350    4.2670 hx        1 02C      0.135700
     13 H72         2.0290   -0.5860    4.0160 hx        1 02C      0.135700
     14 HN8         2.6190    1.7120    3.5400 hn        1 02C      0.474467
     15 HN28        0.6330    0.9720   -2.4090 hn        1 02C      0.499400
     16 H291        3.9790    0.4580   -0.5360 hn        1 02C      0.482133
     17 H292        3.5830   -1.1250   -0.9180 hn        1 02C      0.482133
     18 H2          1.8680    1.5960    5.0300 hn        1 02C      0.474467
     19 H83         1.0460    2.2330    3.7200 hn        1 02C      0.474467
     20 H293        3.9340   -0.0300   -2.1400 hn        1 02C      0.482133
@<TRIPOS>BOND
     1    1    2 2   
     2    1    5 1   
     3    1   11 1   
     4    2    3 1   
     5    2    6 1   
     6    3    4 2   
     7    4    5 1   
     8    4    7 1   
     9    6    9 2   
    10    6   10 1   
    11    7    8 1   
    12    7   12 1   
    13    7   13 1   
    14    8   14 1   
    15    8   18 1   
    16    8   19 1   
    17    9   15 1   
    18   10   16 1   
    19   10   17 1   
    20   10   20 1   
@<TRIPOS>SUBSTRUCTURE
     1 02C         1 TEMP              0 ****  ****    0 ROOT
