@<TRIPOS>MOLECULE
02C
   18    18     1     0     0
SMALL
bcc


@<TRIPOS>ATOM
      1 C1         -0.5920    1.3810    0.7170 cc        1 02C     -0.193400
      2 C2         -0.8650    0.1490    0.1320 cd        1 02C      0.290000
      3 N3          0.2500   -0.6640   -0.0670 nd        1 02C     -0.646000
      4 C4          1.3400   -0.0320    0.3690 cc        1 02C      0.340700
      5 S5          1.0410    1.5360    1.0180 ss        1 02C     -0.076300
      6 C6         -2.2340   -0.2860   -0.2850 cf        1 02C      0.578200
      7 C7          2.7320   -0.6010    0.3270 c3        1 02C      0.131500
      8 N8          2.9670   -1.7100   -0.5520 n3        1 02C     -0.892800
      9 N28        -3.0300    0.6330   -0.7480 n2        1 02C     -0.837100
     10 N29        -2.5380   -1.6400   -0.0420 nh        1 02C     -0.945800
     11 H1         -1.3390    2.1450    0.9320 h4        1 02C      0.201000
     12 H71         3.4340    0.2320    0.0320 h1        1 02C      0.068200
     13 H72         2.9960   -0.9260    1.3770 h1        1 02C      0.068200
     14 HN8         2.4200   -2.5060   -0.2880 hn        1 02C      0.359300
     15 HN28       -3.9430    0.3330   -1.0160 hn        1 02C      0.386400
     16 H291       -1.7660   -2.2480    0.1000 hn        1 02C      0.403800
     17 H292       -3.2620   -2.0320   -0.6000 hn        1 02C      0.403800
     18 H2          2.7540   -1.4720   -1.5010 hn        1 02C      0.359300
@<TRIPOS>BOND
     1    1    2 2   
     2    1    5 1   
     3    1   11 1   
     4    2    3 1   
     5    2    6 1   
     6    3    4 2   
     7    4    5 1   
     8    4    7 1   
     9    6    9 2   
    10    6   10 1   
    11    7    8 1   
    12    7   12 1   
    13    7   13 1   
    14    8   14 1   
    15    8   18 1   
    16    9   15 1   
    17   10   16 1   
    18   10   17 1   
@<TRIPOS>SUBSTRUCTURE
     1 02C         1 TEMP              0 ****  ****    0 ROOT
