@<TRIPOS>MOLECULE
02C
   20    20     1     0     0
SMALL
bcc


@<TRIPOS>ATOM
      1 C1          0.0830   -0.6500    0.0790 cc        1 02C     -0.236400
      2 C2          1.3540   -0.0410    0.0310 cd        1 02C      0.195000
      3 N3          1.8690    0.3030    1.2630 nd        1 02C     -0.623000
      4 C4          0.9700   -0.0430    2.2140 cc        1 02C      0.207700
      5 S5         -0.4430   -0.7700    1.6190 ss        1 02C      0.306700
      6 C6          2.0500    0.2490   -1.2410 cf        1 02C      0.495200
      7 C7          1.2310    0.1260    3.6720 c3        1 02C      0.097500
      8 N8          1.7110    1.4950    4.0260 n4        1 02C     -0.834600
      9 N28         1.6000    0.7340   -2.3310 n2        1 02C     -0.669100
     10 N29         3.5060   -0.1150   -1.2100 n4        1 02C     -0.812600
     11 H1         -0.4680   -1.0020   -0.8030 h4        1 02C      0.232000
     12 H71         0.2840   -0.0730    4.2590 hx        1 02C      0.135700
     13 H72         2.0240   -0.6120    4.0090 hx        1 02C      0.135700
     14 HN8         1.0270    2.2040    3.7370 hn        1 02C      0.474467
     15 HN28        0.6400    1.0030   -2.4050 hn        1 02C      0.499400
     16 H291        3.5950   -1.0970   -0.9270 hn        1 02C      0.482133
     17 H292        3.9450    0.0130   -2.1360 hn        1 02C      0.482133
     18 H2          2.6030    1.6940    3.5570 hn        1 02C      0.474467
     19 H83         1.8480    1.5590    5.0430 hn        1 02C      0.474467
     20 H293        3.9830    0.4840   -0.5270 hn        1 02C      0.482133
@<TRIPOS>BOND
     1    1    2 2   
     2    1    5 1   
     3    1   11 1   
     4    2    3 1   
     5    2    6 1   
     6    3    4 2   
     7    4    5 1   
     8    4    7 1   
     9    6    9 2   
    10    6   10 1   
    11    7    8 1   
    12    7   12 1   
    13    7   13 1   
    14    8   14 1   
    15    8   18 1   
    16    8   19 1   
    17    9   15 1   
    18   10   16 1   
    19   10   17 1   
    20   10   20 1   
@<TRIPOS>SUBSTRUCTURE
     1 02C         1 TEMP              0 ****  ****    0 ROOT
