@<TRIPOS>MOLECULE
02D
   19    19     1     0     0
SMALL
bcc


@<TRIPOS>ATOM
      1 C1         -0.9530   -0.2160    0.0690 cc        1 02D     -0.190000
      2 C2         -0.3500   -1.3410   -0.4650 cd        1 02D     -0.099000
      3 C3          1.0690   -1.2880   -0.3270 cd        1 02D     -0.170000
      4 C4          1.4810   -0.1320    0.3100 cc        1 02D     -0.160400
      5 S5          0.1820    0.8370    0.7220 ss        1 02D      0.059200
      6 C6         -2.4110    0.0240    0.1020 ce        1 02D      0.679800
      7 N7         -3.2070   -0.9880    0.2790 n2        1 02D     -0.816100
      8 N8         -2.7720    1.3920    0.0040 nh        1 02D     -0.953800
      9 C9          2.8910    0.2240    0.6310 c3        1 02D      0.226100
     10 N10         3.8380    0.1490   -0.4510 n3        1 02D     -0.896800
     11 H2         -0.8840   -2.1750   -0.9270 ha        1 02D      0.170000
     12 H3          1.7320   -2.0810   -0.6800 ha        1 02D      0.154000
     13 HN7        -4.1840   -0.7860    0.2880 hn        1 02D      0.383400
     14 HN81       -2.1240    1.9640   -0.4880 hn        1 02D      0.394800
     15 HN82       -3.7210    1.5770   -0.2320 hn        1 02D      0.394800
     16 H91         2.9230    1.2750    1.0420 h1        1 02D      0.063200
     17 H92         3.2500   -0.4700    1.4480 h1        1 02D      0.063200
     18 HN10        3.8770   -0.7780   -0.8280 hn        1 02D      0.349300
     19 H1          3.5970    0.7840   -1.1860 hn        1 02D      0.349300
@<TRIPOS>BOND
     1    1    2 2   
     2    1    5 1   
     3    1    6 1   
     4    2    3 1   
     5    2   11 1   
     6    3    4 2   
     7    3   12 1   
     8    4    5 1   
     9    4    9 1   
    10    6    7 2   
    11    6    8 1   
    12    7   13 1   
    13    8   14 1   
    14    8   15 1   
    15    9   10 1   
    16    9   16 1   
    17    9   17 1   
    18   10   18 1   
    19   10   19 1   
@<TRIPOS>SUBSTRUCTURE
     1 02D         1 TEMP              0 ****  ****    0 ROOT
