@<TRIPOS>MOLECULE
02D
   21    21     1     0     0
SMALL
bcc


@<TRIPOS>ATOM
      1 C1         -0.1880    0.2480    0.0950 cc        1 02D     -0.319000
      2 C2          0.9600   -0.5330    0.2510 cd        1 02D     -0.093000
      3 C3          1.4700   -0.4390    1.5690 cd        1 02D     -0.116000
      4 C4          0.6980    0.4180    2.3550 cc        1 02D     -0.233400
      5 S5         -0.5800    1.0440    1.5000 ss        1 02D      0.283200
      6 C6         -0.9040    0.3890   -1.1750 ce        1 02D      0.606800
      7 N7         -1.0250    1.3780   -1.9720 n2        1 02D     -0.667100
      8 N8         -1.5810   -0.8890   -1.5960 n4        1 02D     -0.817600
      9 C9          0.9230    0.6550    3.7960 c3        1 02D      0.197100
     10 N10         2.2400    1.3100    4.0800 n4        1 02D     -0.839600
     11 H2          1.4350   -1.1350   -0.5330 ha        1 02D      0.192000
     12 H3          2.3510   -0.9960    1.9070 ha        1 02D      0.188000
     13 HN7        -0.5860    2.2520   -1.7640 hn        1 02D      0.498400
     14 HN81       -2.3470   -1.0930   -0.9440 hn        1 02D      0.480467
     15 HN82       -0.8930   -1.6490   -1.5630 hn        1 02D      0.480467
     16 H91         0.9140   -0.3340    4.3520 hx        1 02D      0.132200
     17 H92         0.1140    1.3150    4.2340 hx        1 02D      0.132200
     18 HN10        2.3760    1.3840    5.0970 hn        1 02D      0.471467
     19 H1          2.2730    2.2510    3.6720 hn        1 02D      0.471467
     20 H83        -1.9650   -0.8170   -2.5520 hn        1 02D      0.480467
     21 H103        3.0050    0.7550    3.6800 hn        1 02D      0.471467
@<TRIPOS>BOND
     1    1    2 2   
     2    1    5 1   
     3    1    6 1   
     4    2    3 1   
     5    2   11 1   
     6    3    4 2   
     7    3   12 1   
     8    4    5 1   
     9    4    9 1   
    10    6    7 2   
    11    6    8 1   
    12    7   13 1   
    13    8   14 1   
    14    8   15 1   
    15    8   20 1   
    16    9   10 1   
    17    9   16 1   
    18    9   17 1   
    19   10   18 1   
    20   10   19 1   
    21   10   21 1   
@<TRIPOS>SUBSTRUCTURE
     1 02D         1 TEMP              0 ****  ****    0 ROOT
