@<TRIPOS>MOLECULE
02D
   21    21     1     0     0
SMALL
bcc


@<TRIPOS>ATOM
      1 C1         -0.2110    0.2140    0.1090 cc        1 02D     -0.319000
      2 C2          0.9950   -0.4810    0.2290 cd        1 02D     -0.093000
      3 C3          1.5280   -0.3630    1.5360 cd        1 02D     -0.116000
      4 C4          0.7140    0.4270    2.3500 cc        1 02D     -0.233400
      5 S5         -0.6260    0.9650    1.5320 ss        1 02D      0.283200
      6 C6         -0.9650    0.3160   -1.1420 ce        1 02D      0.606800
      7 N7         -1.1770    1.3010   -1.9250 n2        1 02D     -0.667100
      8 N8         -1.5570   -1.0040   -1.5630 nz        1 02D     -0.817600
      9 C9          0.9550    0.6640    3.7880 c3        1 02D      0.197100
     10 N10         2.2260    1.4120    4.0500 nz        1 02D     -0.839600
     11 H2          1.4940   -1.0380   -0.5730 ha        1 02D      0.192000
     12 H3          2.4560   -0.8570    1.8470 ha        1 02D      0.188000
     13 HN7        -0.7980    2.2030   -1.7170 hn        1 02D      0.498400
     14 HN81       -2.2890   -1.2710   -0.8960 hn        1 02D      0.480467
     15 HN82       -0.8140   -1.7120   -1.5550 hn        1 02D      0.480467
     16 H91         1.0330   -0.3290    4.3320 hx        1 02D      0.132200
     17 H92         0.1110    1.2570    4.2530 hx        1 02D      0.132200
     18 HN10        2.3810    1.4850    5.0640 hn        1 02D      0.471467
     19 H1          2.1800    2.3570    3.6530 hn        1 02D      0.471467
     20 H83        -1.9680   -0.9510   -2.5090 hn        1 02D      0.480467
     21 H103        3.0210    0.9200    3.6260 hn        1 02D      0.471467
@<TRIPOS>BOND
     1    1    2 2   
     2    1    5 1   
     3    1    6 1   
     4    2    3 1   
     5    2   11 1   
     6    3    4 2   
     7    3   12 1   
     8    4    5 1   
     9    4    9 1   
    10    6    7 2   
    11    6    8 1   
    12    7   13 1   
    13    8   14 1   
    14    8   15 1   
    15    8   20 1   
    16    9   10 1   
    17    9   16 1   
    18    9   17 1   
    19   10   18 1   
    20   10   19 1   
    21   10   21 1   
@<TRIPOS>SUBSTRUCTURE
     1 02D         1 TEMP              0 ****  ****    0 ROOT
