@<TRIPOS>MOLECULE
02D
   19    14     1     0     0
SMALL
bcc


@<TRIPOS>ATOM
      1 C1         -0.2220   -0.1570   -1.1320 c1        1 02D     -0.199900
      2 C2          1.2250   -0.1100   -1.1370 cg        1 02D     -0.140000
      3 C3          1.7310   -0.1220    0.3910 cg        1 02D     -0.140000
      4 C4          0.5460   -0.1770    1.2680 c1        1 02D     -0.199900
      5 S5         -0.7000   -0.2020    0.3760 ss        1 02D      0.146800
      6 C6         -1.1480   -0.2480   -2.3840 c1        1 02D      0.534600
      7 N7         -1.5670   -1.4050   -2.8000 n1        1 02D     -0.630800
      8 N8         -1.5460    0.9590   -3.0790 n3        1 02D     -0.794400
      9 C9          0.5560   -0.3650    2.7990 c2        1 02D      0.295100
     10 N10         0.1270    0.8180    3.4150 nh        1 02D     -0.483100
     11 H2          1.7980   -0.0770   -1.9320 DU        1 02D      0.157333
     12 H3          2.6690   -0.0970    0.6900 DU        1 02D      0.157333
     13 HN7        -1.3150   -2.1770   -2.3550 DU        1 02D      0.157333
     14 HN81       -1.3480    1.7400   -2.7440 hn        1 02D      0.400300
     15 HN82       -1.9830    0.9040   -3.8900 hn        1 02D      0.400300
     16 H91        -0.0570   -1.1010    3.0420 h4        1 02D     -0.025700
     17 H92         1.5140   -0.5920    3.1170 h4        1 02D     -0.025700
     18 HN10        0.5200    1.5130    3.0270 hn        1 02D      0.195200
     19 H1         -0.8000    0.8940    3.3300 hn        1 02D      0.195200
@<TRIPOS>BOND
     1    1    2 3   
     2    1    5 1   
     3    2    3 1   
     4    3    4 3   
     5    4    5 1   
     6    6    7 3   
     7    6    8 1   
     8    8   14 1   
     9    8   15 1   
    10    9   10 2   
    11    9   16 1   
    12    9   17 1   
    13   10   18 1   
    14   10   19 1   
@<TRIPOS>SUBSTRUCTURE
     1 02D         1 TEMP              0 ****  ****    0 ROOT
