@<TRIPOS>MOLECULE
02D
   21    21     1     0     0
SMALL
bcc


@<TRIPOS>ATOM
      1 C1         -0.2230    0.2220    0.1160 cc        1 02D     -0.319000
      2 C2          0.9910   -0.4630    0.2120 cd        1 02D     -0.093000
      3 C3          1.5380   -0.3570    1.5150 cd        1 02D     -0.116000
      4 C4          0.7270    0.4140    2.3490 cc        1 02D     -0.233400
      5 S5         -0.6280    0.9500    1.5530 ss        1 02D      0.283200
      6 C6         -0.9930    0.3320   -1.1250 ce        1 02D      0.606800
      7 N7         -1.2220    1.3250   -1.8930 n2        1 02D     -0.667100
      8 N8         -1.5770   -0.9880   -1.5560 n4        1 02D     -0.817600
      9 C9          0.9820    0.6350    3.7870 c3        1 02D      0.197100
     10 N10         2.2490    1.3930    4.0430 n4        1 02D     -0.839600
     11 H2          1.4860   -1.0040   -0.6030 ha        1 02D      0.192000
     12 H3          2.4740   -0.8460    1.8080 ha        1 02D      0.188000
     13 HN7        -0.8500    2.2280   -1.6780 hn        1 02D      0.498400
     14 HN81       -0.8280   -1.6890   -1.5650 hn        1 02D      0.480467
     15 HN82       -2.3000   -1.2690   -0.8840 hn        1 02D      0.480467
     16 H91         1.0760   -0.3640    4.3170 hx        1 02D      0.132200
     17 H92         0.1370    1.2140    4.2690 hx        1 02D      0.132200
     18 HN10        2.4150    1.4540    5.0570 hn        1 02D      0.471467
     19 H1          2.1890    2.3420    3.6590 hn        1 02D      0.471467
     20 H83        -1.9990   -0.9260   -2.4970 hn        1 02D      0.480467
     21 H103        3.0430    0.9140    3.6030 hn        1 02D      0.471467
@<TRIPOS>BOND
     1    1    2 2   
     2    1    5 1   
     3    1    6 1   
     4    2    3 1   
     5    2   11 1   
     6    3    4 2   
     7    3   12 1   
     8    4    5 1   
     9    4    9 1   
    10    6    7 2   
    11    6    8 1   
    12    7   13 1   
    13    8   14 1   
    14    8   15 1   
    15    8   20 1   
    16    9   10 1   
    17    9   16 1   
    18    9   17 1   
    19   10   18 1   
    20   10   19 1   
    21   10   21 1   
@<TRIPOS>SUBSTRUCTURE
     1 02D         1 TEMP              0 ****  ****    0 ROOT
