@<TRIPOS>MOLECULE
02F
   23    21     1     0     0
SMALL
bcc


@<TRIPOS>ATOM
      1 P          -2.9540   -0.3820   -1.5680 p4        1 02F      1.572000
      2 C1          2.9390    1.1550    2.7210 c3        1 02F      0.128700
      3 C2          1.1750    0.3780    1.3560 c3        1 02F      0.124400
      4 O2          2.3630    1.1300    1.4340 os        1 02F     -0.438600
      5 C3          0.6520    0.4070   -0.0630 c3        1 02F     -0.070400
      6 C4         -0.6360   -0.3820   -0.1430 c3        1 02F     -0.052400
      7 C5         -1.1390   -0.3820   -1.5680 c3        1 02F     -0.040700
      8 N6         -0.6650   -1.5440   -2.2380 n3        1 02F     -0.882800
      9 OP1        -3.4570   -0.4830   -2.9880 o         1 02F     -0.949500
     10 OP2        -3.4570   -1.5620   -0.7710 os        1 02F     -1.262000
     11 OP3        -3.4570    0.8980   -0.9440 o         1 02F     -0.998300
     12 H1          3.1590    0.2450    2.9970 h1        1 02F      0.007033
     13 H1A         3.7530    1.6950    2.7030 h1        1 02F      0.007033
     14 H1B         2.3060    1.5430    3.3540 h1        1 02F      0.007033
     15 H2          0.5070    0.7610    1.9560 h1        1 02F      0.020200
     16 H2A         1.3560   -0.5450    1.6170 h1        1 02F      0.020200
     17 H3          1.3140    0.0110   -0.6620 hc        1 02F      0.027700
     18 H3A         0.4850    1.3310   -0.3300 hc        1 02F      0.027700
     19 H4         -0.4730   -1.3010    0.1450 hc        1 02F      0.062200
     20 H4A        -1.3040    0.0270    0.4390 hc        1 02F      0.062200
     21 H5         -0.8140    0.4150   -2.0280 h1        1 02F      0.005700
     22 HN6        -1.3610   -2.1140   -2.3870 hn        1 02F      0.311800
     23 H6         -0.2930   -1.3040   -3.0350 hn        1 02F      0.311800
@<TRIPOS>BOND
     1    1    7 1   
     2    1    9 1   
     3    1   11 2   
     4    2    4 1   
     5    2   12 1   
     6    2   13 1   
     7    2   14 1   
     8    3    4 1   
     9    3    5 1   
    10    3   15 1   
    11    3   16 1   
    12    5    6 1   
    13    5   17 1   
    14    5   18 1   
    15    6    7 1   
    16    6   19 1   
    17    6   20 1   
    18    7    8 1   
    19    7   21 1   
    20    8   22 1   
    21    8   23 1   
@<TRIPOS>SUBSTRUCTURE
     1 02F         1 TEMP              0 ****  ****    0 ROOT
