@<TRIPOS>MOLECULE
02F
   24    22     1     0     0
SMALL
bcc


@<TRIPOS>ATOM
      1 P           1.3230   -1.0570    0.6670 p5        1 02F      1.361600
      2 C1          1.1510    1.5010    4.4200 c3        1 02F     -0.143100
      3 C2          0.6290    2.5580    3.4720 c3        1 02F      0.155400
      4 O2          1.5900    2.9080    2.4980 oh        1 02F     -0.647800
      5 C4          5.6300    1.2110    3.3190 c2        1 02F     -0.235000
      6 C5          0.3780   -0.6330   -0.6630 cx        1 02F      0.060100
      7 N6          0.4210   -1.4390   -1.8310 n8        1 02F     -0.877800
      8 OP1         1.7750    0.0380    1.5480 o         1 02F     -0.840500
      9 OP2        -0.3300   -1.1790    0.4930 os        1 02F     -0.594200
     10 OP3         2.0280   -2.3420    0.5660 o         1 02F     -0.840500
     11 H1          1.8450    2.0860    2.0420 ho        1 02F      0.461000
     12 H1A         2.0390    1.8840    4.9780 hc        1 02F      0.043367
     13 H1B         1.4680    0.6020    3.8310 hc        1 02F      0.043367
     14 H2          0.3600    1.2090    5.1500 hc        1 02F      0.043367
     15 H2A        -0.3070    2.1940    2.9690 h1        1 02F      0.018700
     16 H3          0.4040    3.5160    4.0140 h1        1 02F      0.018700
     17 H3A         3.8960    2.4540    3.2810 ha        1 02F      0.116750
     18 H4          3.6640    0.7610    2.5830 ha        1 02F      0.116750
     19 H4A         6.3100    1.9360    3.7850 ha        1 02F      0.116750
     20 H5          6.0880    0.2400    3.0890 ha        1 02F      0.116750
     21 HN6         0.0130    0.3870   -0.8980 h2        1 02F      0.075700
     22 H6          0.8050   -2.3390   -1.5970 hn        1 02F      0.333300
     23 H63        -0.4940   -1.5810   -2.2170 hn        1 02F      0.333300
     24 C3          4.3590    1.4810    3.0530 c2        1 02F     -0.235000
@<TRIPOS>BOND
     1    1    6 1   
     2    1    8 1   
     3    1    9 1   
     4    1   10 1   
     5    2    3 1   
     6    2   12 1   
     7    2   13 1   
     8    2   14 1   
     9    3    4 1   
    10    3   15 1   
    11    3   16 1   
    12    4   11 1   
    13    5   19 1   
    14    5   20 1   
    15    5   24 2   
    16    6    7 1   
    17    6    9 1   
    18    6   21 1   
    19    7   22 1   
    20    7   23 1   
    21   17   24 1   
    22   18   24 1   
@<TRIPOS>SUBSTRUCTURE
     1 02F         1 TEMP              0 ****  ****    0 ROOT
