@<TRIPOS>MOLECULE
02F
   23    22     1     0     0
SMALL
bcc


@<TRIPOS>ATOM
      1 P          -2.2840    0.2870   -1.0050 p5        1 02F      1.202700
      2 C1          5.0480    0.1870    0.0880 c3        1 02F      0.127700
      3 C2          2.6980    0.2730   -0.1560 c3        1 02F      0.125400
      4 O2          3.8150    0.3850    0.7420 os        1 02F     -0.439600
      5 C4          0.2240    0.4110   -0.2740 c3        1 02F     -0.097400
      6 C5         -1.1060    0.4740    0.4300 c3        1 02F     -0.036700
      7 N6         -1.4470    1.6790    1.1270 n3        1 02F     -0.868800
      8 OP1        -2.1920    1.6650   -1.6280 o         1 02F     -0.945833
      9 OP2        -1.6660   -0.8230   -1.8260 o         1 02F     -0.945833
     10 OP3        -3.6150   -0.0600   -0.3940 o         1 02F     -0.945833
     11 H1          5.2050    0.9520   -0.7140 h1        1 02F      0.008033
     12 H1A         5.8260    0.2980    0.8840 h1        1 02F      0.008033
     13 H1B         5.1030   -0.8360   -0.3640 h1        1 02F      0.008033
     14 H2          2.8010    1.0480   -0.9610 h1        1 02F      0.021700
     15 H2A         2.7090   -0.7460   -0.6260 h1        1 02F      0.021700
     16 H3          1.3530   -0.2940    1.4430 hc        1 02F      0.024700
     17 H3A         1.4790    1.4830    1.1560 hc        1 02F      0.024700
     18 H4          0.2590    1.2420   -1.0300 hc        1 02F      0.069700
     19 H4A         0.2340   -0.5560   -0.8530 hc        1 02F      0.069700
     20 H5         -1.2230   -0.3880    1.1270 h1        1 02F      0.028700
     21 HN6        -0.6140    2.1780    1.3960 hn        1 02F      0.304800
     22 H6         -1.9470    2.2770    0.4820 hn        1 02F      0.304800
     23 C3          1.4280    0.4880    0.6450 c3        1 02F     -0.071400
@<TRIPOS>BOND
     1    1    6 1   
     2    1    8 1   
     3    1    9 1   
     4    1   10 1   
     5    2    4 1   
     6    2   11 1   
     7    2   12 1   
     8    2   13 1   
     9    3    4 1   
    10    3   14 1   
    11    3   15 1   
    12    3   23 1   
    13    5    6 1   
    14    5   18 1   
    15    5   19 1   
    16    5   23 1   
    17    6    7 1   
    18    6   20 1   
    19    7   21 1   
    20    7   22 1   
    21   16   23 1   
    22   17   23 1   
@<TRIPOS>SUBSTRUCTURE
     1 02F         1 TEMP              0 ****  ****    0 ROOT
