@<TRIPOS>MOLECULE
02F
   24    22     1     0     0
SMALL
bcc


@<TRIPOS>ATOM
      1 P          -0.0750   -1.0640    1.3310 p5        1 02F      1.345600
      2 C1          0.3780    1.9550    4.4720 c3        1 02F     -0.146100
      3 C2          1.2030    2.7140    3.4590 c3        1 02F      0.145400
      4 O2          2.4120    2.0510    3.1470 oh        1 02F     -0.640800
      5 C4          5.8170   -0.2840    1.5570 c2        1 02F     -0.232500
      6 C5          0.5440    0.2380    0.4510 cx        1 02F      0.066100
      7 N6          0.8780    0.0540   -0.9160 n3        1 02F     -0.878800
      8 OP1         1.4420   -0.3480    1.4400 os        1 02F     -0.615200
      9 OP2        -0.9440   -0.7260    2.4670 o         1 02F     -0.824500
     10 OP3        -0.0760   -2.3530    0.6270 o         1 02F     -0.824500
     11 H1          2.1820    1.2200    2.6970 ho        1 02F      0.447000
     12 H1A         1.0100    1.6610    5.3430 hc        1 02F      0.047700
     13 H1B        -0.0560    1.0280    4.0180 hc        1 02F      0.047700
     14 H2         -0.4600    2.5960    4.8350 hc        1 02F      0.047700
     15 H2A         0.6060    2.8870    2.5220 h1        1 02F      0.021700
     16 H3          1.5280    3.7080    3.8720 h1        1 02F      0.021700
     17 H3A         4.5670    1.1550    2.5130 ha        1 02F      0.115750
     18 H4          3.6780   -0.1770    1.5910 ha        1 02F      0.115750
     19 H4A         6.7800    0.1430    1.8650 ha        1 02F      0.115750
     20 H5          5.8990   -1.1900    0.9430 ha        1 02F      0.115750
     21 HN6         0.3680    1.3100    0.6770 h2        1 02F      0.071700
     22 H6          0.9710   -0.9300   -1.1040 hn        1 02F      0.334800
     23 H63         1.7450    0.5020   -1.1510 hn        1 02F      0.334800
     24 C3          4.6510    0.2470    1.8970 c2        1 02F     -0.232500
@<TRIPOS>BOND
     1    1    6 1   
     2    1    8 1   
     3    1    9 1   
     4    1   10 1   
     5    2    3 1   
     6    2   12 1   
     7    2   13 1   
     8    2   14 1   
     9    3    4 1   
    10    3   15 1   
    11    3   16 1   
    12    4   11 1   
    13    5   19 1   
    14    5   20 1   
    15    5   24 2   
    16    6    7 1   
    17    6    8 1   
    18    6   21 1   
    19    7   22 1   
    20    7   23 1   
    21   17   24 1   
    22   18   24 1   
@<TRIPOS>SUBSTRUCTURE
     1 02F         1 TEMP              0 ****  ****    0 ROOT
