@<TRIPOS>MOLECULE
02G
   22    21     1     0     0
SMALL
bcc


@<TRIPOS>ATOM
      1 C2         -2.1420    0.7630   -0.1260 c3        1 02G     -0.230400
      2 C7          3.3320    0.1800    0.5290 c3        1 02G      0.028700
      3 C6          2.5270   -0.4160   -0.6010 c3        1 02G     -0.031200
      4 C5          1.1430   -0.7110   -0.1560 c2        1 02G     -0.206200
      5 C4          0.0530   -0.2250   -0.7530 c2        1 02G     -0.136200
      6 C3         -1.3530   -0.5240   -0.3360 c3        1 02G      0.196300
      7 C1         -3.6470    0.4870    0.0250 c         1 02G      0.908600
      8 O2         -1.3320   -1.3280    0.8360 oh        1 02G     -0.654800
      9 O1         -4.0030   -0.5240    0.7040 o         1 02G     -0.845800
     10 S           5.0040    0.3800   -0.0440 sh        1 02G     -0.415900
     11 H01        -1.7890    1.2700    0.8060 hc        1 02G      0.036700
     12 H01A       -1.9790    1.4530   -0.9900 hc        1 02G      0.036700
     13 H02         2.9070    1.1670    0.8310 h1        1 02G      0.062700
     14 H02A        3.3130   -0.4930    1.4190 h1        1 02G      0.062700
     15 H03         2.5260    0.2900   -1.4750 hc        1 02G      0.048700
     16 H03A        3.0140   -1.3710   -0.9450 hc        1 02G      0.048700
     17 H04         1.0530   -1.3770    0.7190 ha        1 02G      0.141000
     18 H05         0.1210    0.4480   -1.6240 ha        1 02G      0.108000
     19 H06        -1.8430   -1.1220   -1.1630 h1        1 02G      0.037700
     20 HS30        5.5160    0.9700    1.0200 hs        1 02G      0.192800
     21 H2         -2.2510   -1.3520    1.1620 ho        1 02G      0.458000
     22 OXT        -4.4540    1.2870   -0.5210 o         1 02G     -0.845800
@<TRIPOS>BOND
     1    1    6 1   
     2    1    7 1   
     3    1   11 1   
     4    1   12 1   
     5    2    3 1   
     6    2   10 1   
     7    2   13 1   
     8    2   14 1   
     9    3    4 1   
    10    3   15 1   
    11    3   16 1   
    12    4    5 2   
    13    4   17 1   
    14    5    6 1   
    15    5   18 1   
    16    6    8 1   
    17    6   19 1   
    18    7    9 1   
    19    7   22 1   
    20    8   21 1   
    21   10   20 1   
@<TRIPOS>SUBSTRUCTURE
     1 02G         1 TEMP              0 ****  ****    0 ROOT
