@<TRIPOS>MOLECULE
02G
   22    20     1     0     0
SMALL
bcc


@<TRIPOS>ATOM
      1 C2         -2.4350   -1.1410    0.6400 c3        1 02G     -0.258000
      2 C7          2.6430    1.2910   -1.5320 c3        1 02G     -0.234000
      3 C6          1.2400    1.5470   -1.0260 c3        1 02G     -0.111000
      4 C5          0.7380    0.3240   -0.2910 c2        1 02G     -0.226000
      5 C4         -0.4870    0.3310    0.2700 c1        1 02G     -0.115000
      6 C3         -0.9890   -0.8910    1.0050 c3        1 02G      0.078000
      7 C1         -2.9580   -2.3190    1.4310 c2        1 02G      0.328000
      8 O2         -0.8850   -0.6800    2.3930 oh        1 02G     -0.385000
      9 O1         -2.6320   -3.4910    1.1060 o         1 02G     -0.581000
     10 S           3.2320    2.7260   -2.3920 sh        1 02G     -0.057000
     11 H01        -2.5010   -1.3340   -0.3160 hc        1 02G      0.078000
     12 H01A       -2.9650   -0.3460    0.8490 hc        1 02G      0.078000
     13 H02         3.2320    1.1000   -0.7750 h1        1 02G      0.100500
     14 H02A        2.6350    0.5260   -2.1410 h1        1 02G      0.100500
     15 H03         0.6510    1.7380   -1.7830 hc        1 02G      0.090500
     16 H03A        1.2470    2.3130   -0.4180 hc        1 02G      0.090500
     17 H04         1.3030   -0.4690   -0.2200 ha        1 02G      0.126000
     18 H05        -1.0510    1.1250    0.2020 DU        1 02G      0.124000
     19 H06        -0.4510   -1.6670    0.7520 h1        1 02G      0.077000
     20 HS30        4.2890    2.4970   -2.8590 hs        1 02G      0.019000
     21 H2         -0.1350   -1.0520    2.6940 ho        1 02G      0.257000
     22 OXT        -3.7230   -2.1280    2.4130 o         1 02G     -0.581000
@<TRIPOS>BOND
     1    1    6 1   
     2    1    7 1   
     3    1   11 1   
     4    1   12 1   
     5    2    3 1   
     6    2   10 1   
     7    2   13 1   
     8    2   14 1   
     9    3    4 1   
    10    3   15 1   
    11    3   16 1   
    12    4    5 1   
    13    4   17 1   
    14    5    6 1   
    15    6    8 1   
    16    6   19 1   
    17    7    9 1   
    18    7   22 1   
    19    8   21 1   
    20   10   20 1   
@<TRIPOS>SUBSTRUCTURE
     1 02G         1 TEMP              0 ****  ****    0 ROOT
