@<TRIPOS>MOLECULE
02G
   22    21     1     0     0
SMALL
bcc


@<TRIPOS>ATOM
      1 C2         -0.4310   -0.3810    0.3960 c3        1 02G     -0.167200
      2 C7          3.9250    4.1530   -0.1730 c3        1 02G      0.019700
      3 C6          3.1410    2.9370   -0.5900 c3        1 02G     -0.081400
      4 C5          2.1970    2.4910    0.5120 c3        1 02G     -0.013200
      5 C4          1.3600    1.3560    0.0730 c2        1 02G     -0.335200
      6 C3          0.4330    0.7450    0.8350 c2        1 02G      0.126900
      7 C1          0.2810   -1.3650   -0.5640 c         1 02G      0.918600
      8 O2          0.1420    1.1240    2.1370 oh        1 02G     -0.535100
      9 O1          0.6240   -0.9480   -1.7070 o         1 02G     -0.839300
     10 S           5.0970    4.7050   -1.3860 sh        1 02G     -0.427900
     11 H01        -1.3170    0.0430   -0.1430 hc        1 02G      0.047700
     12 H01A       -0.7970   -0.9470    1.2910 hc        1 02G      0.047700
     13 H02         1.5480    3.3590    0.8160 hc        1 02G      0.017700
     14 H02A        4.5320    3.9360    0.7410 h1        1 02G      0.064200
     15 H03         3.2300    4.9960    0.0640 h1        1 02G      0.064200
     16 H03A        2.5450    3.1640   -1.5140 hc        1 02G      0.058200
     17 H04         3.8380    2.0940   -0.8420 hc        1 02G      0.058200
     18 H05         2.8010    2.2060    1.4180 hc        1 02G      0.017700
     19 H06         1.5180    0.9590   -0.9480 ha        1 02G      0.192000
     20 HS30        4.4670    4.3400   -2.4910 hs        1 02G      0.214800
     21 H2          0.7870    1.7870    2.4120 ho        1 02G      0.390000
     22 OXT         0.4420   -2.5490   -0.1610 o         1 02G     -0.839300
@<TRIPOS>BOND
     1    1    6 1   
     2    1    7 1   
     3    1   11 1   
     4    1   12 1   
     5    2    3 1   
     6    2   10 1   
     7    2   14 1   
     8    2   15 1   
     9    3    4 1   
    10    3   16 1   
    11    3   17 1   
    12    4    5 1   
    13    4   13 1   
    14    4   18 1   
    15    5    6 2   
    16    5   19 1   
    17    6    8 1   
    18    7    9 1   
    19    7   22 1   
    20    8   21 1   
    21   10   20 1   
@<TRIPOS>SUBSTRUCTURE
     1 02G         1 TEMP              0 ****  ****    0 ROOT
