@<TRIPOS>MOLECULE
02G
   22    21     1     0     0
SMALL
bcc


@<TRIPOS>ATOM
      1 C2         -0.3490   -0.4540    0.4580 c3        1 02G     -0.167200
      2 C7          3.8400    4.2190   -0.2290 c3        1 02G      0.019700
      3 C6          3.0840    2.9790   -0.6250 c3        1 02G     -0.081400
      4 C5          2.1870    2.5020    0.5030 c3        1 02G     -0.013200
      5 C4          1.3740    1.3420    0.0860 c2        1 02G     -0.335200
      6 C3          0.4900    0.6990    0.8740 c2        1 02G      0.126900
      7 C1          0.3640   -1.4110   -0.5260 c         1 02G      0.918600
      8 O2          0.2280    1.0650    2.1850 oh        1 02G     -0.535100
      9 O1          0.6570   -0.9800   -1.6780 o         1 02G     -0.839300
     10 S           4.9580    4.8090   -1.4740 sh        1 02G     -0.427900
     11 H01        -1.2650   -0.0570   -0.0520 hc        1 02G      0.047700
     12 H01A       -0.6690   -1.0330    1.3620 hc        1 02G      0.047700
     13 H02         1.5200    3.3480    0.8270 hc        1 02G      0.018200
     14 H02A        4.4790    4.0210    0.6670 h1        1 02G      0.064200
     15 H03         3.1260    5.0390    0.0300 h1        1 02G      0.064200
     16 H03A        2.4540    3.1870   -1.5310 hc        1 02G      0.058200
     17 H04         3.7990    2.1590   -0.8980 hc        1 02G      0.058200
     18 H05         2.8260    2.2360    1.3900 hc        1 02G      0.018200
     19 H06         1.5130    0.9520   -0.9410 ha        1 02G      0.192000
     20 HS30        4.3100    4.4240   -2.5610 hs        1 02G      0.214800
     21 H2          0.8590    1.7490    2.4430 ho        1 02G      0.390000
     22 OXT         0.5760   -2.5910   -0.1330 o         1 02G     -0.839300
@<TRIPOS>BOND
     1    1    6 1   
     2    1    7 1   
     3    1   11 1   
     4    1   12 1   
     5    2    3 1   
     6    2   10 1   
     7    2   14 1   
     8    2   15 1   
     9    3    4 1   
    10    3   16 1   
    11    3   17 1   
    12    4    5 1   
    13    4   13 1   
    14    4   18 1   
    15    5    6 2   
    16    5   19 1   
    17    6    8 1   
    18    7    9 1   
    19    7   22 1   
    20    8   21 1   
    21   10   20 1   
@<TRIPOS>SUBSTRUCTURE
     1 02G         1 TEMP              0 ****  ****    0 ROOT
