@<TRIPOS>MOLECULE
02G
   22    21     1     0     0
SMALL
bcc


@<TRIPOS>ATOM
      1 C2         -0.0740   -0.1920    0.8640 c3        1 02G     -0.166200
      2 C7          2.6080    4.0560   -0.8680 c3        1 02G      0.023700
      3 C6          3.5480    2.9090   -0.6040 c3        1 02G     -0.070400
      4 C5          3.0850    2.0720    0.5750 c3        1 02G     -0.017200
      5 C4          1.8460    1.3250    0.2780 c2        1 02G     -0.338200
      6 C3          1.1820    0.5480    1.1550 c2        1 02G      0.125900
      7 C1         -0.1640   -0.7040   -0.5930 c         1 02G      0.918600
      8 O2          1.5790    0.3670    2.4710 oh        1 02G     -0.535100
      9 O1         -0.2070   -1.9530   -0.7640 o         1 02G     -0.839800
     10 S           3.0620    5.0100   -2.2950 sh        1 02G     -0.441900
     11 H01        -0.1680   -1.0630    1.5620 hc        1 02G      0.047700
     12 H01A       -0.9390    0.4990    1.0400 hc        1 02G      0.047700
     13 H02         2.9340    2.7440    1.4650 hc        1 02G      0.019700
     14 H02A        2.6280    4.7870   -0.0230 h1        1 02G      0.081200
     15 H03         1.5630    3.6730   -0.9770 h1        1 02G      0.081200
     16 H03A        4.5780    3.3030   -0.3990 hc        1 02G      0.043200
     17 H04         3.6110    2.2540   -1.5140 hc        1 02G      0.043200
     18 H05         3.9100    1.3550    0.8450 hc        1 02G      0.019700
     19 H06         1.4440    1.3790   -0.7520 ha        1 02G      0.190000
     20 HS30        2.8100    4.1210   -3.2430 hs        1 02G      0.218800
     21 H2          2.4410    0.7870    2.5880 ho        1 02G      0.390000
     22 OXT        -0.2320    0.1460   -1.5270 o         1 02G     -0.839800
@<TRIPOS>BOND
     1    1    6 1   
     2    1    7 1   
     3    1   11 1   
     4    1   12 1   
     5    2    3 1   
     6    2   10 1   
     7    2   14 1   
     8    2   15 1   
     9    3    4 1   
    10    3   16 1   
    11    3   17 1   
    12    4    5 1   
    13    4   13 1   
    14    4   18 1   
    15    5    6 2   
    16    5   19 1   
    17    6    8 1   
    18    7    9 1   
    19    7   22 1   
    20    8   21 1   
    21   10   20 1   
@<TRIPOS>SUBSTRUCTURE
     1 02G         1 TEMP              0 ****  ****    0 ROOT
