@<TRIPOS>MOLECULE
02H
   54    56     1     0     0
SMALL
bcc


@<TRIPOS>ATOM
      1 N1         -0.1740    1.4390    1.2060 n3        1 02H     -0.903800
      2 C4          2.6330    0.7030    0.6130 c3        1 02H     -0.106400
      3 C5         -0.7760    0.9310   -1.1970 c3        1 02H     -0.080100
      4 C7          4.0140    0.3490    0.0430 c3        1 02H      0.161500
      5 C8          4.8670   -0.2260    1.1950 c3        1 02H     -0.078100
      6 C10         7.2820    0.2360    0.7140 ca        1 02H     -0.131500
      7 C13         7.6740   -2.3890   -0.1370 ca        1 02H     -0.125000
      8 C15        -2.1790    0.5640   -0.8740 ca        1 02H     -0.073300
      9 C17        -3.9370   -1.1000   -0.7340 ca        1 02H     -0.114000
     10 C20        -3.0790    1.5320   -0.4130 ca        1 02H     -0.130500
     11 C2          0.1710    0.7120    0.0010 c3        1 02H      0.175500
     12 C3          1.6150    1.0200   -0.4770 c3        1 02H      0.155100
     13 N6          4.6190    1.4630   -0.6620 n3        1 02H     -0.914800
     14 C9          6.2090   -0.6630    0.7270 ca        1 02H     -0.085300
     15 C11         8.5400   -0.1750    0.2780 ca        1 02H     -0.125000
     16 C12         8.7390   -1.4880   -0.1490 ca        1 02H     -0.130000
     17 C14         6.4150   -1.9800    0.2990 ca        1 02H     -0.131500
     18 C16        -2.6220   -0.7550   -1.0310 ca        1 02H     -0.130500
     19 C18        -4.8390   -0.1310   -0.2710 cp        1 02H     -0.040000
     20 C19        -4.3950    1.1900   -0.1130 ca        1 02H     -0.114000
     21 C44        -6.2160   -0.4910    0.0410 cp        1 02H     -0.148300
     22 C45        -6.9230   -1.4170   -0.7630 ca        1 02H      0.403200
     23 N46        -8.1930   -1.7920   -0.5300 nb        1 02H     -0.664000
     24 C47        -8.8160   -1.2480    0.5340 ca        1 02H      0.393200
     25 C48        -8.2060   -0.3190    1.3950 ca        1 02H     -0.245300
     26 C49        -6.8890    0.0620    1.1410 ca        1 02H     -0.085000
     27 O51         1.6400    2.3960   -0.8310 oh        1 02H     -0.618800
     28 HN1         0.1050    2.3990    1.1230 hn        1 02H      0.355300
     29 H4          2.2680   -0.1750    1.2070 hc        1 02H      0.063200
     30 H4A         2.7090    1.5760    1.3110 hc        1 02H      0.063200
     31 H5         -0.4100    0.3070   -2.0540 hc        1 02H      0.062700
     32 H5A        -0.7150    2.0060   -1.5170 hc        1 02H      0.062700
     33 H7          3.8810   -0.4760   -0.7210 h1        1 02H      0.059700
     34 H8          4.9740    0.5480    2.0000 hc        1 02H      0.055700
     35 H8A         4.3180   -1.0970    1.6400 hc        1 02H      0.055700
     36 H13         7.8280   -3.4260   -0.4710 ha        1 02H      0.132500
     37 H17        -4.2700   -2.1420   -0.8560 ha        1 02H      0.135000
     38 H20        -2.7470    2.5750   -0.2960 ha        1 02H      0.134000
     39 H2          0.1360   -0.3870    0.2680 h1        1 02H      0.057700
     40 H3          1.8220    0.3950   -1.3920 h1        1 02H      0.038700
     41 HN6         4.7520    2.2390   -0.0430 hn        1 02H      0.351800
     42 H11         9.3780    0.5380    0.2720 ha        1 02H      0.132500
     43 H12         9.7320   -1.8120   -0.4920 ha        1 02H      0.133000
     44 H14         5.5780   -2.6940    0.3090 ha        1 02H      0.130500
     45 H16        -1.9230   -1.5240   -1.3920 ha        1 02H      0.134000
     46 H19        -5.0940    1.9620    0.2400 ha        1 02H      0.135000
     47 H45        -6.4400   -1.8730   -1.6470 h4        1 02H      0.025100
     48 H47        -9.8580   -1.5770    0.7000 h4        1 02H      0.022100
     49 H48        -8.7590    0.0930    2.2490 ha        1 02H      0.144000
     50 H49        -6.3780    0.7820    1.7980 ha        1 02H      0.141000
     51 HO51        2.5010    2.5720   -1.2270 ho        1 02H      0.423000
     52 H1         -1.1640    1.3990    1.3580 hn        1 02H      0.355300
     53 H6          5.5100    1.1900   -1.0320 hn        1 02H      0.351800
     54 H10         7.1320    1.2710    1.0580 ha        1 02H      0.130500
@<TRIPOS>BOND
     1    1   11 1   
     2    1   28 1   
     3    1   52 1   
     4    2    4 1   
     5    2   12 1   
     6    2   29 1   
     7    2   30 1   
     8    3    8 1   
     9    3   11 1   
    10    3   31 1   
    11    3   32 1   
    12    4    5 1   
    13    4   13 1   
    14    4   33 1   
    15    5   14 1   
    16    5   34 1   
    17    5   35 1   
    18    6   14 ar  
    19    6   15 ar  
    20    6   54 1   
    21    7   16 ar  
    22    7   17 ar  
    23    7   36 1   
    24    8   10 ar  
    25    8   18 ar  
    26    9   18 ar  
    27    9   19 ar  
    28    9   37 1   
    29   10   20 ar  
    30   10   38 1   
    31   11   12 1   
    32   11   39 1   
    33   12   27 1   
    34   12   40 1   
    35   13   41 1   
    36   13   53 1   
    37   14   17 ar  
    38   15   16 ar  
    39   15   42 1   
    40   16   43 1   
    41   17   44 1   
    42   18   45 1   
    43   19   20 ar  
    44   19   21 1   
    45   20   46 1   
    46   21   22 ar  
    47   21   26 ar  
    48   22   23 ar  
    49   22   47 1   
    50   23   24 ar  
    51   24   25 ar  
    52   24   48 1   
    53   25   26 ar  
    54   25   49 1   
    55   26   50 1   
    56   27   51 1   
@<TRIPOS>SUBSTRUCTURE
     1 02H         1 TEMP              0 ****  ****    0 ROOT
