@<TRIPOS>MOLECULE
02H
   56    58     1     0     0
SMALL
bcc


@<TRIPOS>ATOM
      1 N1         -0.1010    0.1450   -0.1520 n4        1 02H     -0.838600
      2 C4          1.4480   -1.2030    2.2830 c3        1 02H     -0.120400
      3 C5          2.1590    0.9390   -0.8680 c3        1 02H     -0.041100
      4 C7          2.1390   -1.2590    3.6470 c3        1 02H      0.128500
      5 C8          2.0180   -2.6740    4.2450 c3        1 02H     -0.048100
      6 C10         1.6840   -2.5100    6.7200 ca        1 02H     -0.135500
      7 C13         4.3690   -3.1240    7.1770 ca        1 02H     -0.106000
      8 C15         1.6630    0.9510   -2.2670 ca        1 02H     -0.205300
      9 C17         1.7020    0.0470   -4.5140 ca        1 02H     -0.115500
     10 C20         0.7820    1.9530   -2.6970 ca        1 02H     -0.123000
     11 C2          1.3760   -0.0690   -0.0020 c3        1 02H      0.082500
     12 C3          1.8410    0.0300    1.4730 c3        1 02H      0.109100
     13 N6          1.5890   -0.2390    4.6060 n4        1 02H     -0.840600
     14 C9          2.5460   -2.7230    5.6330 ca        1 02H     -0.180300
     15 C11         2.1650   -2.6020    8.0230 ca        1 02H     -0.106000
     16 C12         3.5090   -2.9070    8.2540 ca        1 02H     -0.085000
     17 C14         3.8900   -3.0340    5.8690 ca        1 02H     -0.135500
     18 C16         2.1230    0.0030   -3.1890 ca        1 02H     -0.123000
     19 C18         0.8200    1.0500   -4.9530 cp        1 02H      0.048000
     20 C19         0.3640    2.0020   -4.0230 ca        1 02H     -0.115500
     21 C44         0.4040    1.1130   -6.3440 cp        1 02H     -0.216300
     22 C45         1.2980    0.7510   -7.3800 ca        1 02H      0.430200
     23 N46         0.9780    0.7860   -8.6850 nb        1 02H     -0.646000
     24 C47        -0.2630    1.1920   -9.0150 ca        1 02H      0.434200
     25 C48        -1.2270    1.5780   -8.0620 ca        1 02H     -0.239300
     26 C49        -0.8840    1.5380   -6.7130 ca        1 02H     -0.069000
     27 O51         1.2500    1.1510    2.1150 oh        1 02H     -0.642800
     28 HN1        -0.3960    0.9370    0.4300 hn        1 02H      0.469800
     29 H4          1.7680   -2.1210    1.7170 hc        1 02H      0.093700
     30 H4A         0.3340   -1.2480    2.4070 hc        1 02H      0.093700
     31 H5          2.0890    1.9630   -0.4140 hc        1 02H      0.086700
     32 H5A         3.2400    0.6270   -0.8460 hc        1 02H      0.086700
     33 H7          3.2380   -1.0110    3.5260 hx        1 02H      0.116700
     34 H8          2.6060   -3.3680    3.5830 hc        1 02H      0.091700
     35 H8A         0.9470   -3.0090    4.2190 hc        1 02H      0.091700
     36 H17         2.0710   -0.7070   -5.2300 ha        1 02H      0.166500
     37 H20         0.4570    2.7420   -2.0010 ha        1 02H      0.133500
     38 H2          1.5970   -1.1110   -0.3870 hx        1 02H      0.126700
     39 H3          2.9660    0.1330    1.4520 h1        1 02H      0.101700
     40 HN6         0.6010   -0.4340    4.7950 hn        1 02H      0.468467
     41 H11         1.4810   -2.4530    8.8750 ha        1 02H      0.166000
     42 H12         3.8850   -2.9910    9.2870 ha        1 02H      0.171000
     43 H14         4.5690   -3.2330    5.0260 ha        1 02H      0.133000
     44 H16         2.8380   -0.7730   -2.8730 ha        1 02H      0.133500
     45 H19        -0.3070    2.8110   -4.3570 ha        1 02H      0.166500
     46 H45         2.3320    0.4300   -7.1530 h4        1 02H      0.028100
     47 H47        -0.4930    1.2080  -10.0980 h4        1 02H      0.048100
     48 H48        -2.2260    1.9040   -8.3840 ha        1 02H      0.163000
     49 H49        -1.6170    1.8290   -5.9460 ha        1 02H      0.134000
     50 HO51        1.7050    1.9510    1.8080 ho        1 02H      0.455000
     51 H1         -0.3050    0.3630   -1.1450 hn        1 02H      0.469800
     52 H6          2.1060   -0.3130    5.4970 hn        1 02H      0.468467
     53 H10         0.6130   -2.3270    6.5490 ha        1 02H      0.133000
     54 H13        -0.6170   -0.6910    0.1280 hn        1 02H      0.469800
     55 H63         1.6780    0.7040    4.2130 hn        1 02H      0.468467
     56 H15         5.4250   -3.3830    7.3570 ha        1 02H      0.166000
@<TRIPOS>BOND
     1    1   11 1   
     2    1   28 1   
     3    1   51 1   
     4    1   54 1   
     5    2    4 1   
     6    2   12 1   
     7    2   29 1   
     8    2   30 1   
     9    3    8 1   
    10    3   11 1   
    11    3   31 1   
    12    3   32 1   
    13    4    5 1   
    14    4   13 1   
    15    4   33 1   
    16    5   14 1   
    17    5   34 1   
    18    5   35 1   
    19    6   14 ar  
    20    6   15 ar  
    21    6   53 1   
    22    7   16 ar  
    23    7   17 ar  
    24    7   56 1   
    25    8   10 ar  
    26    8   18 ar  
    27    9   18 ar  
    28    9   19 ar  
    29    9   36 1   
    30   10   20 ar  
    31   10   37 1   
    32   11   12 1   
    33   11   38 1   
    34   12   27 1   
    35   12   39 1   
    36   13   40 1   
    37   13   52 1   
    38   13   55 1   
    39   14   17 ar  
    40   15   16 ar  
    41   15   41 1   
    42   16   42 1   
    43   17   43 1   
    44   18   44 1   
    45   19   20 ar  
    46   19   21 1   
    47   20   45 1   
    48   21   22 ar  
    49   21   26 ar  
    50   22   23 ar  
    51   22   46 1   
    52   23   24 ar  
    53   24   25 ar  
    54   24   47 1   
    55   25   26 ar  
    56   25   48 1   
    57   26   49 1   
    58   27   50 1   
@<TRIPOS>SUBSTRUCTURE
     1 02H         1 TEMP              0 ****  ****    0 ROOT
