@<TRIPOS>MOLECULE
02H
   56    58     1     0     0
SMALL
bcc


@<TRIPOS>ATOM
      1 N1         -0.1110    0.1220   -0.1530 nz        1 02H     -0.838600
      2 C4          1.4470   -1.2100    2.2860 c3        1 02H     -0.120400
      3 C5          2.1430    0.9380   -0.8650 c3        1 02H     -0.041100
      4 C7          2.1360   -1.2590    3.6510 c3        1 02H      0.128500
      5 C8          2.0300   -2.6750    4.2480 c3        1 02H     -0.048100
      6 C10         1.6920   -2.5140    6.7230 ca        1 02H     -0.135500
      7 C13         4.3820   -3.1020    7.1820 ca        1 02H     -0.106000
      8 C15         1.6500    0.9450   -2.2650 ca        1 02H     -0.205300
      9 C17         1.7030    0.0400   -4.5110 ca        1 02H     -0.115500
     10 C20         0.7590    1.9380   -2.6980 ca        1 02H     -0.123000
     11 C2          1.3680   -0.0760    0.0000 c3        1 02H      0.082500
     12 C3          1.8290    0.0260    1.4760 c3        1 02H      0.109100
     13 N6          1.5750   -0.2450    4.6090 nz        1 02H     -0.840600
     14 C9          2.5570   -2.7180    5.6370 ca        1 02H     -0.180300
     15 C11         2.1720   -2.6010    8.0270 ca        1 02H     -0.106000
     16 C12         3.5190   -2.8930    8.2580 ca        1 02H     -0.085000
     17 C14         3.9030   -3.0170    5.8740 ca        1 02H     -0.135500
     18 C16         2.1210    0.0000   -3.1850 ca        1 02H     -0.123000
     19 C18         0.8120    1.0340   -4.9530 cp        1 02H      0.048000
     20 C19         0.3440    1.9820   -4.0250 ca        1 02H     -0.115500
     21 C44         0.3990    1.0910   -6.3450 cp        1 02H     -0.216300
     22 C45         1.2990    0.7370   -7.3790 ca        1 02H      0.430200
     23 N46         0.9820    0.7690   -8.6840 nb        1 02H     -0.646000
     24 C47        -0.2630    1.1610   -9.0180 ca        1 02H      0.434200
     25 C48        -1.2330    1.5390   -8.0670 ca        1 02H     -0.239300
     26 C49        -0.8930    1.5040   -6.7170 ca        1 02H     -0.069000
     27 O51         1.2260    1.1420    2.1160 oh        1 02H     -0.642800
     28 HN1        -0.4150    0.9110    0.4290 hn        1 02H      0.469800
     29 H4          0.3330   -1.2650    2.4080 hc        1 02H      0.093700
     30 H4A         1.7770   -2.1250    1.7200 hc        1 02H      0.093700
     31 H5          2.0610    1.9620   -0.4120 hc        1 02H      0.086700
     32 H5A         3.2270    0.6380   -0.8410 hc        1 02H      0.086700
     33 H7          3.2340   -1.0000    3.5310 hx        1 02H      0.116700
     34 H8          2.6240   -3.3630    3.5870 hc        1 02H      0.091700
     35 H8A         0.9610   -3.0200    4.2210 hc        1 02H      0.091700
     36 H17         2.0810   -0.7110   -5.2260 ha        1 02H      0.166500
     37 H20         0.4250    2.7240   -2.0030 ha        1 02H      0.133500
     38 H2          1.6000   -1.1170   -0.3850 hx        1 02H      0.126700
     39 H3          2.9530    0.1410    1.4570 h1        1 02H      0.101700
     40 HN6         1.6550    0.6990    4.2150 hn        1 02H      0.468467
     41 H11         1.4870   -2.4590    8.8780 ha        1 02H      0.166000
     42 H12         3.8960   -2.9740    9.2920 ha        1 02H      0.171000
     43 H14         4.5850   -3.2090    5.0310 ha        1 02H      0.133000
     44 H16         2.8430   -0.7680   -2.8670 ha        1 02H      0.133500
     45 H19        -0.3340    2.7830   -4.3610 ha        1 02H      0.166500
     46 H45         2.3350    0.4270   -7.1490 h4        1 02H      0.028100
     47 H47        -0.4900    1.1750  -10.1010 h4        1 02H      0.048100
     48 H48        -2.2340    1.8550   -8.3920 ha        1 02H      0.163000
     49 H49        -1.6300    1.7880   -5.9520 ha        1 02H      0.134000
     50 HO51        1.6740    1.9460    1.8100 ho        1 02H      0.455000
     51 H1         -0.3150    0.3390   -1.1460 hn        1 02H      0.469800
     52 H6          0.5900   -0.4490    4.7960 hn        1 02H      0.468467
     53 H10         0.6190   -2.3420    6.5510 ha        1 02H      0.133000
     54 H13        -0.6190   -0.7180    0.1260 hn        1 02H      0.469800
     55 H63         2.0920   -0.3130    5.5000 hn        1 02H      0.468467
     56 H15         5.4410   -3.3500    7.3630 ha        1 02H      0.166000
@<TRIPOS>BOND
     1    1   11 1   
     2    1   28 1   
     3    1   51 1   
     4    1   54 1   
     5    2    4 1   
     6    2   12 1   
     7    2   29 1   
     8    2   30 1   
     9    3    8 1   
    10    3   11 1   
    11    3   31 1   
    12    3   32 1   
    13    4    5 1   
    14    4   13 1   
    15    4   33 1   
    16    5   14 1   
    17    5   34 1   
    18    5   35 1   
    19    6   14 ar  
    20    6   15 ar  
    21    6   53 1   
    22    7   16 ar  
    23    7   17 ar  
    24    7   56 1   
    25    8   10 ar  
    26    8   18 ar  
    27    9   18 ar  
    28    9   19 ar  
    29    9   36 1   
    30   10   20 ar  
    31   10   37 1   
    32   11   12 1   
    33   11   38 1   
    34   12   27 1   
    35   12   39 1   
    36   13   40 1   
    37   13   52 1   
    38   13   55 1   
    39   14   17 ar  
    40   15   16 ar  
    41   15   41 1   
    42   16   42 1   
    43   17   43 1   
    44   18   44 1   
    45   19   20 ar  
    46   19   21 1   
    47   20   45 1   
    48   21   22 ar  
    49   21   26 ar  
    50   22   23 ar  
    51   22   46 1   
    52   23   24 ar  
    53   24   25 ar  
    54   24   47 1   
    55   25   26 ar  
    56   25   48 1   
    57   26   49 1   
    58   27   50 1   
@<TRIPOS>SUBSTRUCTURE
     1 02H         1 TEMP              0 ****  ****    0 ROOT
