@<TRIPOS>MOLECULE
02H
   56    58     1     0     0
SMALL
bcc


@<TRIPOS>ATOM
      1 N1         -0.1000    0.1510   -0.1510 n4        1 02H     -0.838600
      2 C4          1.4450   -1.2010    2.2850 c3        1 02H     -0.120400
      3 C5          2.1620    0.9340   -0.8690 c3        1 02H     -0.041100
      4 C7          2.1380   -1.2580    3.6480 c3        1 02H      0.128500
      5 C8          2.0130   -2.6720    4.2470 c3        1 02H     -0.048100
      6 C10         1.6820   -2.5050    6.7220 ca        1 02H     -0.135500
      7 C13         4.3650   -3.1280    7.1760 ca        1 02H     -0.106000
      8 C15         1.6660    0.9480   -2.2680 ca        1 02H     -0.205300
      9 C17         1.6980    0.0410   -4.5140 ca        1 02H     -0.115500
     10 C20         0.7880    1.9530   -2.6990 ca        1 02H     -0.123000
     11 C2          1.3760   -0.0680   -0.0010 c3        1 02H      0.082500
     12 C3          1.8430    0.0290    1.4730 c3        1 02H      0.109100
     13 N6          1.5930   -0.2350    4.6060 n4        1 02H     -0.840600
     14 C9          2.5420   -2.7210    5.6350 ca        1 02H     -0.180300
     15 C11         2.1650   -2.5970    8.0250 ca        1 02H     -0.106000
     16 C12         3.5080   -2.9070    8.2540 ca        1 02H     -0.085000
     17 C14         3.8850   -3.0380    5.8690 ca        1 02H     -0.135500
     18 C16         2.1200   -0.0040   -3.1890 ca        1 02H     -0.123000
     19 C18         0.8210    1.0470   -4.9530 cp        1 02H      0.048000
     20 C19         0.3690    2.0020   -4.0240 ca        1 02H     -0.115500
     21 C44         0.4040    1.1090   -6.3450 cp        1 02H     -0.216300
     22 C45         1.2960    0.7420   -7.3810 ca        1 02H      0.430200
     23 N46         0.9750    0.7770   -8.6860 nb        1 02H     -0.646000
     24 C47        -0.2650    1.1880   -9.0150 ca        1 02H      0.434200
     25 C48        -1.2260    1.5800   -8.0620 ca        1 02H     -0.239300
     26 C49        -0.8830    1.5400   -6.7130 ca        1 02H     -0.069000
     27 O51         1.2570    1.1540    2.1140 oh        1 02H     -0.642800
     28 HN1        -0.3920    0.9450    0.4310 hn        1 02H      0.469800
     29 H4          0.3310   -1.2410    2.4100 hc        1 02H      0.093700
     30 H4A         1.7620   -2.1210    1.7190 hc        1 02H      0.093700
     31 H5          3.2420    0.6190   -0.8490 hc        1 02H      0.086700
     32 H5A         2.0970    1.9600   -0.4170 hc        1 02H      0.086700
     33 H7          3.2380   -1.0140    3.5250 hx        1 02H      0.116700
     34 H8          2.5960   -3.3690    3.5850 hc        1 02H      0.091700
     35 H8A         0.9400   -3.0020    4.2230 hc        1 02H      0.091700
     36 H17         2.0640   -0.7160   -5.2290 ha        1 02H      0.166500
     37 H20         0.4670    2.7440   -2.0040 ha        1 02H      0.133500
     38 H2          1.5920   -1.1120   -0.3860 hx        1 02H      0.126700
     39 H3          2.9680    0.1280    1.4510 h1        1 02H      0.101700
     40 HN6         0.6050   -0.4260    4.7960 hn        1 02H      0.468467
     41 H11         1.4820   -2.4450    8.8780 ha        1 02H      0.166000
     42 H12         3.8850   -2.9920    9.2880 ha        1 02H      0.171000
     43 H14         4.5620   -3.2400    5.0250 ha        1 02H      0.133000
     44 H16         2.8320   -0.7830   -2.8730 ha        1 02H      0.133500
     45 H19        -0.2980    2.8130   -4.3590 ha        1 02H      0.166500
     46 H45         2.3280    0.4170   -7.1540 h4        1 02H      0.028100
     47 H47        -0.4960    1.2040  -10.0980 h4        1 02H      0.048100
     48 H48        -2.2240    1.9100   -8.3840 ha        1 02H      0.163000
     49 H49        -1.6140    1.8350   -5.9460 ha        1 02H      0.134000
     50 HO51        1.7140    1.9510    1.8060 ho        1 02H      0.455000
     51 H1         -0.6200   -0.6820    0.1310 hn        1 02H      0.469800
     52 H6          1.6850    0.7070    4.2120 hn        1 02H      0.468467
     53 H10         0.6110   -2.3180    6.5530 ha        1 02H      0.133000
     54 H13        -0.3040    0.3690   -1.1440 hn        1 02H      0.469800
     55 H63         2.1110   -0.3100    5.4970 hn        1 02H      0.468467
     56 H15         5.4210   -3.3900    7.3550 ha        1 02H      0.166000
@<TRIPOS>BOND
     1    1   11 1   
     2    1   28 1   
     3    1   51 1   
     4    1   54 1   
     5    2    4 1   
     6    2   12 1   
     7    2   29 1   
     8    2   30 1   
     9    3    8 1   
    10    3   11 1   
    11    3   31 1   
    12    3   32 1   
    13    4    5 1   
    14    4   13 1   
    15    4   33 1   
    16    5   14 1   
    17    5   34 1   
    18    5   35 1   
    19    6   14 ar  
    20    6   15 ar  
    21    6   53 1   
    22    7   16 ar  
    23    7   17 ar  
    24    7   56 1   
    25    8   10 ar  
    26    8   18 ar  
    27    9   18 ar  
    28    9   19 ar  
    29    9   36 1   
    30   10   20 ar  
    31   10   37 1   
    32   11   12 1   
    33   11   38 1   
    34   12   27 1   
    35   12   39 1   
    36   13   40 1   
    37   13   52 1   
    38   13   55 1   
    39   14   17 ar  
    40   15   16 ar  
    41   15   41 1   
    42   16   42 1   
    43   17   43 1   
    44   18   44 1   
    45   19   20 ar  
    46   19   21 1   
    47   20   45 1   
    48   21   22 ar  
    49   21   26 ar  
    50   22   23 ar  
    51   22   46 1   
    52   23   24 ar  
    53   24   25 ar  
    54   24   47 1   
    55   25   26 ar  
    56   25   48 1   
    57   26   49 1   
    58   27   50 1   
@<TRIPOS>SUBSTRUCTURE
     1 02H         1 TEMP              0 ****  ****    0 ROOT
