@<TRIPOS>MOLECULE
02H
   54    48     1     0     0
SMALL
bcc


@<TRIPOS>ATOM
      1 N1         -3.1010    0.7140    0.4730 n3        1 02H     -0.333000
      2 C4         -1.0640   -0.7490    2.3840 c3        1 02H     -0.159000
      3 C5         -1.1670    1.8900   -0.3260 c3        1 02H     -0.170000
      4 C7         -0.1380   -0.7670    3.6090 c3        1 02H     -0.026000
      5 C8          0.5140   -2.1020    3.7210 c3        1 02H     -0.162000
      6 C10         2.0040   -2.4160    5.7600 c1        1 02H     -0.135000
      7 C13         4.1970   -1.4750    4.3800 c1        1 02H     -0.126000
      8 C15        -1.0170    1.5230   -1.8380 c2        1 02H     -0.068000
      9 C17         0.3330    0.6410   -3.6450 c1        1 02H     -0.113000
     10 C20        -1.9550    1.9690   -2.7470 c1        1 02H     -0.134000
     11 C2         -1.6850    0.6800    0.4410 c3        1 02H     -0.056000
     12 C3         -1.1590    0.7110    1.8300 c3        1 02H      0.035000
     13 N6         -0.8960   -0.5120    4.7700 n3        1 02H     -0.349000
     14 C9          1.8670   -1.9560    4.4510 c2        1 02H     -0.072000
     15 C11         3.2330   -2.4010    6.3660 c1        1 02H     -0.127250
     16 C12         4.3330   -1.9330    5.6820 c1        1 02H     -0.127250
     17 C14         2.9590   -1.4900    3.7700 c2        1 02H     -0.124000
     18 C16         0.1350    0.8550   -2.2850 c2        1 02H     -0.124000
     19 C18        -0.6160    1.0910   -4.5670 c1        1 02H     -0.061500
     20 C19        -1.7630    1.7560   -4.1180 c1        1 02H     -0.099000
     21 C44        -0.4610    0.7970   -5.9400 c1        1 02H     -0.061500
     22 C45        -1.0700   -0.3370   -6.4880 c1        1 02H     -0.061000
     23 N46        -0.9230   -0.6160   -7.8140 n1        1 02H     -0.137000
     24 C47        -0.1840    0.2080   -8.6070 c1        1 02H     -0.127250
     25 C48         0.4200    1.3310   -8.0670 c1        1 02H     -0.127250
     26 C49         0.2720    1.6140   -6.7260 c1        1 02H     -0.099000
     27 O51        -2.0150    1.4580    2.6340 oh        1 02H     -0.333000
     28 HN1        -3.4400   -0.0120   -0.0080 hn        1 02H      0.150500
     29 H4         -1.9220   -1.0490    2.6330 hc        1 02H      0.103500
     30 H4A        -0.7040   -1.3350    1.6960 hc        1 02H      0.103500
     31 H5         -1.8200    2.6560   -0.2300 hc        1 02H      0.091500
     32 H5A        -0.2730    2.1640    0.0430 hc        1 02H      0.091500
     33 H7          0.5820   -0.0450    3.5050 h1        1 02H      0.095000
     34 H8         -0.0790   -2.7200    4.2360 hc        1 02H      0.093500
     35 H8A         0.6690   -2.4730    2.8100 hc        1 02H      0.093500
     36 H10         1.2510   -2.7360    6.2280 ha        1 02H      0.129000
     37 H13         4.9750   -1.1430    3.8980 ha        1 02H      0.131000
     38 H17         1.1270    0.1800   -3.9510 ha        1 02H      0.136000
     39 H20        -2.7560    2.4320   -2.4310 ha        1 02H      0.133000
     40 H2         -1.3840   -0.1450   -0.0050 h1        1 02H      0.104000
     41 H3         -0.2570    1.1240    1.8340 h1        1 02H      0.093000
     42 HN6        -1.1770   -1.3000    5.1290 hn        1 02H      0.152000
     43 H11         3.3260   -2.7130    7.2530 ha        1 02H      0.141500
     44 H12         5.1800   -1.9230    6.1010 ha        1 02H      0.141500
     45 H14         2.8590   -1.1630    2.8340 ha        1 02H      0.132000
     46 H16         0.7960    0.5410   -1.6410 ha        1 02H      0.135000
     47 H19        -2.4450    2.0810   -4.7750 ha        1 02H      0.139000
     48 H45        -1.6240   -0.9550   -5.8960 ha        1 02H      0.162000
     49 H47        -0.0810    0.0100   -9.5410 ha        1 02H      0.141500
     50 H48         0.9530    1.9250   -8.6400 ha        1 02H      0.141500
     51 H49         0.6890    2.3920   -6.3510 ha        1 02H      0.139000
     52 HO51       -1.7020    2.2840    2.7110 ho        1 02H      0.200000
     53 H1         -3.4050    1.5150    0.0880 hn        1 02H      0.150500
     54 H6         -0.3900   -0.0750    5.3650 hn        1 02H      0.152000
@<TRIPOS>BOND
     1    1   11 1   
     2    1   28 1   
     3    1   53 1   
     4    2    4 1   
     5    2   12 1   
     6    2   29 1   
     7    2   30 1   
     8    3    8 1   
     9    3   11 1   
    10    3   31 1   
    11    3   32 1   
    12    4    5 1   
    13    4   13 1   
    14    4   33 1   
    15    5   14 1   
    16    5   34 1   
    17    5   35 1   
    18    6   14 1   
    19    6   36 1   
    20    7   17 1   
    21    7   37 1   
    22    8   10 1   
    23    8   18 1   
    24    9   18 1   
    25    9   38 1   
    26   10   39 1   
    27   11   12 1   
    28   11   40 1   
    29   12   27 1   
    30   12   41 1   
    31   13   42 1   
    32   13   54 1   
    33   14   17 1   
    34   15   16 1   
    35   15   43 1   
    36   16   44 1   
    37   17   45 1   
    38   18   46 1   
    39   19   20 1   
    40   20   47 1   
    41   21   26 1   
    42   22   23 1   
    43   22   48 1   
    44   24   25 1   
    45   24   49 1   
    46   25   50 1   
    47   26   51 1   
    48   27   52 1   
@<TRIPOS>SUBSTRUCTURE
     1 02H         1 TEMP              0 ****  ****    0 ROOT
