@<TRIPOS>MOLECULE
02I
   32    35     1     0     0
SMALL
bcc


@<TRIPOS>ATOM
      1 P           3.4810   -0.7410    0.3650 p5        1 02I      1.323900
      2 N1         -4.8540   -1.2370    0.2990 nb        1 02I     -0.804000
      3 C2         -4.8660    0.1230    0.2390 ca        1 02I      0.624900
      4 N3         -3.8530    1.0010    0.0620 nb        1 02I     -0.732000
      5 C4         -2.6390    0.3880   -0.0740 ca        1 02I      0.429800
      6 C5         -2.4700   -1.0720   -0.0530 ca        1 02I     -0.182200
      7 C6         -3.6420   -1.8600    0.1320 ca        1 02I      0.673200
      8 N6         -3.5570   -3.2570    0.0770 nh        1 02I     -0.922500
      9 N7         -1.1160   -1.4070   -0.2090 nc        1 02I     -0.570100
     10 C8         -0.4590   -0.2360   -0.3080 cd        1 02I      0.477800
     11 N9         -1.3510    0.8900   -0.2140 na        1 02I     -0.294000
     12 C1'        -0.8880    2.2400   -0.4910 c3        1 02I      0.246800
     13 OP3         3.8810   -1.5830    1.5300 o         1 02I     -0.917833
     14 C2'        -0.1820    2.9010    0.7290 c3        1 02I     -0.116400
     15 OP2         3.5010   -1.3490   -1.0040 o         1 02I     -0.917833
     16 C3'         1.2090    2.2410    0.7050 c3        1 02I      0.145100
     17 O3'         2.2360    3.1980    0.8350 oh        1 02I     -0.664800
     18 C4'         1.2670    1.5350   -0.6750 c3        1 02I      0.051100
     19 O4'         0.1700    2.0920   -1.4470 os        1 02I     -0.433600
     20 C5'         1.0680   -0.0060   -0.4930 c3        1 02I      0.227800
     21 O5'         1.7240   -0.4990    0.5840 os        1 02I     -0.530200
     22 H1N6       -2.6310   -3.6010    0.2150 hn        1 02I      0.402800
     23 H2N6       -4.2550   -3.7480    0.5890 hn        1 02I      0.402800
     24 H1'        -1.7010    2.8580   -0.9500 h2        1 02I      0.075700
     25 H12'       -0.1110    4.0000    0.5520 hc        1 02I      0.048700
     26 H22'       -0.7130    2.7120    1.6870 hc        1 02I      0.048700
     27 H3'         1.3010    1.4850    1.5350 h1        1 02I      0.099700
     28 H4'         2.2030    1.7630   -1.2410 h1        1 02I      0.131700
     29 H5'         1.3870   -0.5370   -1.4400 h1        1 02I      0.088700
     30 HO3'        3.0630    2.6660    0.7820 ho        1 02I      0.487000
     31 OP1         3.8130    0.7330    0.4160 o         1 02I     -0.917833
     32 H2         -5.8690    0.5790    0.3630 h5        1 02I      0.017100
@<TRIPOS>BOND
     1    1   13 1   
     2    1   15 1   
     3    1   21 1   
     4    1   31 1   
     5    2    3 ar  
     6    2    7 ar  
     7    3    4 ar  
     8    3   32 1   
     9    4    5 ar  
    10    5    6 ar  
    11    5   11 1   
    12    6    7 ar  
    13    6    9 1   
    14    7    8 1   
    15    8   22 1   
    16    8   23 1   
    17    9   10 2   
    18   10   11 1   
    19   10   20 1   
    20   11   12 1   
    21   12   14 1   
    22   12   19 1   
    23   12   24 1   
    24   14   16 1   
    25   14   25 1   
    26   14   26 1   
    27   16   17 1   
    28   16   18 1   
    29   16   27 1   
    30   17   30 1   
    31   18   19 1   
    32   18   20 1   
    33   18   28 1   
    34   20   21 1   
    35   20   29 1   
@<TRIPOS>SUBSTRUCTURE
     1 02I         1 TEMP              0 ****  ****    0 ROOT
