@<TRIPOS>MOLECULE
02I
   32    27     1     0     0
SMALL
bcc


@<TRIPOS>ATOM
      1 P           0.3590    3.6760    1.1570 p3        1 02I      2.516000
      2 N1         -0.1060   -3.8840    2.2840 n1        1 02I     -0.278000
      3 C2         -0.2820   -4.2570    0.9610 c1        1 02I     -0.038000
      4 N3         -0.1990   -3.3150   -0.0370 n1        1 02I     -0.206000
      5 C4          0.0550   -2.0150    0.2730 c1        1 02I     -0.076500
      6 C5          0.2300   -1.6440    1.5900 c1        1 02I     -0.076500
      7 C6          0.1460   -2.5970    2.5950 c1        1 02I      0.152000
      8 N6          0.3060   -2.7450    4.0020 n3        1 02I     -0.320000
      9 N7          0.5000   -0.2570    1.6220 n1        1 02I     -0.177000
     10 C8          0.5690    0.1880    0.3420 c1        1 02I      0.076000
     11 N9          0.2670   -0.9020   -0.5150 n1        1 02I     -0.177000
     12 C1'         0.2110   -0.5720   -1.9940 c2        1 02I      0.155000
     13 OP3         1.1830    3.0430    2.2710 o         1 02I     -1.237333
     14 C2'        -1.1630    0.0720   -2.2390 c3        1 02I     -0.195000
     15 OP2        -0.8390    4.3980    1.7610 o         1 02I     -1.237333
     16 C3'        -0.8160    1.5770   -2.1230 c3        1 02I      0.034000
     17 O3'        -1.0510    2.2200   -3.2860 oh        1 02I     -0.392000
     18 C4'         0.6680    1.5140   -1.8260 c3        1 02I     -0.060000
     19 O4'         0.9490    0.3600   -2.3760 os        1 02I     -0.290000
     20 C5'         0.7980    1.5650   -0.3780 c2        1 02I      0.192000
     21 O5'        -0.1650    2.5170    0.1400 o         1 02I     -0.692000
     22 H2         -0.4240   -5.1890    0.7360 ha        1 02I      0.154000
     23 H1N6        0.5030   -3.5650    4.3550 hn        1 02I      0.198000
     24 H2N6        0.2700   -2.0150    4.5410 hn        1 02I      0.198000
     25 H1'         0.3290   -1.3710   -2.5470 h4        1 02I      0.115000
     26 H12'       -1.4950   -0.1430   -3.1290 hc        1 02I      0.088000
     27 H22'       -1.8090   -0.1970   -1.5420 hc        1 02I      0.088000
     28 H3'        -1.3020    1.9930   -1.3850 h1        1 02I      0.139000
     29 H4'         1.1600    2.2640   -2.2710 h1        1 02I      0.171000
     30 H5'         1.7110    1.8880   -0.1560 h4        1 02I      0.128000
     31 HO3'       -1.7930    2.7160   -3.2100 ho        1 02I      0.286000
     32 OP1         1.2290    4.6790    0.3840 o         1 02I     -1.237333
@<TRIPOS>BOND
     1    1   13 1   
     2    1   15 1   
     3    1   32 1   
     4    2    7 1   
     5    3    4 1   
     6    3   22 1   
     7    5    6 1   
     8    7    8 1   
     9    8   23 1   
    10    8   24 1   
    11    9   10 1   
    12   10   11 1   
    13   12   14 1   
    14   12   19 1   
    15   12   25 1   
    16   14   16 1   
    17   14   26 1   
    18   14   27 1   
    19   16   17 1   
    20   16   18 1   
    21   16   28 1   
    22   17   31 1   
    23   18   19 1   
    24   18   20 1   
    25   18   29 1   
    26   20   21 1   
    27   20   30 1   
@<TRIPOS>SUBSTRUCTURE
     1 02I         1 TEMP              0 ****  ****    0 ROOT
