@<TRIPOS>MOLECULE
02J
   13    13     1     0     0
SMALL
bcc


@<TRIPOS>ATOM
      1 C4         -0.6620    0.9050    0.2400 cc        1 02J     -0.335600
      2 C5         -1.8520    0.2760   -0.0460 cd        1 02J      0.202000
      3 C6         -3.2670    0.6210    0.0680 c3        1 02J     -0.116400
      4 O1         -1.5470   -1.0040   -0.5730 os        1 02J     -0.171100
      5 N2         -0.2270   -1.1670   -0.6130 nd        1 02J     -0.394300
      6 C3          0.3740   -0.0660   -0.1430 cc        1 02J      0.309800
      7 C41         1.8730    0.1970   -0.0030 c         1 02J      0.835100
      8 O42         2.4480    0.7420   -0.9790 o         1 02J     -0.807300
      9 H4         -0.4760    1.8890    0.6530 ha        1 02J      0.161000
     10 H6         -3.7580    0.5910   -0.9370 hc        1 02J      0.041700
     11 H6A        -3.7930   -0.1070    0.7350 hc        1 02J      0.041700
     12 H6B        -3.3760    1.6480    0.4940 hc        1 02J      0.041700
     13 OXT         2.4060   -0.1190    1.0920 o         1 02J     -0.807300
@<TRIPOS>BOND
     1    1    2 2   
     2    1    6 1   
     3    1    9 1   
     4    2    3 1   
     5    2    4 1   
     6    3   10 1   
     7    3   11 1   
     8    3   12 1   
     9    4    5 1   
    10    5    6 2   
    11    6    7 1   
    12    7    8 1   
    13    7   13 1   
@<TRIPOS>SUBSTRUCTURE
     1 02J         1 TEMP              0 ****  ****    0 ROOT
