@<TRIPOS>MOLECULE
02J
   13    10     1     0     0
SMALL
bcc


@<TRIPOS>ATOM
      1 C4         -0.4270   -0.0430   -0.3150 c1        1 02J     -0.206000
      2 C5          0.9450    0.0110   -0.2810 c1        1 02J     -0.086000
      3 C6          1.8630    0.0500   -1.4830 c2        1 02J     -0.141000
      4 O1          1.3290    0.0550    1.0160 os        1 02J     -0.113000
      5 N2          0.1840    0.0290    1.8050 n2        1 02J     -0.060000
      6 C3         -0.8860   -0.0310    0.9850 c1        1 02J     -0.108000
      7 C41        -2.3360   -0.0560    1.4160 c1        1 02J      0.394000
      8 O42        -2.9470    1.0240    1.6320 o         1 02J     -0.542500
      9 H4         -0.9810   -0.0600   -1.1190 DU        1 02J      0.161000
     10 H6          2.7920    0.1400   -1.1810 ha        1 02J      0.081000
     11 H6A         1.6280    0.8150   -2.0490 ha        1 02J      0.081000
     12 H6B         1.7650   -0.7790   -1.9960 ha        1 02J      0.081000
     13 OXT        -2.9280   -1.1560    1.5700 o         1 02J     -0.542500
@<TRIPOS>BOND
     1    1    2 1   
     2    1    6 1   
     3    2    4 1   
     4    3   10 1   
     5    3   11 1   
     6    3   12 1   
     7    4    5 1   
     8    5    6 1   
     9    7    8 1   
    10    7   13 1   
@<TRIPOS>SUBSTRUCTURE
     1 02J         1 TEMP              0 ****  ****    0 ROOT
