@<TRIPOS>MOLECULE
02K
   22    21     1     0     0
SMALL
bcc


@<TRIPOS>ATOM
      1 O          -0.3810   -1.3730   -2.2920 o         1 02K     -0.811000
      2 CD          0.6030   -0.7320    1.6930 c3        1 02K     -0.058400
      3 CG         -0.8100   -0.3350    1.5050 c3        1 02K     -0.082400
      4 CE          1.3070   -1.0060    0.4190 c3        1 02K     -0.082400
      5 CB         -0.9780    0.8000    0.5190 c3        1 02K     -0.115700
      6 CH          1.1700    0.1190   -0.5830 c3        1 02K     -0.115700
      7 N          -0.4030    1.6300   -1.7290 nh        1 02K     -0.472100
      8 C          -1.0260   -0.5400   -1.6010 c1        1 02K      0.778000
      9 CA         -0.2930    0.5290   -0.8350 c2        1 02K      0.134300
     10 HAP         1.0720   -0.0120    2.1610 hc        1 02K      0.009700
     11 HAPA        0.6320   -1.5380    2.2460 hc        1 02K      0.009700
     12 HAQ        -1.3150   -1.1080    1.1830 hc        1 02K      0.045700
     13 HAQA       -1.1760   -0.0570    2.3690 hc        1 02K      0.045700
     14 HAR         2.2560   -1.1450    0.6080 hc        1 02K      0.045700
     15 HARA        0.9400   -1.8230    0.0270 hc        1 02K      0.045700
     16 HB1        -1.9330    0.9430    0.3650 hc        1 02K      0.020200
     17 HB2        -0.5960    1.6120    0.9070 hc        1 02K      0.020200
     18 HAT         1.6620    0.8960   -0.2510 hc        1 02K      0.020200
     19 HATA        1.5670   -0.1660   -1.4310 hc        1 02K      0.020200
     20 H          -0.1780    2.4030   -1.2910 hn        1 02K      0.176700
     21 OXT        -2.2820   -0.6030   -1.5510 o         1 02K     -0.811000
     22 H2          0.1630    1.5050   -2.4380 hn        1 02K      0.176700
@<TRIPOS>BOND
     1    1    8 2   
     2    2    3 1   
     3    2    4 1   
     4    2   10 1   
     5    2   11 1   
     6    3    5 1   
     7    3   12 1   
     8    3   13 1   
     9    4    6 1   
    10    4   14 1   
    11    4   15 1   
    12    5    9 1   
    13    5   16 1   
    14    5   17 1   
    15    6    9 1   
    16    6   18 1   
    17    6   19 1   
    18    7    9 2   
    19    7   20 1   
    20    7   22 1   
    21    8   21 2   
@<TRIPOS>SUBSTRUCTURE
     1 02K         1 TEMP              0 ****  ****    0 ROOT
