@<TRIPOS>MOLECULE
02K
   22    22     1     0     0
SMALL
bcc


@<TRIPOS>ATOM
      1 O          -1.8070    0.6890   -1.3190 o         1 02K     -0.840800
      2 CD          2.6480    0.3310   -0.4760 c3        1 02K     -0.065400
      3 CG          2.0470   -1.0440   -0.6820 c3        1 02K     -0.067400
      4 CE          1.9620    1.0570    0.6620 c3        1 02K     -0.067400
      5 CB          0.5520   -0.9630   -0.9040 c3        1 02K     -0.055400
      6 CH          0.4670    1.1380    0.4410 c3        1 02K     -0.055400
      7 N          -0.1440   -1.0340    1.4800 n3        1 02K     -0.881800
      8 C          -1.6580    0.0190   -0.2610 c         1 02K      0.891600
      9 CA         -0.1820   -0.2430    0.2420 c3        1 02K      0.030200
     10 HAP         3.7440    0.2380   -0.2610 hc        1 02K      0.016200
     11 HAPA        2.5390    0.9300   -1.4190 hc        1 02K      0.016200
     12 HAQ         2.5320   -1.5330   -1.5680 hc        1 02K      0.021200
     13 HAQA        2.2620   -1.6810    0.2150 hc        1 02K      0.021200
     14 HAR         2.1730    0.5220    1.6250 hc        1 02K      0.021200
     15 HARA        2.3850    2.0920    0.7520 hc        1 02K      0.021200
     16 HB1         0.3330   -0.3880   -1.8440 hc        1 02K      0.043700
     17 HB2         0.1360   -1.9950   -1.0330 hc        1 02K      0.043700
     18 HAT        -0.0120    1.6630    1.3080 hc        1 02K      0.043700
     19 HATA        0.2470    1.7380   -0.4820 hc        1 02K      0.043700
     20 H          -0.6920   -0.5380    2.1630 hn        1 02K      0.330800
     21 OXT        -2.6080   -0.4580    0.4230 o         1 02K     -0.840800
     22 H2         -0.6370   -1.8920    1.2970 hn        1 02K      0.330800
@<TRIPOS>BOND
     1    1    8 1   
     2    2    3 1   
     3    2    4 1   
     4    2   10 1   
     5    2   11 1   
     6    3    5 1   
     7    3   12 1   
     8    3   13 1   
     9    4    6 1   
    10    4   14 1   
    11    4   15 1   
    12    5    9 1   
    13    5   16 1   
    14    5   17 1   
    15    6    9 1   
    16    6   18 1   
    17    6   19 1   
    18    7    9 1   
    19    7   20 1   
    20    7   22 1   
    21    8    9 1   
    22    8   21 1   
@<TRIPOS>SUBSTRUCTURE
     1 02K         1 TEMP              0 ****  ****    0 ROOT
