@<TRIPOS>MOLECULE
02L
   31    30     1     0     0
SMALL
bcc


@<TRIPOS>ATOM
      1 CA          1.6700   -0.1400    0.4130 c3        1 02L      0.005500
      2 C           3.2180    0.0090    0.6290 c         1 02L      0.894600
      3 N           0.8490    0.5040    1.4300 n3        1 02L     -0.906800
      4 CB          1.3550    0.3290   -1.0040 c3        1 02L     -0.133400
      5 CG         -0.1020    0.3080   -1.4070 c         1 02L      0.656100
      6 OD1        -0.5380    1.0980   -2.2760 o         1 02L     -0.658100
      7 ND2        -0.9350   -0.6650   -0.8660 n         1 02L     -0.545900
      8 C36        -2.3570   -0.6220   -1.0420 c3        1 02L      0.090000
      9 C37        -3.1830   -0.0980    0.1580 c3        1 02L     -0.082000
     10 C40        -2.8860   -0.9120    1.4060 c3        1 02L     -0.088100
     11 C38        -2.8660    1.3650    0.4130 c3        1 02L     -0.088100
     12 C39        -4.6540   -0.2430   -0.2030 c3        1 02L     -0.088100
     13 O           3.6110    0.5630    1.6940 o         1 02L     -0.834300
     14 HA          1.4650   -1.2490    0.4920 h1        1 02L      0.040700
     15 H           1.3040    0.3570    2.3170 hn        1 02L      0.338800
     16 HB2         1.7250    1.3790   -1.1450 hc        1 02L      0.085200
     17 HB3         1.9320   -0.3270   -1.7120 hc        1 02L      0.085200
     18 HD21       -0.6230   -1.1080   -0.0300 hn        1 02L      0.316500
     19 H36        -2.5940    0.0200   -1.9390 h1        1 02L      0.048700
     20 H36A       -2.7020   -1.6750   -1.2570 h1        1 02L      0.048700
     21 H40        -1.8600   -0.6870    1.7900 hc        1 02L      0.034256
     22 H40A       -3.6200   -0.6630    2.2100 hc        1 02L      0.034256
     23 H40B       -2.9580   -2.0030    1.1850 hc        1 02L      0.034256
     24 H38        -3.0560    1.9680   -0.5080 hc        1 02L      0.034256
     25 H38A       -3.5030    1.7590    1.2400 hc        1 02L      0.034256
     26 H38B       -1.7930    1.4870    0.7000 hc        1 02L      0.034256
     27 H39        -4.9120   -1.3170   -0.3640 hc        1 02L      0.034256
     28 H39A       -5.2940    0.1560    0.6210 hc        1 02L      0.034256
     29 H39B       -4.8830    0.3250   -1.1370 hc        1 02L      0.034256
     30 OXT         3.9690   -0.4600   -0.2670 o         1 02L     -0.834300
     31 H2          0.8570    1.4960    1.2700 hn        1 02L      0.338800
@<TRIPOS>BOND
     1    1    2 1   
     2    1    3 1   
     3    1    4 1   
     4    1   14 1   
     5    2   13 1   
     6    2   30 1   
     7    3   15 1   
     8    3   31 1   
     9    4    5 1   
    10    4   16 1   
    11    4   17 1   
    12    5    6 2   
    13    5    7 1   
    14    7    8 1   
    15    7   18 1   
    16    8    9 1   
    17    8   19 1   
    18    8   20 1   
    19    9   10 1   
    20    9   11 1   
    21    9   12 1   
    22   10   21 1   
    23   10   22 1   
    24   10   23 1   
    25   11   24 1   
    26   11   25 1   
    27   11   26 1   
    28   12   27 1   
    29   12   28 1   
    30   12   29 1   
@<TRIPOS>SUBSTRUCTURE
     1 02L         1 TEMP              0 ****  ****    0 ROOT
