@<TRIPOS>MOLECULE
02N
   20    18     1     0     0
SMALL
bcc


@<TRIPOS>ATOM
      1 C20        -2.6010    0.2650   -0.0820 c3        1 02N     -0.049000
      2 C21        -1.0540    0.1680   -0.0440 c2        1 02N     -0.128000
      3 C22        -0.3890    0.1220    1.1870 c2        1 02N     -0.125000
      4 C24         1.7360    0.1220    0.0280 c1        1 02N     -0.067000
      5 C26        -0.3180    0.1920   -1.2420 c1        1 02N     -0.116000
      6 N16        -3.1570   -1.0170   -0.0590 n3        1 02N     -0.333000
      7 C23         0.9870    0.0990    1.2300 c1        1 02N     -0.129000
      8 C27         3.2530    0.1780    0.0810 c3        1 02N     -0.180000
      9 C25         1.0710    0.1690   -1.2050 c1        1 02N     -0.130000
     10 H20        -2.8880    0.7450   -0.9370 h1        1 02N      0.098000
     11 H20A       -2.9360    0.8000    0.7470 h1        1 02N      0.098000
     12 H22        -0.9030    0.1070    2.0160 ha        1 02N      0.129000
     13 H26        -0.7860    0.2270   -2.1020 ha        1 02N      0.132000
     14 HN16       -3.0700   -1.3890    0.8110 hn        1 02N      0.142000
     15 H23         1.4580    0.0670    2.1120 ha        1 02N      0.132000
     16 H27         3.5400    1.0400   -0.1330 hc        1 02N      0.084333
     17 H27A        3.6460   -0.4930   -0.5950 hc        1 02N      0.084333
     18 H27B        3.5360   -0.0350    0.9210 hc        1 02N      0.084333
     19 H25         1.6000    0.1860   -2.0640 ha        1 02N      0.132000
     20 H2         -2.7250   -1.5520   -0.6700 hn        1 02N      0.142000
@<TRIPOS>BOND
     1    1    2 1   
     2    1    6 1   
     3    1   10 1   
     4    1   11 1   
     5    2    3 1   
     6    2    5 1   
     7    3    7 1   
     8    3   12 1   
     9    4    8 1   
    10    4    9 1   
    11    5   13 1   
    12    6   14 1   
    13    6   20 1   
    14    7   15 1   
    15    8   16 1   
    16    8   17 1   
    17    8   18 1   
    18    9   19 1   
@<TRIPOS>SUBSTRUCTURE
     1 02N         1 TEMP              0 ****  ****    0 ROOT
