@<TRIPOS>MOLECULE
02N
   21    21     1     0     0
SMALL
bcc


@<TRIPOS>ATOM
      1 C20         0.0190    0.0040   -0.0020 c3        1 02N      0.180100
      2 C21         1.5030   -0.0240   -0.0030 ca        1 02N     -0.217300
      3 C22         2.2070    0.0040    1.2080 ca        1 02N     -0.089000
      4 C24         4.3070    0.0080   -0.0050 ca        1 02N     -0.004300
      5 C26         2.2050   -0.0320   -1.2150 ca        1 02N     -0.089000
      6 N16        -0.5420   -1.3910    0.0180 nz        1 02N     -0.846600
      7 C23         3.5970    0.0190    1.2050 ca        1 02N     -0.127000
      8 C27         5.7860    0.0170   -0.0040 c3        1 02N     -0.078800
      9 C25         3.5960   -0.0170   -1.2140 ca        1 02N     -0.127000
     10 H20        -0.3780    0.5390    0.9090 hx        1 02N      0.111700
     11 H20A       -0.3800    0.5120   -0.9290 hx        1 02N      0.111700
     12 H22         1.6640    0.0330    2.1660 ha        1 02N      0.138000
     13 H26         1.6610   -0.0300   -2.1730 ha        1 02N      0.138000
     14 HN16       -0.2150   -1.8830    0.8560 hn        1 02N      0.456800
     15 H23         4.1480    0.0490    2.1600 ha        1 02N      0.162000
     16 H27         6.1830    0.5930    0.8690 hc        1 02N      0.068367
     17 H27A        6.1700   -1.0340    0.0660 hc        1 02N      0.068367
     18 H27B        6.1880    0.4730   -0.9430 hc        1 02N      0.068367
     19 H25         4.1450   -0.0140   -2.1700 ha        1 02N      0.162000
     20 H2         -1.5650   -1.3660    0.0180 hn        1 02N      0.456800
     21 H163       -0.2160   -1.9070   -0.8050 hn        1 02N      0.456800
@<TRIPOS>BOND
     1    1    2 1   
     2    1    6 1   
     3    1   10 1   
     4    1   11 1   
     5    2    3 ar  
     6    2    5 ar  
     7    3    7 ar  
     8    3   12 1   
     9    4    7 ar  
    10    4    8 1   
    11    4    9 ar  
    12    5    9 ar  
    13    5   13 1   
    14    6   14 1   
    15    6   20 1   
    16    6   21 1   
    17    7   15 1   
    18    8   16 1   
    19    8   17 1   
    20    8   18 1   
    21    9   19 1   
@<TRIPOS>SUBSTRUCTURE
     1 02N         1 TEMP              0 ****  ****    0 ROOT
