@<TRIPOS>MOLECULE
02N
   21    21     1     0     0
SMALL
bcc


@<TRIPOS>ATOM
      1 C20         0.0180    0.0030    0.0070 c3        1 02N      0.180100
      2 C21         1.5030   -0.0250    0.0050 ca        1 02N     -0.217300
      3 C22         2.2080   -0.0130    1.2150 ca        1 02N     -0.088500
      4 C24         4.3060    0.0080   -0.0000 ca        1 02N     -0.004300
      5 C26         2.2040   -0.0160   -1.2090 ca        1 02N     -0.088500
      6 N16        -0.5420   -1.3930    0.0050 n4        1 02N     -0.846600
      7 C23         3.5990    0.0020    1.2110 ca        1 02N     -0.127500
      8 C27         5.7860    0.0180   -0.0080 c3        1 02N     -0.078800
      9 C25         3.5940   -0.0000   -1.2090 ca        1 02N     -0.127500
     10 H20        -0.3810    0.5260   -0.9110 hx        1 02N      0.111700
     11 H20A       -0.3780    0.5230    0.9280 hx        1 02N      0.111700
     12 H22         1.6660    0.0030    2.1740 ha        1 02N      0.138000
     13 H26         1.6590   -0.0010   -2.1660 ha        1 02N      0.138000
     14 HN16       -0.2160   -1.8950   -0.8260 hn        1 02N      0.456800
     15 H23         4.1500    0.0190    2.1660 ha        1 02N      0.162000
     16 H27         6.1710   -1.0180   -0.1910 hc        1 02N      0.068367
     17 H27A        6.1740    0.6820   -0.8220 hc        1 02N      0.068367
     18 H27B        6.1960    0.3780    0.9680 hc        1 02N      0.068367
     19 H25         4.1440    0.0150   -2.1650 ha        1 02N      0.162000
     20 H2         -1.5650   -1.3680    0.0060 hn        1 02N      0.456800
     21 H163       -0.2140   -1.8980    0.8350 hn        1 02N      0.456800
@<TRIPOS>BOND
     1    1    2 1   
     2    1    6 1   
     3    1   10 1   
     4    1   11 1   
     5    2    3 ar  
     6    2    5 ar  
     7    3    7 ar  
     8    3   12 1   
     9    4    7 ar  
    10    4    8 1   
    11    4    9 ar  
    12    5    9 ar  
    13    5   13 1   
    14    6   14 1   
    15    6   20 1   
    16    6   21 1   
    17    7   15 1   
    18    8   16 1   
    19    8   17 1   
    20    8   18 1   
    21    9   19 1   
@<TRIPOS>SUBSTRUCTURE
     1 02N         1 TEMP              0 ****  ****    0 ROOT
