@<TRIPOS>MOLECULE
02N
   20    20     1     0     0
SMALL
bcc


@<TRIPOS>ATOM
      1 C20         2.4260   -0.1630   -0.4640 c3        1 02N      0.204100
      2 C21         0.9410   -0.1160   -0.2530 ca        1 02N     -0.100300
      3 C22         0.1800   -1.2810   -0.3870 ca        1 02N     -0.114500
      4 C24        -1.8460   -0.0330    0.0750 ca        1 02N     -0.075300
      5 C26         0.3020    1.0910    0.0480 ca        1 02N     -0.114500
      6 N16         3.1870    0.5080    0.5660 n3        1 02N     -0.916800
      7 C23        -1.2030   -1.2390   -0.2260 ca        1 02N     -0.134000
      8 C27        -3.3180    0.0140    0.2330 c3        1 02N     -0.053800
      9 C25        -1.0810    1.1310    0.2120 ca        1 02N     -0.134000
     10 H20         2.7370   -1.2450   -0.5890 h1        1 02N      0.033200
     11 H20A        2.6600    0.3580   -1.4400 h1        1 02N      0.033200
     12 H22         0.6720   -2.2370   -0.6220 ha        1 02N      0.138000
     13 H26         0.8950    2.0130    0.1530 ha        1 02N      0.138000
     14 HN16        2.8390    0.2870    1.4770 hn        1 02N      0.351300
     15 H23        -1.7950   -2.1610   -0.3340 ha        1 02N      0.130500
     16 H27        -3.7990    0.2460   -0.7510 hc        1 02N      0.043700
     17 H27A       -3.7150   -0.9670    0.5930 hc        1 02N      0.043700
     18 H27B       -3.6170    0.8070    0.9620 hc        1 02N      0.043700
     19 H25        -1.5760    2.0840    0.4500 ha        1 02N      0.130500
     20 H2          4.1510    0.2460    0.5070 hn        1 02N      0.351300
@<TRIPOS>BOND
     1    1    2 1   
     2    1    6 1   
     3    1   10 1   
     4    1   11 1   
     5    2    3 ar  
     6    2    5 ar  
     7    3    7 ar  
     8    3   12 1   
     9    4    7 ar  
    10    4    8 1   
    11    4    9 ar  
    12    5    9 ar  
    13    5   13 1   
    14    6   14 1   
    15    6   20 1   
    16    7   15 1   
    17    8   16 1   
    18    8   17 1   
    19    8   18 1   
    20    9   19 1   
@<TRIPOS>SUBSTRUCTURE
     1 02N         1 TEMP              0 ****  ****    0 ROOT
