@<TRIPOS>MOLECULE
02N
   21    21     1     0     0
SMALL
bcc


@<TRIPOS>ATOM
      1 C20         0.0180    0.0030   -0.0070 c3        1 02N      0.180100
      2 C21         1.5030   -0.0250   -0.0050 ca        1 02N     -0.217300
      3 C22         2.2040    0.0070    1.2080 ca        1 02N     -0.089000
      4 C24         4.3060    0.0090   -0.0020 ca        1 02N     -0.004300
      5 C26         2.2070   -0.0360   -1.2160 ca        1 02N     -0.089000
      6 N16        -0.5420   -1.3930    0.0180 n4        1 02N     -0.846600
      7 C23         3.5950    0.0240    1.2070 ca        1 02N     -0.127000
      8 C27         5.7860    0.0190    0.0000 c3        1 02N     -0.078800
      9 C25         3.5980   -0.0200   -1.2130 ca        1 02N     -0.127000
     10 H20        -0.3810    0.5400    0.9010 hx        1 02N      0.111700
     11 H20A       -0.3780    0.5070   -0.9360 hx        1 02N      0.111700
     12 H22         1.6590    0.0400    2.1640 ha        1 02N      0.138000
     13 H26         1.6650   -0.0380   -2.1750 ha        1 02N      0.138000
     14 HN16       -0.2150   -1.8820    0.8580 hn        1 02N      0.456800
     15 H23         4.1440    0.0580    2.1620 ha        1 02N      0.162000
     16 H27         6.1830    0.5650    0.8920 hc        1 02N      0.068367
     17 H27A        6.1710   -1.0330    0.0340 hc        1 02N      0.068367
     18 H27B        6.1870    0.5080   -0.9220 hc        1 02N      0.068367
     19 H25         4.1490   -0.0200   -2.1670 ha        1 02N      0.162000
     20 H2         -1.5640   -1.3690    0.0160 hn        1 02N      0.456800
     21 H163       -0.2130   -1.9130   -0.8030 hn        1 02N      0.456800
@<TRIPOS>BOND
     1    1    2 1   
     2    1    6 1   
     3    1   10 1   
     4    1   11 1   
     5    2    3 ar  
     6    2    5 ar  
     7    3    7 ar  
     8    3   12 1   
     9    4    7 ar  
    10    4    8 1   
    11    4    9 ar  
    12    5    9 ar  
    13    5   13 1   
    14    6   14 1   
    15    6   20 1   
    16    6   21 1   
    17    7   15 1   
    18    8   16 1   
    19    8   17 1   
    20    8   18 1   
    21    9   19 1   
@<TRIPOS>SUBSTRUCTURE
     1 02N         1 TEMP              0 ****  ****    0 ROOT
