@<TRIPOS>MOLECULE
02O
   29    29     1     0     0
SMALL
bcc


@<TRIPOS>ATOM
      1 C           3.9450    0.0560    0.1060 c         1 02O      0.891600
      2 C41        -3.9170   -0.3670    1.4710 c3        1 02O     -0.085100
      3 C42        -3.4670   -1.7460   -0.5560 c3        1 02O     -0.085100
      4 C43        -4.3450    0.5670   -0.7910 c3        1 02O     -0.085100
      5 C37        -2.0140    0.1640   -0.0040 cc        1 02O      0.522300
      6 N36        -0.9580   -0.4850    0.6990 nc        1 02O     -0.725000
      7 N38        -1.5470    1.2470   -0.6770 nd        1 02O     -0.402300
      8 O39        -0.2560    1.3240   -0.4450 os        1 02O     -0.144100
      9 C1          0.1220    0.2420    0.4110 cd        1 02O      0.559700
     10 CB          1.5450    0.1470    0.7990 c3        1 02O     -0.109700
     11 CA          2.4660   -0.0830   -0.4030 c3        1 02O      0.015500
     12 N           2.1800   -1.3210   -1.1100 n3        1 02O     -0.889800
     13 O           4.8010   -0.7370   -0.3730 o         1 02O     -0.832800
     14 H41        -3.2970   -1.0670    2.0790 hc        1 02O      0.038922
     15 H41A       -3.8550    0.6520    1.9210 hc        1 02O      0.038922
     16 H41B       -4.9800   -0.7090    1.5020 hc        1 02O      0.038922
     17 H42        -4.5190   -2.1210   -0.5680 hc        1 02O      0.038922
     18 H42A       -3.0740   -1.7420   -1.6010 hc        1 02O      0.038922
     19 H42B       -2.8440   -2.4400    0.0570 hc        1 02O      0.038922
     20 H43        -4.3360    1.6060   -0.3840 hc        1 02O      0.038922
     21 H43A       -4.0150    0.5970   -1.8570 hc        1 02O      0.038922
     22 H43B       -5.3900    0.1760   -0.7520 hc        1 02O      0.038922
     23 HB1         1.8660    1.1140    1.2800 hc        1 02O      0.091700
     24 HB2         1.6710   -0.6760    1.5500 hc        1 02O      0.091700
     25 HA          2.3010    0.7580   -1.1380 h1        1 02O      0.056700
     26 H           2.9150   -1.4520   -1.7860 hn        1 02O      0.336800
     27 OXT         4.1850    0.9620    0.9500 o         1 02O     -0.832800
     28 H2          2.2510   -2.0860   -0.4620 hn        1 02O      0.336800
     29 C40        -3.4320   -0.3380    0.0260 c3        1 02O     -0.061300
@<TRIPOS>BOND
     1    1   11 1   
     2    1   13 1   
     3    1   27 1   
     4    2   14 1   
     5    2   15 1   
     6    2   16 1   
     7    2   29 1   
     8    3   17 1   
     9    3   18 1   
    10    3   19 1   
    11    3   29 1   
    12    4   20 1   
    13    4   21 1   
    14    4   22 1   
    15    4   29 1   
    16    5    6 1   
    17    5    7 2   
    18    5   29 1   
    19    6    9 2   
    20    7    8 1   
    21    8    9 1   
    22    9   10 1   
    23   10   11 1   
    24   10   23 1   
    25   10   24 1   
    26   11   12 1   
    27   11   25 1   
    28   12   26 1   
    29   12   28 1   
@<TRIPOS>SUBSTRUCTURE
     1 02O         1 TEMP              0 ****  ****    0 ROOT
