@<TRIPOS>MOLECULE
02P
   54    51     1     0     0
SMALL
bcc


@<TRIPOS>ATOM
      1 N10        -1.5870   -3.0090    1.1140 n3        1 02P     -0.337000
      2 C8         -0.3650   -2.6700    1.7430 c3        1 02P     -0.035000
      3 C9          0.2470   -1.4450    1.0500 c2        1 02P      0.320000
      4 O12         0.5630   -0.4690    1.7050 o         1 02P     -0.448000
      5 C7         -0.6180   -2.3530    3.1960 c3        1 02P     -0.146000
      6 C4         -0.6280   -3.6820    4.0310 c1        1 02P     -0.100000
      7 C3          0.4800   -4.0250    4.8050 c1        1 02P     -0.122000
      8 C5         -1.7870   -4.4520    4.0970 c1        1 02P     -0.124000
      9 C26         0.4270   -5.1410    5.6470 c1        1 02P     -0.124000
     10 C6         -1.8390   -5.5640    4.9360 c1        1 02P     -0.124000
     11 C1         -0.7300   -5.9080    5.7110 c1        1 02P     -0.124000
     12 N11         0.4550   -1.4560   -0.3680 n         1 02P     -0.309000
     13 C13         1.0830   -0.2890   -1.2500 c3        1 02P      0.018000
     14 C17         0.1810    0.9840   -1.3600 c2        1 02P      0.301000
     15 O28        -0.9160    0.9950   -0.8460 o         1 02P     -0.357000
     16 C15         1.2990   -0.9120   -2.4170 c3        1 02P     -0.162000
     17 C16         0.2290   -2.0980   -2.5170 c3        1 02P     -0.177000
     18 C14         0.1170   -2.5980   -1.3330 c3        1 02P     -0.024000
     19 CL2        -2.7190    5.0920   -5.1580 cl        1 02P      0.119000
     20 N18         0.7040    2.2090   -2.0100 n         1 02P     -0.387000
     21 C19         0.5340    3.5080   -1.3630 c3        1 02P      0.007000
     22 C20         0.1590    4.5670   -2.4220 c2        1 02P      0.037000
     23 N21         0.8830    5.7350   -2.5140 n3        1 02P     -0.031000
     24 C22        -0.9560    4.3770   -3.2290 c1        1 02P     -0.139000
     25 C23        -1.3330    5.3470   -4.1130 c1        1 02P      0.029000
     26 C24        -0.6100    6.5120   -4.2040 c1        1 02P     -0.147000
     27 C25         0.5050    6.7030   -3.3970 c1        1 02P     -0.004000
     28 C27         1.9890    5.9800   -1.5970 c3        1 02P     -0.143000
     29 HN10       -1.7340   -3.8990    1.2000 hn        1 02P      0.161500
     30 HN1A       -2.2700   -2.5480    1.5070 hn        1 02P      0.161500
     31 H8          0.2570   -3.4270    1.6770 h1        1 02P      0.126000
     32 H7         -1.4910   -1.9020    3.2860 hc        1 02P      0.104000
     33 H7A         0.0830   -1.7690    3.5270 hc        1 02P      0.104000
     34 H3          1.2860   -3.4910    4.7610 ha        1 02P      0.133000
     35 H5         -2.5650   -4.2120    3.5540 ha        1 02P      0.137500
     36 H26         1.1950   -5.3800    6.1850 ha        1 02P      0.137500
     37 H6         -2.6560   -6.1060    4.9820 ha        1 02P      0.137500
     38 H1         -0.7680   -6.6900    6.3010 ha        1 02P      0.137500
     39 H13         1.8980    0.0730   -0.8640 h1        1 02P      0.129000
     40 H15         1.1750   -0.2890   -3.1540 hc        1 02P      0.119500
     41 H15A        2.1970   -1.2750   -2.4380 hc        1 02P      0.119500
     42 H16         0.5420   -2.7740   -3.1350 hc        1 02P      0.107500
     43 H16A       -0.6320   -1.7460   -2.8150 hc        1 02P      0.107500
     44 H14         0.7500   -3.3410   -1.2160 h1        1 02P      0.107500
     45 H14A       -0.7920   -2.9040   -1.1830 h1        1 02P      0.107500
     46 HN18        1.1620    2.1470   -2.7960 hn        1 02P      0.255000
     47 H19        -0.1720    3.4490   -0.7020 h1        1 02P      0.140500
     48 H19A        1.3700    3.7670   -0.9250 h1        1 02P      0.140500
     49 H22        -1.4400    3.5230   -3.2030 ha        1 02P      0.211000
     50 H24        -0.8810    7.2090   -4.8400 ha        1 02P      0.205000
     51 H25         1.0200    7.5330   -3.4630 ha        1 02P      0.207000
     52 H27         2.2990    6.9040   -1.6990 h1        1 02P      0.145667
     53 H27A        1.6890    5.8380   -0.6830 h1        1 02P      0.145667
     54 H27B        2.7140    5.3720   -1.7970 h1        1 02P      0.145667
@<TRIPOS>BOND
     1    1    2 1   
     2    1   29 1   
     3    1   30 1   
     4    2    3 1   
     5    2    5 1   
     6    2   31 1   
     7    3    4 1   
     8    3   12 1   
     9    5    6 1   
    10    5   32 1   
    11    5   33 1   
    12    6    7 1   
    13    7   34 1   
    14    8   10 1   
    15    8   35 1   
    16    9   11 1   
    17    9   36 1   
    18   10   37 1   
    19   11   38 1   
    20   12   13 1   
    21   12   18 1   
    22   13   14 1   
    23   13   16 1   
    24   13   39 1   
    25   14   15 1   
    26   14   20 1   
    27   16   17 1   
    28   16   40 1   
    29   16   41 1   
    30   17   18 1   
    31   17   42 1   
    32   17   43 1   
    33   18   44 1   
    34   18   45 1   
    35   19   25 1   
    36   20   21 1   
    37   20   46 1   
    38   21   22 1   
    39   21   47 1   
    40   21   48 1   
    41   22   23 1   
    42   22   24 1   
    43   23   27 1   
    44   23   28 1   
    45   24   49 1   
    46   25   26 1   
    47   26   50 1   
    48   27   51 1   
    49   28   52 1   
    50   28   53 1   
    51   28   54 1   
@<TRIPOS>SUBSTRUCTURE
     1 02P         1 TEMP              0 ****  ****    0 ROOT
