@<TRIPOS>MOLECULE
02P
   54    56     1     0     0
SMALL
bcc


@<TRIPOS>ATOM
      1 N10        -2.8070   -2.5540    0.7300 n3        1 02P     -0.889800
      2 C8         -2.9500   -1.2170    0.2110 c3        1 02P      0.128500
      3 C9         -1.5970   -0.5710   -0.1860 c         1 02P      0.616100
      4 O12        -0.6330   -1.2830   -0.5530 o         1 02P     -0.659100
      5 C7         -3.8720   -1.1490   -1.0280 c3        1 02P     -0.028100
      6 C4         -5.2370   -0.6770   -0.6680 ca        1 02P     -0.105300
      7 C3         -5.7740    0.4570   -1.2890 ca        1 02P     -0.126000
      8 C5         -6.0060   -1.3790    0.2680 ca        1 02P     -0.126000
      9 C26        -7.0640    0.8840   -0.9760 ca        1 02P     -0.126000
     10 C6         -7.2940   -0.9480    0.5810 ca        1 02P     -0.126000
     11 C1         -7.8250    0.1840   -0.0400 ca        1 02P     -0.119000
     12 N11        -1.4290    0.7980   -0.0740 n         1 02P     -0.458800
     13 C13        -0.3050    1.4850   -0.6940 c3        1 02P      0.043700
     14 C17         0.9540    1.5370    0.1980 c         1 02P      0.667100
     15 O28         1.5810    2.5930    0.4150 o         1 02P     -0.629100
     16 C15        -0.7780    2.9140   -1.0440 c3        1 02P     -0.087400
     17 C16        -2.1460    3.0870   -0.3930 c3        1 02P     -0.093400
     18 C14        -2.5300    1.7160    0.1840 c3        1 02P      0.074000
     19 CL2         5.5860   -2.8080   -1.2620 cl        1 02P      0.041600
     20 N18         1.4250    0.3420    0.7180 n         1 02P     -0.576900
     21 C19         2.5520    0.2860    1.5850 c3        1 02P      0.132300
     22 C20         3.8760    0.1150    0.8310 ca        1 02P      0.007400
     23 N21         4.8090    1.1210    0.7540 na        1 02P      0.044900
     24 C22         4.1110   -1.1200    0.2030 ca        1 02P     -0.152000
     25 C23         5.2990   -1.3420   -0.5070 ca        1 02P      0.108400
     26 C24         6.2460   -0.3040   -0.5720 ca        1 02P     -0.147000
     27 C25         5.9750    0.9050    0.0640 ca        1 02P     -0.026300
     28 C27         4.5870    2.4120    1.3930 c3        1 02P     -0.050400
     29 HN10       -2.4750   -3.1860    0.0280 hn        1 02P      0.365300
     30 HN1A       -2.1860   -2.5690    1.5140 hn        1 02P      0.365300
     31 H8         -3.4070   -0.5980    1.0440 h1        1 02P      0.090700
     32 H7         -3.9540   -2.1610   -1.5120 hc        1 02P      0.064200
     33 H7A        -3.4190   -0.4640   -1.7930 hc        1 02P      0.064200
     34 H3         -5.1850    1.0070   -2.0370 ha        1 02P      0.138000
     35 H5         -5.5890   -2.2750    0.7540 ha        1 02P      0.138000
     36 H26        -7.4830    1.7720   -1.4720 ha        1 02P      0.138500
     37 H6         -7.8940   -1.5050    1.3150 ha        1 02P      0.138500
     38 H1         -8.8440    0.5200    0.2050 ha        1 02P      0.140000
     39 H13         0.0120    0.9300   -1.6290 h1        1 02P      0.090700
     40 H15        -0.0550    3.6830   -0.6750 hc        1 02P      0.079200
     41 H15A       -0.8510    3.0110   -2.1560 hc        1 02P      0.079200
     42 H16        -2.9060    3.4230   -1.1400 hc        1 02P      0.068200
     43 H16A       -2.1060    3.8510    0.4220 hc        1 02P      0.068200
     44 H14        -3.4810    1.3390   -0.2880 h1        1 02P      0.067200
     45 H14A       -2.6910    1.7820    1.2960 h1        1 02P      0.067200
     46 HN18        0.9830   -0.5180    0.4630 hn        1 02P      0.360500
     47 H19         2.5790    1.2140    2.2290 h1        1 02P      0.096200
     48 H19A        2.4620   -0.6140    2.2630 h1        1 02P      0.096200
     49 H22         3.3380   -1.9070    0.2750 ha        1 02P      0.203000
     50 H24         7.1980   -0.4280   -1.1180 ha        1 02P      0.206000
     51 H25         6.7040    1.7430    0.0300 h4        1 02P      0.209000
     52 H27         4.5850    2.2760    2.5090 h1        1 02P      0.110033
     53 H27A        5.4060    3.1250    1.1090 h1        1 02P      0.110033
     54 H27B        3.5960    2.8360    1.0560 h1        1 02P      0.110033
@<TRIPOS>BOND
     1    1    2 1   
     2    1   29 1   
     3    1   30 1   
     4    2    3 1   
     5    2    5 1   
     6    2   31 1   
     7    3    4 2   
     8    3   12 1   
     9    5    6 1   
    10    5   32 1   
    11    5   33 1   
    12    6    7 ar  
    13    6    8 ar  
    14    7    9 ar  
    15    7   34 1   
    16    8   10 ar  
    17    8   35 1   
    18    9   11 ar  
    19    9   36 1   
    20   10   11 ar  
    21   10   37 1   
    22   11   38 1   
    23   12   13 1   
    24   12   18 1   
    25   13   14 1   
    26   13   16 1   
    27   13   39 1   
    28   14   15 2   
    29   14   20 1   
    30   16   17 1   
    31   16   40 1   
    32   16   41 1   
    33   17   18 1   
    34   17   42 1   
    35   17   43 1   
    36   18   44 1   
    37   18   45 1   
    38   19   25 1   
    39   20   21 1   
    40   20   46 1   
    41   21   22 1   
    42   21   47 1   
    43   21   48 1   
    44   22   23 1   
    45   22   24 ar  
    46   23   27 2   
    47   23   28 1   
    48   24   25 ar  
    49   24   49 1   
    50   25   26 ar  
    51   26   27 ar  
    52   26   50 1   
    53   27   51 1   
    54   28   52 1   
    55   28   53 1   
    56   28   54 1   
@<TRIPOS>SUBSTRUCTURE
     1 02P         1 TEMP              0 ****  ****    0 ROOT
