@<TRIPOS>MOLECULE
02Q
   23    23     1     0     0
SMALL
bcc


@<TRIPOS>ATOM
      1 C28         2.7470    0.4390    0.2860 c         1 02Q      0.907600
      2 C33        -1.4270    0.8850   -0.1660 ca        1 02Q     -0.056300
      3 C34        -2.7870    0.9850    0.1530 ca        1 02Q     -0.146000
      4 C35        -3.5660   -0.1560    0.3310 ca        1 02Q     -0.154000
      5 C37        -2.9890   -1.4170    0.1900 ca        1 02Q     -0.151000
      6 C36        -1.6370   -1.5280   -0.1240 ca        1 02Q     -0.140000
      7 C32        -0.8420   -0.3900   -0.3030 ca        1 02Q     -0.048300
      8 C31         0.6040   -0.5360   -0.6300 c3        1 02Q     -0.034100
      9 C9          1.4910   -0.3970    0.5930 c3        1 02Q     -0.194400
     10 O29         2.5880    1.5830   -0.2350 o         1 02Q     -0.849300
     11 H38         0.4340    1.9830   -0.0110 hc        1 02Q      0.062367
     12 H38A       -0.5800    2.3550   -1.4630 hc        1 02Q      0.062367
     13 H38B       -1.0860    2.9850    0.1610 hc        1 02Q      0.062367
     14 H34        -3.2420    1.9790    0.2660 ha        1 02Q      0.115000
     15 H35        -4.6310   -0.0610    0.5820 ha        1 02Q      0.109000
     16 H37        -3.5980   -2.3210    0.3300 ha        1 02Q      0.110000
     17 H36        -1.1800   -2.5240   -0.2290 ha        1 02Q      0.123000
     18 H31         0.7820   -1.5350   -1.1110 hc        1 02Q      0.050200
     19 H31A        0.8960    0.2520   -1.3800 hc        1 02Q      0.050200
     20 H9          1.7970   -1.4060    0.9640 hc        1 02Q      0.028700
     21 H9A         0.9420    0.1210    1.4190 hc        1 02Q      0.028700
     22 OXT         3.8730   -0.0460    0.5890 o         1 02Q     -0.849300
     23 C38        -0.6280    2.1150   -0.3700 c3        1 02Q     -0.084800
@<TRIPOS>BOND
     1    1    9 1   
     2    1   10 1   
     3    1   22 1   
     4    2    3 ar  
     5    2    7 ar  
     6    2   23 1   
     7    3    4 ar  
     8    3   14 1   
     9    4    5 ar  
    10    4   15 1   
    11    5    6 ar  
    12    5   16 1   
    13    6    7 ar  
    14    6   17 1   
    15    7    8 1   
    16    8    9 1   
    17    8   18 1   
    18    8   19 1   
    19    9   20 1   
    20    9   21 1   
    21   11   23 1   
    22   12   23 1   
    23   13   23 1   
@<TRIPOS>SUBSTRUCTURE
     1 02Q         1 TEMP              0 ****  ****    0 ROOT
