@<TRIPOS>MOLECULE
02Q
   23    20     1     0     0
SMALL
bcc


@<TRIPOS>ATOM
      1 C28         2.1010   -0.9470    0.3620 c2        1 02Q      0.273000
      2 C33         3.2780    3.5830    2.1390 c2        1 02Q     -0.021000
      3 C34         3.7090    4.8360    2.3560 c2        1 02Q     -0.290000
      4 C35         5.6060   -6.0420   -1.2600 c1        1 02Q     -0.083500
      5 C37         4.8290   -4.9820   -0.9830 c1        1 02Q     -0.328000
      6 C36         4.0350   -4.0600   -0.8350 c1        1 02Q     -0.083500
      7 C32         2.5140    2.8670    3.1540 c2        1 02Q     -0.202000
      8 C31         2.0480    1.6230    3.0170 c2        1 02Q     -0.164000
      9 C9          2.1320   -2.0210   -0.6430 c1        1 02Q     -0.075000
     10 O29         1.4830   -1.1550    1.4490 o         1 02Q     -0.564500
     11 H38         4.1140    1.9200    1.0610 hc        1 02Q      0.096667
     12 H38A        4.1510    3.5060    0.1660 hc        1 02Q      0.096667
     13 H38B        2.6000    2.5730    0.3660 hc        1 02Q      0.096667
     14 H34         4.2850    5.3930    1.6080 ha        1 02Q      0.094000
     15 H35         3.5120    5.3740    3.2900 ha        1 02Q      0.094000
     16 H37         6.5220   -6.2270   -0.6870 ha        1 02Q      0.194500
     17 H36         2.3350    3.4340    4.0840 ha        1 02Q      0.091000
     18 H31         3.2990   -3.2080   -0.7020 ha        1 02Q      0.194500
     19 H31A        1.4780    1.1360    3.8200 ha        1 02Q      0.149000
     20 H9          2.1890    0.9950    2.1130 ha        1 02Q      0.149000
     21 H9A         1.3270   -2.0170   -1.3900 ha        1 02Q      0.045000
     22 OXT         2.7170    0.1310    0.0910 o         1 02Q     -0.564500
     23 C38         3.5560    2.8720    0.8670 c3        1 02Q     -0.197000
@<TRIPOS>BOND
     1    1    9 1   
     2    1   10 1   
     3    1   22 1   
     4    2    3 1   
     5    2    7 1   
     6    2   23 1   
     7    3   14 1   
     8    3   15 1   
     9    4    5 1   
    10    4   16 1   
    11    5    6 1   
    12    6   18 1   
    13    7    8 1   
    14    7   17 1   
    15    8   19 1   
    16    8   20 1   
    17    9   21 1   
    18   11   23 1   
    19   12   23 1   
    20   13   23 1   
@<TRIPOS>SUBSTRUCTURE
     1 02Q         1 TEMP              0 ****  ****    0 ROOT
