@<TRIPOS>MOLECULE
02Q
   23    20     1     0     0
SMALL
bcc


@<TRIPOS>ATOM
      1 C28        -2.9850   -1.1020    1.4950 c1        1 02Q      0.327000
      2 C38         0.8430    1.7860    1.1930 c3        1 02Q     -0.178000
      3 C33         1.0900    0.8740    0.0120 c2        1 02Q     -0.076000
      4 C34         2.3380    0.8410   -0.5890 c2        1 02Q     -0.139000
      5 C35         2.5710   -0.0130   -1.6560 c1        1 02Q     -0.157000
      6 C37         1.5560   -0.8330   -2.1220 c1        1 02Q     -0.137500
      7 C36         0.3070   -0.8000   -1.5210 c1        1 02Q     -0.137500
      8 C32         0.0740    0.0540   -0.4540 c1        1 02Q     -0.033000
      9 C31        -1.3040    0.1290    0.1660 c3        1 02Q     -0.125000
     10 C9         -1.6520   -1.2070    0.7860 c2        1 02Q     -0.219000
     11 O29        -4.0520   -1.3140    0.8630 o         1 02Q     -0.584000
     12 H38         0.5170    1.2570    1.9510 hc        1 02Q      0.082000
     13 H38A        1.6800    2.2320    1.4420 hc        1 02Q      0.082000
     14 H38B        0.1730    2.4590    0.9520 hc        1 02Q      0.082000
     15 H34         3.0530    1.4180   -0.2610 ha        1 02Q      0.113000
     16 H35         3.4450   -0.0240   -2.0900 ha        1 02Q      0.110000
     17 H37         1.7200   -1.4350   -2.8730 ha        1 02Q      0.125500
     18 H36        -0.4080   -1.3780   -1.8490 ha        1 02Q      0.125500
     19 H31        -1.9600    0.3490   -0.5240 hc        1 02Q      0.096500
     20 H31A       -1.3130    0.8210    0.8570 hc        1 02Q      0.096500
     21 H9         -0.9590   -1.4580    1.4290 ha        1 02Q      0.063500
     22 H9A        -1.7080   -1.8870    0.0850 ha        1 02Q      0.063500
     23 OXT        -3.0270   -0.7710    2.7090 o         1 02Q     -0.584000
@<TRIPOS>BOND
     1    1   11 1   
     2    1   23 1   
     3    2    3 1   
     4    2   12 1   
     5    2   13 1   
     6    2   14 1   
     7    3    4 1   
     8    3    8 1   
     9    4    5 1   
    10    4   15 1   
    11    5   16 1   
    12    6    7 1   
    13    6   17 1   
    14    7   18 1   
    15    8    9 1   
    16    9   10 1   
    17    9   19 1   
    18    9   20 1   
    19   10   21 1   
    20   10   22 1   
@<TRIPOS>SUBSTRUCTURE
     1 02Q         1 TEMP              0 ****  ****    0 ROOT
