@<TRIPOS>MOLECULE
02Q
   23    20     1     0     0
SMALL
bcc


@<TRIPOS>ATOM
      1 C28         0.1670   -0.1270   -0.7760 c2        1 02Q      0.259000
      2 C33         4.2440    1.2760    1.2970 c2        1 02Q     -0.160000
      3 C34         5.6380    1.6550    1.3310 c2        1 02Q     -0.078000
      4 C35         6.5450    1.2860    2.2420 c2        1 02Q     -0.285000
      5 C37         4.3800   -1.9720    3.0220 c1        1 02Q      0.168000
      6 C36         4.6320   -1.0170    2.1520 c2        1 02Q     -0.414000
      7 C32         3.7540    0.0770    1.7580 c2        1 02Q     -0.021000
      8 C31         2.3820   -0.0830    2.0200 c1        1 02Q     -0.068000
      9 C9         -0.6400   -0.2070   -1.9960 c1        1 02Q     -0.063000
     10 O29         0.6230   -1.1980   -0.2600 o         1 02Q     -0.596000
     11 H38         2.3970    1.8070    0.3010 hc        1 02Q      0.093667
     12 H38A        3.8020    2.9210   -0.0170 hc        1 02Q      0.093667
     13 H38B        2.9540    2.9700    1.5810 hc        1 02Q      0.093667
     14 H34         5.9400    2.3320    0.5090 ha        1 02Q      0.108000
     15 H35         7.5890    1.6170    2.1860 ha        1 02Q      0.102000
     16 H37         6.3030    0.6520    3.1040 ha        1 02Q      0.102000
     17 H36         5.6150   -1.0280    1.6310 ha        1 02Q      0.191000
     18 H31         1.7510   -2.1820    1.4350 ha        1 02Q      0.016500
     19 H31A        2.1870   -2.2490    1.9600 ha        1 02Q      0.016500
     20 H9          1.5510    0.0470    1.3070 ha        1 02Q      0.218000
     21 H9A        -1.7250   -0.3020   -1.8290 ha        1 02Q      0.015000
     22 OXT         0.4260    1.0190   -0.2790 o         1 02Q     -0.596000
     23 C38         3.3040    2.2920    0.7620 c3        1 02Q     -0.195000
@<TRIPOS>BOND
     1    1    9 1   
     2    1   10 1   
     3    1   22 1   
     4    2    3 1   
     5    2    7 1   
     6    2   23 1   
     7    3    4 1   
     8    3   14 1   
     9    4   15 1   
    10    4   16 1   
    11    5    6 1   
    12    6    7 1   
    13    6   17 1   
    14    7    8 1   
    15    8   20 1   
    16    9   21 1   
    17   11   23 1   
    18   12   23 1   
    19   13   23 1   
    20   18   19 1   
@<TRIPOS>SUBSTRUCTURE
     1 02Q         1 TEMP              0 ****  ****    0 ROOT
