@<TRIPOS>MOLECULE
02Q
   23    21     1     0     0
SMALL
bcc


@<TRIPOS>ATOM
      1 C28        -0.0720   -1.2310   -0.2490 cu        1 02Q      0.265000
      2 C33         3.9660    1.4910    0.8780 c2        1 02Q     -0.295000
      3 C34         5.4650    1.4470    0.8270 c3        1 02Q     -0.167000
      4 C35         6.0830    0.4700    1.7000 c1        1 02Q     -0.123000
      5 C37         3.9710   -2.0250    1.6480 c1        1 02Q      0.128000
      6 C36         4.1360   -0.9840    0.8670 c2        1 02Q     -0.458000
      7 C32         3.2980    0.2170    0.7370 c2        1 02Q      0.148000
      8 C31         1.9620    0.1000    0.4970 c2        1 02Q     -0.357000
      9 C9          1.2640   -1.1570    0.3340 cx        1 02Q      0.071000
     10 O29        -0.0230   -1.3310    1.1120 os        1 02Q     -0.312000
     11 H38         2.2830    2.7850    1.0710 ha        1 02Q      0.022000
     12 H38A        4.8120    4.4310    1.3910 ha        1 02Q      0.002000
     13 H38B        5.2860    4.9130    1.5040 ha        1 02Q      0.002000
     14 H34         5.8570    2.4620    1.1480 hc        1 02Q      0.104500
     15 H35         5.8060    1.2970   -0.2360 hc        1 02Q      0.104500
     16 H37         5.6600    0.4150    2.7170 ha        1 02Q      0.026000
     17 H36         5.0490   -0.9680    0.2220 ha        1 02Q      0.219000
     18 H31         2.2500   -1.8420    3.1940 ha        1 02Q      0.002000
     19 H31A        1.9820   -1.4180    2.7340 ha        1 02Q      0.002000
     20 H9          1.3510    1.0120    0.4120 ha        1 02Q      0.148000
     21 H9A         1.8760   -2.0850    0.3600 h1        1 02Q      0.136000
     22 OXT        -1.0070   -1.2660   -1.0220 o         1 02Q     -0.292000
     23 C38         3.3740    2.6910    1.0430 c1        1 02Q     -0.376000
@<TRIPOS>BOND
     1    1    9 1   
     2    1   10 1   
     3    1   22 1   
     4    2    3 1   
     5    2    7 1   
     6    2   23 1   
     7    3    4 1   
     8    3   14 1   
     9    3   15 1   
    10    4   16 1   
    11    5    6 1   
    12    6    7 1   
    13    6   17 1   
    14    7    8 1   
    15    8    9 1   
    16    8   20 1   
    17    9   10 1   
    18    9   21 1   
    19   11   23 1   
    20   12   13 1   
    21   18   19 1   
@<TRIPOS>SUBSTRUCTURE
     1 02Q         1 TEMP              0 ****  ****    0 ROOT
