@<TRIPOS>MOLECULE
02R
   17    14     1     0     0
SMALL
bcc


@<TRIPOS>ATOM
      1 C4         -1.3820    0.2310   -2.0220 c1        1 02R     -0.126000
      2 C5         -0.0100    0.4200   -2.0410 c1        1 02R     -0.131000
      3 C6          0.7160    0.3600   -0.8540 c1        1 02R     -0.038000
      4 C8          0.8140    0.1510    1.6100 c3        1 02R     -0.039000
      5 N30         1.6720   -1.0270    1.7090 n3        1 02R     -0.341000
      6 C1          0.0680    0.1120    0.3330 c2        1 02R     -0.078000
      7 C2         -1.3170   -0.0780    0.3480 c1        1 02R     -0.120000
      8 C3         -2.0330   -0.0190   -0.8210 c1        1 02R     -0.126000
      9 CL7         2.3920    0.7060   -1.2650 cl        1 02R      0.000000
     10 H4         -1.8800    0.2730   -2.8350 ha        1 02R      0.135500
     11 H5          0.4590    0.6000   -2.9040 ha        1 02R      0.147000
     12 H8          1.3780    0.9860    1.6480 h1        1 02R      0.075500
     13 H8A         0.1890    0.1520    2.3420 h1        1 02R      0.075500
     14 HN30        2.4950   -0.7810    2.0400 hn        1 02R      0.147500
     15 H2         -1.7890   -0.2590    1.2150 ha        1 02R      0.134000
     16 H3         -3.0430   -0.1580   -0.8070 ha        1 02R      0.135500
     17 H1          1.2690   -1.6700    2.3020 hn        1 02R      0.147500
@<TRIPOS>BOND
     1    1    8 1   
     2    1   10 1   
     3    2    3 1   
     4    2   11 1   
     5    3    6 1   
     6    4    5 1   
     7    4    6 1   
     8    4   12 1   
     9    4   13 1   
    10    5   14 1   
    11    5   17 1   
    12    6    7 1   
    13    7   15 1   
    14    8   16 1   
@<TRIPOS>SUBSTRUCTURE
     1 02R         1 TEMP              0 ****  ****    0 ROOT
