@<TRIPOS>MOLECULE
02R
   18    19     1     0     0
SMALL
bcc


@<TRIPOS>ATOM
      1 C4          0.4410   -0.3330   -0.6010 cx        1 02R      0.147000
      2 C5          1.0670    0.5730    0.3760 ce        1 02R     -0.161200
      3 C6          1.5090    1.2690    1.4190 c2        1 02R     -0.045800
      4 N30         2.7970    1.2280    4.1970 n4        1 02R     -0.856600
      5 C1          0.8870    0.6350    2.6900 c3        1 02R     -0.045300
      6 C2          0.0650   -0.5620    2.1550 c2        1 02R     -0.101200
      7 C3          0.1870   -0.5460    0.8320 ce        1 02R     -0.177200
      8 CL7         2.4960    2.6210    1.5030 cl        1 02R     -0.045400
      9 H4         -0.3820    0.0620   -1.2380 hc        1 02R      0.124700
     10 H5          1.0870   -1.0570   -1.1440 hc        1 02R      0.124700
     11 H8          1.4500   -0.3970    4.5270 hx        1 02R      0.118200
     12 H8A         3.1080    1.8340    3.4070 hn        1 02R      0.464133
     13 HN30        3.6130    0.8410    4.6780 hn        1 02R      0.464133
     14 H2          0.1900    1.3690    3.1740 hc        1 02R      0.108700
     15 H3         -0.4980   -1.2100    2.8250 ha        1 02R      0.183000
     16 H1          2.2630    1.8030    4.8550 hn        1 02R      0.464133
     17 C8          1.9450    0.1280    3.6590 c3        1 02R      0.116800
     18 H303        2.6240   -0.6050    3.1310 hx        1 02R      0.118200
@<TRIPOS>BOND
     1    1    2 1   
     2    1    7 1   
     3    1    9 1   
     4    1   10 1   
     5    2    3 2   
     6    2    7 1   
     7    3    5 1   
     8    3    8 1   
     9    4   12 1   
    10    4   13 1   
    11    4   16 1   
    12    4   17 1   
    13    5    6 1   
    14    5   14 1   
    15    5   17 1   
    16    6    7 2   
    17    6   15 1   
    18   11   17 1   
    19   17   18 1   
@<TRIPOS>SUBSTRUCTURE
     1 02R         1 TEMP              0 ****  ****    0 ROOT
