@<TRIPOS>MOLECULE
02R
   18    19     1     0     0
SMALL
bcc


@<TRIPOS>ATOM
      1 C4          0.5450   -0.5620   -0.5630 cx        1 02R      0.147000
      2 C5          1.3230    0.2920    0.3500 ce        1 02R     -0.161200
      3 C6          1.8540    1.0170    1.3300 c2        1 02R     -0.045800
      4 N30         2.7720    1.1400    4.2490 n4        1 02R     -0.856600
      5 C1          0.9370    0.8530    2.5700 c3        1 02R     -0.045300
      6 C2         -0.1640   -0.1310    2.1030 c2        1 02R     -0.101200
      7 C3          0.0920   -0.4090    0.8280 ce        1 02R     -0.177200
      8 CL7         3.2040    2.0090    1.3600 cl        1 02R     -0.045400
      9 H4         -0.0420   -0.0760   -1.3740 hc        1 02R      0.124700
     10 H5          0.9800   -1.5360   -0.8800 hc        1 02R      0.124700
     11 H8          0.9540    0.0790    4.6090 hx        1 02R      0.118200
     12 H8A         2.1360   -0.7320    3.4620 hx        1 02R      0.118200
     13 HN30        3.3370    1.4620    3.4330 hn        1 02R      0.464133
     14 H2          0.4620    1.8380    2.8200 hc        1 02R      0.108700
     15 H3         -0.9670   -0.4420    2.7670 ha        1 02R      0.183000
     16 H1          2.3840    1.9630    4.7190 hn        1 02R      0.464133
     17 C8          1.6750    0.2560    3.7590 c3        1 02R      0.116800
     18 H303        3.3700    0.6310    4.9040 hn        1 02R      0.464133
@<TRIPOS>BOND
     1    1    2 1   
     2    1    7 1   
     3    1    9 1   
     4    1   10 1   
     5    2    3 2   
     6    2    7 1   
     7    3    5 1   
     8    3    8 1   
     9    4   13 1   
    10    4   16 1   
    11    4   17 1   
    12    4   18 1   
    13    5    6 1   
    14    5   14 1   
    15    5   17 1   
    16    6    7 2   
    17    6   15 1   
    18   11   17 1   
    19   12   17 1   
@<TRIPOS>SUBSTRUCTURE
     1 02R         1 TEMP              0 ****  ****    0 ROOT
