@<TRIPOS>MOLECULE
02R
   17    17     1     0     0
SMALL
bcc


@<TRIPOS>ATOM
      1 C4          2.4370    0.7120   -0.2130 ca        1 02R     -0.119000
      2 C5          1.2060    1.3630   -0.2350 ca        1 02R     -0.131000
      3 C6          0.0290    0.6370   -0.0120 ca        1 02R      0.040400
      4 N30        -1.9810   -1.7310   -0.6770 n3        1 02R     -0.908800
      5 C1          0.0800   -0.7420    0.2340 ca        1 02R     -0.085300
      6 C2          1.3260   -1.3800    0.2520 ca        1 02R     -0.120000
      7 C3          2.4980   -0.6600    0.0320 ca        1 02R     -0.133000
      8 CL7        -1.4520    1.4710   -0.0400 cl        1 02R     -0.078400
      9 H4          3.3600    1.2830   -0.3890 ha        1 02R      0.136000
     10 H5          1.1570    2.4450   -0.4290 ha        1 02R      0.147000
     11 H8         -1.7910   -1.0040    1.2640 h1        1 02R      0.036200
     12 H8A        -0.8510   -2.5290    0.9670 h1        1 02R      0.036200
     13 HN30       -1.4370   -2.0410   -1.4560 hn        1 02R      0.352300
     14 H2          1.3790   -2.4620    0.4450 ha        1 02R      0.134000
     15 H3          3.4700   -1.1740    0.0500 ha        1 02R      0.135000
     16 H1         -2.7050   -2.3970   -0.4900 hn        1 02R      0.352300
     17 C8         -1.1610   -1.5460    0.4980 c3        1 02R      0.205100
@<TRIPOS>BOND
     1    1    2 ar  
     2    1    7 ar  
     3    1    9 1   
     4    2    3 ar  
     5    2   10 1   
     6    3    5 ar  
     7    3    8 1   
     8    4   13 1   
     9    4   16 1   
    10    4   17 1   
    11    5    6 ar  
    12    5   17 1   
    13    6    7 ar  
    14    6   14 1   
    15    7   15 1   
    16   11   17 1   
    17   12   17 1   
@<TRIPOS>SUBSTRUCTURE
     1 02R         1 TEMP              0 ****  ****    0 ROOT
