@<TRIPOS>MOLECULE
02S
   28    29     1     0     0
SMALL
bcc


@<TRIPOS>ATOM
      1 C8          0.2970   -1.1320    0.8460 cx        1 02S     -0.158000
      2 C27        -1.1550   -0.8370    1.2560 c2        1 02S      0.356000
      3 O28        -1.9310   -0.4390    0.3460 o         1 02S     -0.560500
      4 C34         1.8490    2.8900    0.9150 c1        1 02S     -0.229000
      5 C33         1.9980    1.7990    1.3840 c1        1 02S     -0.097000
      6 C30         1.1390   -1.9770    1.7820 cx        1 02S     -0.181000
      7 C31         1.4060   -0.5470    1.6020 cu        1 02S     -0.104000
      8 C32         2.1570    0.5020    1.9170 c2        1 02S      0.080000
      9 O35         3.2490    0.3100    2.7790 os        1 02S     -0.236000
     10 C36         3.1850    1.0740    3.9790 c3        1 02S      0.027000
     11 C37         2.0410    0.6400    4.9010 c3        1 02S     -0.200000
     12 C38         2.0240   -0.8230    5.1400 c2        1 02S     -0.052000
     13 C39         1.8130   -1.3240    6.3800 c2        1 02S     -0.227000
     14 C40         1.6350   -0.4400    7.4970 c2        1 02S     -0.009000
     15 C41         1.7010    0.9140    7.3320 c2        1 02S     -0.251000
     16 C42         1.9780    1.5110    6.0760 c1        1 02S     -0.100000
     17 H34         0.4000   -1.2460   -0.2490 hc        1 02S      0.122000
     18 H33         1.6990    3.8530    0.5030 ha        1 02S      0.212000
     19 H30         1.8600   -2.7100    1.3800 hc        1 02S      0.111500
     20 H31         0.6520   -2.3170    2.7180 hc        1 02S      0.111500
     21 H36         3.0740    2.1650    3.7460 h1        1 02S      0.097000
     22 H36A        4.1770    0.8750    4.4650 h1        1 02S      0.097000
     23 H38         1.0620    0.8700    4.3400 hc        1 02S      0.217000
     24 H39         2.1490   -1.4650    4.2510 ha        1 02S      0.159000
     25 H40         1.7620   -2.4070    6.5600 ha        1 02S      0.129000
     26 H41         1.4550   -0.8950    8.4840 ha        1 02S      0.114000
     27 H42         1.5650    1.5890    8.1920 ha        1 02S      0.130000
     28 OXT        -1.4870   -1.0380    2.4570 o         1 02S     -0.560500
@<TRIPOS>BOND
     1    1    2 1   
     2    1    6 1   
     3    1    7 1   
     4    1   17 1   
     5    2    3 1   
     6    2   28 1   
     7    4    5 1   
     8    4   18 1   
     9    5    8 1   
    10    6    7 1   
    11    6   19 1   
    12    6   20 1   
    13    7    8 1   
    14    8    9 1   
    15    9   10 1   
    16   10   11 1   
    17   10   21 1   
    18   10   22 1   
    19   11   12 1   
    20   11   16 1   
    21   11   23 1   
    22   12   13 1   
    23   12   24 1   
    24   13   14 1   
    25   13   25 1   
    26   14   15 1   
    27   14   26 1   
    28   15   16 1   
    29   15   27 1   
@<TRIPOS>SUBSTRUCTURE
     1 02S         1 TEMP              0 ****  ****    0 ROOT
