@<TRIPOS>MOLECULE
02S
   28    28     1     0     0
SMALL
bcc


@<TRIPOS>ATOM
      1 C8         -1.0130    0.3550    0.1610 ce        1 02S     -0.132200
      2 C27        -2.5260    0.3890    0.2360 c         1 02S      0.887800
      3 O28        -3.1380    0.7400   -0.8130 o         1 02S     -0.825800
      4 C34         4.6170   -0.5830    1.8530 c1        1 02S     -0.204500
      5 C33         3.4240   -0.5820    1.9610 cg        1 02S     -0.119300
      6 C30        -0.2380   -0.1460    1.1370 cf        1 02S     -0.219000
      7 C31         1.1980   -0.1770    1.0670 cf        1 02S     -0.049000
      8 C32         2.0170   -0.5820    2.0700 ce        1 02S      0.091400
      9 O35         1.5220   -1.1320    3.2560 os        1 02S     -0.335900
     10 C36         0.9510   -0.1750    4.1550 c3        1 02S      0.167600
     11 C37         1.9150    0.2580    5.1930 c2        1 02S     -0.135500
     12 C38         3.1510   -0.5490    5.5070 c3        1 02S     -0.022000
     13 C39         3.3240   -0.6410    7.0010 c2        1 02S     -0.163200
     14 C40         2.8040    0.2540    7.8710 ce        1 02S     -0.148000
     15 C41         2.2100    1.4730    7.2980 ce        1 02S     -0.176100
     16 C42         1.7610    1.2490    6.0690 c1        1 02S     -0.046800
     17 H34        -0.5870    0.7730   -0.7650 ha        1 02S      0.099000
     18 H33         5.6700   -0.5820    1.7540 ha        1 02S      0.153500
     19 H30         1.6600    0.1670    0.1240 ha        1 02S      0.121000
     20 H31        -0.7120   -0.5620    2.0460 ha        1 02S      0.152000
     21 H36         0.1000   -0.7370    4.6360 h1        1 02S      0.083700
     22 H36A        0.5390    0.7080    3.5970 h1        1 02S      0.083700
     23 H38         2.9940   -1.5740    5.0720 hc        1 02S      0.085200
     24 H39         4.0850   -0.1270    5.0510 hc        1 02S      0.085200
     25 H40         3.9270   -1.4940    7.3440 ha        1 02S      0.123000
     26 H41         2.9010    0.1650    8.9590 ha        1 02S      0.125000
     27 H42         2.2890    2.4290    7.8190 ha        1 02S      0.145000
     28 OXT        -3.0910    0.0760    1.3220 o         1 02S     -0.825800
@<TRIPOS>BOND
     1    1    2 1   
     2    1    6 2   
     3    1   17 1   
     4    2    3 1   
     5    2   28 1   
     6    4    5 3   
     7    4   18 1   
     8    5    8 1   
     9    6    7 1   
    10    6   20 1   
    11    7    8 2   
    12    7   19 1   
    13    8    9 1   
    14    9   10 1   
    15   10   11 1   
    16   10   21 1   
    17   10   22 1   
    18   11   12 1   
    19   11   16 2   
    20   12   13 1   
    21   12   23 1   
    22   12   24 1   
    23   13   14 2   
    24   13   25 1   
    25   14   15 1   
    26   14   26 1   
    27   15   16 2   
    28   15   27 1   
@<TRIPOS>SUBSTRUCTURE
     1 02S         1 TEMP              0 ****  ****    0 ROOT
