@<TRIPOS>MOLECULE
02S
   28    27     1     0     0
SMALL
bcc


@<TRIPOS>ATOM
      1 C8         -0.6400    0.8150   -0.5730 c2        1 02S     -0.150000
      2 C27        -0.8210    0.1050   -1.9090 c2        1 02S      0.347000
      3 O28        -0.7730    0.8300   -2.9420 o         1 02S     -0.558500
      4 C34         1.2330   -2.2210    1.1130 c1        1 02S     -0.157000
      5 C33         1.0950   -1.3150    1.8840 c1        1 02S     -0.137000
      6 C30        -0.9470    0.2520    0.5870 c2        1 02S     -0.261000
      7 C31         0.0560    0.8030    2.6600 c1        1 02S      0.004000
      8 C32         0.9140   -0.2350    2.7660 c2        1 02S     -0.089000
      9 O35         1.7770   -0.3130    3.8760 os        1 02S     -0.211000
     10 C36         1.6270    0.8040    4.7660 c3        1 02S      0.013000
     11 C37         2.6040    0.6630    5.8680 c2        1 02S     -0.038000
     12 C38         3.6320   -0.4370    5.9100 c3        1 02S     -0.111000
     13 C39         3.7540   -0.9600    7.3180 c2        1 02S     -0.149000
     14 C40         3.4050   -0.2500    8.4150 c2        1 02S     -0.154000
     15 C41         3.0840    1.1720    8.2120 c2        1 02S     -0.097000
     16 C42         2.6230    1.3880    6.9850 c1        1 02S     -0.193000
     17 H34        -0.2500    1.8400   -0.6530 ha        1 02S      0.113000
     18 H33         1.3170   -2.9900    0.3880 ha        1 02S      0.229000
     19 H30        -0.9010    0.8620    1.5790 ha        1 02S      0.143500
     20 H31        -1.3150   -0.7720    0.7080 ha        1 02S      0.143500
     21 H36         0.5740    0.8250    5.1630 h1        1 02S      0.106000
     22 H36A        1.8210    1.7580    4.1980 h1        1 02S      0.106000
     23 H38         3.2740   -1.2620    5.2320 hc        1 02S      0.129500
     24 H39         4.6430   -0.1150    5.5450 hc        1 02S      0.129500
     25 H40         4.1680   -1.9750    7.3980 ha        1 02S      0.127000
     26 H41         3.4560   -0.6480    9.4330 ha        1 02S      0.128000
     27 H42         3.3430    1.9150    8.9690 ha        1 02S      0.145000
     28 OXT        -0.9970   -1.1440   -1.9150 o         1 02S     -0.558500
@<TRIPOS>BOND
     1    1    2 1   
     2    1    6 1   
     3    1   17 1   
     4    2    3 1   
     5    2   28 1   
     6    4    5 1   
     7    4   18 1   
     8    5    8 1   
     9    6   19 1   
    10    6   20 1   
    11    7    8 1   
    12    8    9 1   
    13    9   10 1   
    14   10   11 1   
    15   10   21 1   
    16   10   22 1   
    17   11   12 1   
    18   11   16 1   
    19   12   13 1   
    20   12   23 1   
    21   12   24 1   
    22   13   14 1   
    23   13   25 1   
    24   14   15 1   
    25   14   26 1   
    26   15   16 1   
    27   15   27 1   
@<TRIPOS>SUBSTRUCTURE
     1 02S         1 TEMP              0 ****  ****    0 ROOT
