@<TRIPOS>MOLECULE
02S
   28    29     1     0     0
SMALL
bcc


@<TRIPOS>ATOM
      1 C8         -3.2690   -0.0940    0.0830 ca        1 02S     -0.142600
      2 C27        -4.7760   -0.1810   -0.1110 c         1 02S      0.909200
      3 O28        -5.3810   -1.1690    0.3940 o         1 02S     -0.831800
      4 C34        -2.5890   -1.0900    0.7910 ca        1 02S     -0.085000
      5 C33        -1.2080   -1.0280    0.9640 ca        1 02S     -0.196000
      6 C30        -2.5510    0.9810   -0.4480 ca        1 02S     -0.085000
      7 C31        -1.1700    1.0700   -0.2800 ca        1 02S     -0.196000
      8 C32        -0.5060    0.0610    0.4250 ca        1 02S      0.074100
      9 O35         0.8620    0.0840    0.6940 os        1 02S     -0.348900
     10 C36         1.6410    0.7740   -0.2860 c3        1 02S      0.173700
     11 C37         3.0650    0.3350   -0.1740 ca        1 02S     -0.076300
     12 C38         3.4460   -0.7580    0.6110 ca        1 02S     -0.118500
     13 C39         4.7850   -1.1390    0.6750 ca        1 02S     -0.136500
     14 C40         5.7520   -0.4360   -0.0420 ca        1 02S     -0.141000
     15 C41         5.3760    0.6560   -0.8260 ca        1 02S     -0.136500
     16 C42         4.0390    1.0420   -0.8920 ca        1 02S     -0.118500
     17 H34        -3.1740   -1.9280    1.2040 ha        1 02S      0.154000
     18 H33        -0.6660   -1.8040    1.5180 ha        1 02S      0.116000
     19 H30        -3.1060    1.7560   -1.0000 ha        1 02S      0.154000
     20 H31        -0.6170    1.9230   -0.6950 ha        1 02S      0.116000
     21 H36         1.2550    0.5560   -1.3190 h1        1 02S      0.047200
     22 H36A        1.5630    1.8790   -0.0890 h1        1 02S      0.047200
     23 H38         2.6780   -1.3090    1.1770 ha        1 02S      0.143500
     24 H39         5.0780   -1.9990    1.2950 ha        1 02S      0.123000
     25 H40         6.8070   -0.7390    0.0090 ha        1 02S      0.120000
     26 H41         6.1350    1.2130   -1.3930 ha        1 02S      0.123000
     27 H42         3.7440    1.9030   -1.5080 ha        1 02S      0.143500
     28 OXT        -5.3410    0.7380   -0.7680 o         1 02S     -0.831800
@<TRIPOS>BOND
     1    1    2 1   
     2    1    4 ar  
     3    1    6 ar  
     4    2    3 1   
     5    2   28 1   
     6    4    5 ar  
     7    4   17 1   
     8    5    8 ar  
     9    5   18 1   
    10    6    7 ar  
    11    6   19 1   
    12    7    8 ar  
    13    7   20 1   
    14    8    9 1   
    15    9   10 1   
    16   10   11 1   
    17   10   21 1   
    18   10   22 1   
    19   11   12 ar  
    20   11   16 ar  
    21   12   13 ar  
    22   12   23 1   
    23   13   14 ar  
    24   13   24 1   
    25   14   15 ar  
    26   14   25 1   
    27   15   16 ar  
    28   15   26 1   
    29   16   27 1   
@<TRIPOS>SUBSTRUCTURE
     1 02S         1 TEMP              0 ****  ****    0 ROOT
