@<TRIPOS>MOLECULE
02S
   28    24     1     0     0
SMALL
bcc


@<TRIPOS>ATOM
      1 C8         -1.4830    0.0070   -3.7830 c1        1 02S     -0.106000
      2 C27        -2.1850    0.0260   -5.1230 c1        1 02S      0.356000
      3 O28        -1.5160   -0.0720   -6.1850 o         1 02S     -0.564500
      4 C34        -1.1310   -1.2010   -3.2020 c2        1 02S     -0.099000
      5 C33        -0.4640   -1.2180   -1.9880 c1        1 02S     -0.180000
      6 C30        -1.1680    1.1990   -3.1490 c1        1 02S     -0.101000
      7 C31        -0.5000    1.1820   -1.9350 c1        1 02S     -0.163000
      8 C32        -0.1480   -0.0260   -1.3540 c1        1 02S      0.003000
      9 O35         0.5700   -0.0420   -0.1460 os        1 02S     -0.239000
     10 C36        -0.2460   -0.0650    1.0020 c3        1 02S      0.015000
     11 C37         0.6240   -0.0220    2.2400 c2        1 02S     -0.067000
     12 C38         1.0400   -1.2020    2.8360 c2        1 02S     -0.136000
     13 C39         1.8040   -1.1630    3.9920 c1        1 02S     -0.137000
     14 C40         2.1520    0.0570    4.5520 c1        1 02S     -0.139500
     15 C41         1.7360    1.2370    3.9560 c1        1 02S     -0.139500
     16 C42         0.9710    1.1980    2.8000 c1        1 02S     -0.103000
     17 H34        -1.3540   -2.0400   -3.6480 ha        1 02S      0.154000
     18 H33        -0.2020   -2.0690   -1.5870 ha        1 02S      0.116000
     19 H30        -1.4030    2.0500   -3.5650 ha        1 02S      0.155000
     20 H31        -0.2780    2.0210   -1.4880 ha        1 02S      0.120000
     21 H36        -0.7800   -0.8860    1.0070 h1        1 02S      0.083000
     22 H36A       -0.8420    0.7120    0.9950 h1        1 02S      0.083000
     23 H38         0.7950   -2.0610    2.4410 ha        1 02S      0.128000
     24 H39         2.0980   -1.9940    4.4110 ha        1 02S      0.121000
     25 H40         2.7060    0.0850    5.3550 ha        1 02S      0.122500
     26 H41         1.9620    2.0960    4.3630 ha        1 02S      0.122500
     27 H42         0.6780    2.0290    2.3810 ha        1 02S      0.159000
     28 OXT        -3.4360    0.1610   -5.1770 o         1 02S     -0.564500
@<TRIPOS>BOND
     1    1    4 1   
     2    1    6 1   
     3    2    3 1   
     4    2   28 1   
     5    4    5 1   
     6    4   17 1   
     7    5   18 1   
     8    6   19 1   
     9    7    8 1   
    10    7   20 1   
    11    8    9 1   
    12    9   10 1   
    13   10   11 1   
    14   10   21 1   
    15   10   22 1   
    16   11   12 1   
    17   11   16 1   
    18   12   13 1   
    19   12   23 1   
    20   13   24 1   
    21   14   15 1   
    22   14   25 1   
    23   15   26 1   
    24   16   27 1   
@<TRIPOS>SUBSTRUCTURE
     1 02S         1 TEMP              0 ****  ****    0 ROOT
