@<TRIPOS>MOLECULE
02T
   17    17     1     0     0
SMALL
bcc


@<TRIPOS>ATOM
      1 C4          1.9610   -0.0520   -0.4010 cc        1 02T     -0.190100
      2 C5          1.5290    1.2140   -0.0710 cd        1 02T     -0.152000
      3 C6          0.1160    1.2450    0.1650 cd        1 02T     -0.111300
      4 C7         -0.6110    2.4680    0.5320 c3        1 02T     -0.029800
      5 S3          0.7110   -1.1500   -0.4170 ss        1 02T      0.076200
      6 C1         -0.4470   -0.0130    0.0020 cc        1 02T     -0.134400
      7 C2         -1.8820   -0.3280    0.2070 c3        1 02T      0.235100
      8 N29        -2.3420   -1.4480   -0.5840 n3        1 02T     -0.921800
      9 H4          2.9910   -0.3250   -0.6270 h4        1 02T      0.169000
     10 H5          2.1630    2.1000    0.0070 ha        1 02T      0.150000
     11 H7         -1.3720    2.7200   -0.2510 hc        1 02T      0.041700
     12 H7A        -1.1480    2.3280    1.5040 hc        1 02T      0.041700
     13 H7B         0.0880    3.3330    0.6350 hc        1 02T      0.041700
     14 H2         -2.0400   -0.5920    1.2950 h1        1 02T      0.038200
     15 H2A        -2.4780    0.6170    0.0110 h1        1 02T      0.038200
     16 HN29       -3.3060   -1.6350   -0.3890 hn        1 02T      0.353800
     17 H1         -2.2310   -1.2700   -1.5620 hn        1 02T      0.353800
@<TRIPOS>BOND
     1    1    2 2   
     2    1    5 1   
     3    1    9 1   
     4    2    3 1   
     5    2   10 1   
     6    3    4 1   
     7    3    6 2   
     8    4   11 1   
     9    4   12 1   
    10    4   13 1   
    11    5    6 1   
    12    6    7 1   
    13    7    8 1   
    14    7   14 1   
    15    7   15 1   
    16    8   16 1   
    17    8   17 1   
@<TRIPOS>SUBSTRUCTURE
     1 02T         1 TEMP              0 ****  ****    0 ROOT
