@<TRIPOS>MOLECULE
02T
   17    13     1     0     0
SMALL
bcc


@<TRIPOS>ATOM
      1 C4         -1.1810    0.0680   -2.2900 c1        1 02T     -0.428500
      2 C5          0.2690    0.0340   -2.2520 c1        1 02T     -0.128000
      3 C6          0.7290    0.0190   -0.7280 c1        1 02T     -0.128000
      4 C7          2.1590   -0.0150   -0.2350 c2        1 02T     -0.155000
      5 S3         -1.6970    0.0760   -0.8260 ss        1 02T      0.616000
      6 C1         -0.4570    0.0440    0.1070 c1        1 02T     -0.428500
      7 C2         -0.4830   -0.0350    1.6170 c2        1 02T     -0.009000
      8 N29        -1.8350   -0.0660    2.0690 n3        1 02T     -0.354000
      9 H4         -1.7350    0.0830   -3.0940 DU        1 02T      0.159500
     10 H5          0.8600    0.0220   -3.0290 DU        1 02T      0.159500
     11 H7          2.7640   -0.1410   -0.9960 ha        1 02T      0.081000
     12 H7A         2.2690   -0.7570    0.3960 ha        1 02T      0.081000
     13 H7B         2.3700    0.8300    0.2140 ha        1 02T      0.081000
     14 H2         -0.0310    0.7480    1.9930 h4        1 02T      0.077500
     15 H2A        -0.0230   -0.8490    1.9100 h4        1 02T      0.077500
     16 HN29       -2.0280    0.7140    2.5090 hn        1 02T      0.149000
     17 H1         -1.9510   -0.7740    2.6370 hn        1 02T      0.149000
@<TRIPOS>BOND
     1    1    2 1   
     2    1    5 1   
     3    2    3 1   
     4    3    6 1   
     5    4   11 1   
     6    4   12 1   
     7    4   13 1   
     8    5    6 1   
     9    7    8 1   
    10    7   14 1   
    11    7   15 1   
    12    8   16 1   
    13    8   17 1   
@<TRIPOS>SUBSTRUCTURE
     1 02T         1 TEMP              0 ****  ****    0 ROOT
