@<TRIPOS>MOLECULE
02T
   18    18     1     0     0
SMALL
bcc


@<TRIPOS>ATOM
      1 C4         -0.1230   -0.0640    0.1140 cc        1 02T     -0.128100
      2 C5          1.2390    0.1420   -0.0250 cd        1 02T     -0.151000
      3 C6          1.8990    0.1410    1.2390 cd        1 02T     -0.047300
      4 C7          3.3490    0.3290    1.3810 c3        1 02T     -0.062800
      5 S3         -0.5700   -0.2450    1.6930 ss        1 02T      0.157200
      6 C1          0.9860   -0.0580    2.2800 cc        1 02T     -0.305400
      7 C2          1.3410   -0.1780    3.6960 c3        1 02T      0.229100
      8 N29         1.8250    1.1410    4.2420 nz        1 02T     -0.849600
      9 H4         -0.8300   -0.1110   -0.7190 h4        1 02T      0.204000
     10 H5          1.7620    0.2820   -0.9760 ha        1 02T      0.184000
     11 H7          3.8890   -0.1300    0.5120 hc        1 02T      0.059700
     12 H7A         3.6040    1.4200    1.3990 hc        1 02T      0.059700
     13 H7B         3.7360   -0.1480    2.3160 hc        1 02T      0.059700
     14 H2          2.1850   -0.9180    3.8410 hx        1 02T      0.110700
     15 H2A         0.4600   -0.5010    4.3240 hx        1 02T      0.110700
     16 HN29        2.6150    1.4680    3.6730 hn        1 02T      0.457467
     17 H1          2.1230    1.0380    5.2150 hn        1 02T      0.457467
     18 H293        1.0790    1.8400    4.1870 hn        1 02T      0.457467
@<TRIPOS>BOND
     1    1    2 2   
     2    1    5 1   
     3    1    9 1   
     4    2    3 1   
     5    2   10 1   
     6    3    4 1   
     7    3    6 2   
     8    4   11 1   
     9    4   12 1   
    10    4   13 1   
    11    5    6 1   
    12    6    7 1   
    13    7    8 1   
    14    7   14 1   
    15    7   15 1   
    16    8   16 1   
    17    8   17 1   
    18    8   18 1   
@<TRIPOS>SUBSTRUCTURE
     1 02T         1 TEMP              0 ****  ****    0 ROOT
