@<TRIPOS>MOLECULE
02T
   18    18     1     0     0
SMALL
bcc


@<TRIPOS>ATOM
      1 C4         -0.0650   -0.2980    0.1190 cc        1 02T     -0.128100
      2 C5          1.3080   -0.1630    0.0060 cd        1 02T     -0.151000
      3 C6          1.9230    0.0020    1.2810 cd        1 02T     -0.047300
      4 C7          3.3740    0.1590    1.4520 c3        1 02T     -0.062800
      5 S3         -0.5730   -0.2260    1.6880 ss        1 02T      0.157200
      6 C1          0.9670   -0.0080    2.3030 cc        1 02T     -0.305400
      7 C2          1.2680    0.0730    3.7340 c3        1 02T      0.229100
      8 N29         1.7850    1.4420    4.0980 n4        1 02T     -0.849600
      9 H4         -0.7440   -0.4460   -0.7260 h4        1 02T      0.204000
     10 H5          1.8680   -0.1840   -0.9330 ha        1 02T      0.184000
     11 H7          3.6710    1.2310    1.3170 hc        1 02T      0.059700
     12 H7A         3.7080   -0.1850    2.4630 hc        1 02T      0.059700
     13 H7B         3.9240   -0.4430    0.6830 hc        1 02T      0.059700
     14 H2          2.0770   -0.6650    4.0200 hx        1 02T      0.110700
     15 H2A         0.3540   -0.1220    4.3670 hx        1 02T      0.110700
     16 HN29        2.6070    1.6530    3.5190 hn        1 02T      0.457467
     17 H1          2.0450    1.4750    5.0870 hn        1 02T      0.457467
     18 H293        1.0690    2.1500    3.9110 hn        1 02T      0.457467
@<TRIPOS>BOND
     1    1    2 2   
     2    1    5 1   
     3    1    9 1   
     4    2    3 1   
     5    2   10 1   
     6    3    4 1   
     7    3    6 2   
     8    4   11 1   
     9    4   12 1   
    10    4   13 1   
    11    5    6 1   
    12    6    7 1   
    13    7    8 1   
    14    7   14 1   
    15    7   15 1   
    16    8   16 1   
    17    8   17 1   
    18    8   18 1   
@<TRIPOS>SUBSTRUCTURE
     1 02T         1 TEMP              0 ****  ****    0 ROOT
