@<TRIPOS>MOLECULE
02T
   18    18     1     0     0
SMALL
bcc


@<TRIPOS>ATOM
      1 C4         -0.0350   -0.0470    0.0350 cc        1 02T     -0.128100
      2 C5          1.3400    0.0920   -0.0400 cd        1 02T     -0.151000
      3 C6          1.9350    0.1030    1.2560 cd        1 02T     -0.047300
      4 C7          3.3840    0.2290    1.4660 c3        1 02T     -0.062800
      5 S3         -0.5680   -0.1560    1.5940 ss        1 02T      0.157200
      6 C1          0.9630   -0.0210    2.2550 cc        1 02T     -0.305400
      7 C2          1.2410   -0.1100    3.6890 c3        1 02T      0.229100
      8 N29         1.7590    1.2030    4.2190 n4        1 02T     -0.849600
      9 H4         -0.7010   -0.0900   -0.8310 h4        1 02T      0.204000
     10 H5          1.9150    0.1770   -0.9660 ha        1 02T      0.184000
     11 H7          3.6880    1.3080    1.4640 hc        1 02T      0.059700
     12 H7A         3.9440   -0.2810    0.6400 hc        1 02T      0.059700
     13 H7B         3.7000   -0.2340    2.4340 hc        1 02T      0.059700
     14 H2          2.0410   -0.8820    3.9000 hx        1 02T      0.110700
     15 H2A         0.3160   -0.3720    4.2810 hx        1 02T      0.110700
     16 HN29        2.0030    1.1180    5.2090 hn        1 02T      0.457467
     17 H1          1.0500    1.9330    4.1050 hn        1 02T      0.457467
     18 H293        2.5910    1.4750    3.6820 hn        1 02T      0.457467
@<TRIPOS>BOND
     1    1    2 2   
     2    1    5 1   
     3    1    9 1   
     4    2    3 1   
     5    2   10 1   
     6    3    4 1   
     7    3    6 2   
     8    4   11 1   
     9    4   12 1   
    10    4   13 1   
    11    5    6 1   
    12    6    7 1   
    13    7    8 1   
    14    7   14 1   
    15    7   15 1   
    16    8   16 1   
    17    8   17 1   
    18    8   18 1   
@<TRIPOS>SUBSTRUCTURE
     1 02T         1 TEMP              0 ****  ****    0 ROOT
