@<TRIPOS>MOLECULE
02U
   50    49     1     0     0
SMALL
bcc


@<TRIPOS>ATOM
      1 C          -8.2570   -0.6930    0.2640 c         1 02U      0.907600
      2 O          -8.3100   -0.6280    1.5270 o         1 02U     -0.853300
      3 OXT        -9.0980   -1.3180   -0.4440 o         1 02U     -0.853300
      4 CH3        -7.1200    0.0480   -0.4620 c3        1 02U     -0.194400
      5 H1         -7.0920   -0.2730   -1.5330 hc        1 02U      0.018700
      6 H2         -7.3550    1.1430   -0.4370 hc        1 02U      0.018700
      7 C1         -5.7880   -0.2080    0.1990 c3        1 02U     -0.065400
      8 C2         -4.6920    0.6600   -0.3840 c3        1 02U     -0.078400
      9 C3         -3.3560    0.3830    0.2730 c3        1 02U     -0.078400
     10 C4         -2.2640    1.2610   -0.2980 c3        1 02U     -0.079400
     11 C5         -0.9300    0.9830    0.3620 c3        1 02U     -0.076400
     12 C6          0.1580    1.8730   -0.2050 c3        1 02U     -0.052200
     13 C7          1.4660    1.6260    0.4490 c2        1 02U     -0.155200
     14 C8          2.6230    1.5540   -0.2140 c2        1 02U     -0.189200
     15 C9          3.9350    1.3470    0.4450 c3        1 02U     -0.044200
     16 C10         4.7570    0.2920   -0.2710 c3        1 02U     -0.076400
     17 C11         6.1030    0.1070    0.3970 c3        1 02U     -0.076400
     18 C12         6.9320   -0.9870   -0.2630 c3        1 02U     -0.065700
     19 C13         7.4760   -0.5220   -1.5990 c3        1 02U     -0.089100
     20 C14         8.0630   -1.4090    0.6660 c3        1 02U     -0.077400
     21 C15         8.7190   -2.6960    0.2360 c3        1 02U     -0.092100
     22 H3         -5.8900   -0.0140    1.3000 hc        1 02U      0.044200
     23 H4         -5.5130   -1.2890    0.0780 hc        1 02U      0.044200
     24 H5         -4.6120    0.4760   -1.4880 hc        1 02U      0.025700
     25 H6         -4.9580    1.7410   -0.2490 hc        1 02U      0.025700
     26 H7         -3.4410    0.5570    1.3780 hc        1 02U      0.036700
     27 H8         -3.0850   -0.6960    0.1290 hc        1 02U      0.036700
     28 H9         -2.1810    1.0870   -1.4030 hc        1 02U      0.034200
     29 H10        -2.5360    2.3400   -0.1540 hc        1 02U      0.034200
     30 H11        -1.0160    1.1490    1.4680 hc        1 02U      0.040200
     31 H12        -0.6520   -0.0930    0.2090 hc        1 02U      0.040200
     32 H13         0.2320    1.7150   -1.3140 hc        1 02U      0.044700
     33 H14        -0.1240    2.9500   -0.0450 hc        1 02U      0.044700
     34 H15         1.4270    1.5100    1.5450 ha        1 02U      0.119000
     35 H16         2.6610    1.6580   -1.3100 ha        1 02U      0.118000
     36 H17         4.4990    2.3200    0.4440 hc        1 02U      0.041200
     37 H18         3.7980    1.0480    1.5190 hc        1 02U      0.041200
     38 H19         4.1980   -0.6800   -0.2710 hc        1 02U      0.043200
     39 H20         4.8990    0.5930   -1.3420 hc        1 02U      0.043200
     40 H21         6.6730    1.0730    0.3720 hc        1 02U      0.038200
     41 H22         5.9380   -0.1530    1.4760 hc        1 02U      0.038200
     42 H23         6.2670   -1.8800   -0.4390 hc        1 02U      0.049700
     43 H24         8.1500    0.3570   -1.4650 hc        1 02U      0.032367
     44 H25         8.0550   -1.3410   -2.0900 hc        1 02U      0.032367
     45 H26         6.6410   -0.2270   -2.2790 hc        1 02U      0.032367
     46 H27         8.8290   -0.5910    0.7130 hc        1 02U      0.037700
     47 H28         7.6550   -1.5400    1.7040 hc        1 02U      0.037700
     48 H29         7.9650   -3.5150    0.1520 hc        1 02U      0.031367
     49 H30         9.2200   -2.5790   -0.7550 hc        1 02U      0.031367
     50 H31         9.4910   -3.0030    0.9830 hc        1 02U      0.031367
@<TRIPOS>BOND
     1    1    2 1   
     2    1    3 1   
     3    1    4 1   
     4    4    5 1   
     5    4    6 1   
     6    4    7 1   
     7    7    8 1   
     8    7   22 1   
     9    7   23 1   
    10    8    9 1   
    11    8   24 1   
    12    8   25 1   
    13    9   10 1   
    14    9   26 1   
    15    9   27 1   
    16   10   11 1   
    17   10   28 1   
    18   10   29 1   
    19   11   12 1   
    20   11   30 1   
    21   11   31 1   
    22   12   13 1   
    23   12   32 1   
    24   12   33 1   
    25   13   14 2   
    26   13   34 1   
    27   14   15 1   
    28   14   35 1   
    29   15   16 1   
    30   15   36 1   
    31   15   37 1   
    32   16   17 1   
    33   16   38 1   
    34   16   39 1   
    35   17   18 1   
    36   17   40 1   
    37   17   41 1   
    38   18   19 1   
    39   18   20 1   
    40   18   42 1   
    41   19   43 1   
    42   19   44 1   
    43   19   45 1   
    44   20   21 1   
    45   20   46 1   
    46   20   47 1   
    47   21   48 1   
    48   21   49 1   
    49   21   50 1   
@<TRIPOS>SUBSTRUCTURE
     1 02U         1 TEMP              0 ****  ****    0 ROOT
