@<TRIPOS>MOLECULE
02U
   50    46     1     0     0
SMALL
bcc


@<TRIPOS>ATOM
      1 C          -0.6410    1.8290   -3.2780 c2        1 02U      0.329000
      2 O          -0.3060    0.7890   -2.6310 o         1 02U     -0.606000
      3 OXT        -0.7970    1.8220   -4.5360 o         1 02U     -0.606000
      4 CH3        -0.8640    3.1230   -2.5120 c3        1 02U     -0.259000
      5 H1         -0.9230    3.9870   -3.2120 hc        1 02U      0.055333
      6 H2         -1.8190    3.0510   -1.9420 hc        1 02U      0.055333
      7 C1          1.0530   -2.8280   -2.1100 c1        1 02U     -0.104000
      8 C2          0.2090   -2.3020   -3.1360 c3        1 02U     -0.281000
      9 C3          0.7870   -2.1350   -4.5270 c3        1 02U     -0.149000
     10 C4         -0.0920   -1.2290   -5.3600 c3        1 02U     -0.193000
     11 C5          0.5540   -0.8710   -6.6810 c3        1 02U     -0.143000
     12 C6         -0.2650    0.1880   -7.3890 c3        1 02U     -0.147000
     13 C7          0.4690    0.7620   -8.5960 c3        1 02U     -0.221000
     14 C8          0.5680   -0.2270   -9.6580 c1        1 02U     -0.055000
     15 C9          1.8800   -0.7530  -10.0190 c3        1 02U     -0.217000
     16 C10         1.8890   -1.3610  -11.4080 c3        1 02U     -0.138000
     17 C11         3.2150   -2.0300  -11.7030 c3        1 02U     -0.162000
     18 C12         3.2510   -2.6530  -13.0830 c3        1 02U     -0.157000
     19 C13         3.4220   -1.6320  -14.1780 c3        1 02U     -0.212000
     20 C14         5.9650   -5.4060  -13.5280 c2        1 02U     -0.558000
     21 C15         6.9940   -6.0990  -13.9250 c1        1 02U      0.162000
     22 H3         -0.0290    3.2860   -1.7920 hc        1 02U      0.055333
     23 H4          2.1400   -2.7290   -2.2760 ha        1 02U      0.014000
     24 H5         -0.7700   -2.8490   -3.1850 hc        1 02U      0.185000
     25 H6         -0.0560   -1.2490   -2.7250 hc        1 02U      0.185000
     26 H7          1.8160   -1.6930   -4.4530 hc        1 02U      0.055500
     27 H8          0.8910   -3.1370   -5.0200 hc        1 02U      0.055500
     28 H9         -1.0770   -1.7280   -5.5470 hc        1 02U      0.125000
     29 H10        -0.3010   -0.2770   -4.7780 hc        1 02U      0.125000
     30 H11         1.5890   -0.4800   -6.4940 hc        1 02U      0.053500
     31 H12         0.6550   -1.7810   -7.3300 hc        1 02U      0.053500
     32 H13        -0.4800    1.0260   -6.6640 hc        1 02U      0.123500
     33 H14        -1.2460   -0.2440   -7.7160 hc        1 02U      0.123500
     34 H15         1.4540    1.1880   -8.2540 hc        1 02U      0.088000
     35 H16        -0.1430    1.6170   -9.0030 hc        1 02U      0.088000
     36 H17         2.0950   -1.5580   -9.2510 hc        1 02U      0.101500
     37 H18         2.7100    0.0020   -9.9330 hc        1 02U      0.101500
     38 H19         1.0560   -2.1070  -11.4920 hc        1 02U      0.086500
     39 H20         1.6920   -0.5590  -12.1650 hc        1 02U      0.086500
     40 H21         4.0450   -1.2820  -11.6060 hc        1 02U      0.075000
     41 H22         3.3990   -2.8300  -10.9370 hc        1 02U      0.075000
     42 H23         2.3070   -3.2340  -13.2560 hc        1 02U      0.071000
     43 H24         4.3700   -1.0580  -14.0390 hc        1 02U      0.071000
     44 H25         3.4550   -2.1350  -15.1750 hc        1 02U      0.071000
     45 H26         2.5720   -0.9070  -14.1780 hc        1 02U      0.071000
     46 H27         5.8900   -4.9290  -12.5370 ha        1 02U      0.197000
     47 H28         4.1030   -3.3860  -13.1300 hc        1 02U      0.071000
     48 H29         3.2790   -4.9240  -15.5650 ha        1 02U      0.001000
     49 H30         3.1880   -4.4220  -15.1190 ha        1 02U      0.001000
     50 H31         5.0680   -5.2300  -14.1480 ha        1 02U      0.197000
@<TRIPOS>BOND
     1    1    2 1   
     2    1    3 1   
     3    1    4 1   
     4    4    5 1   
     5    4    6 1   
     6    4   22 1   
     7    7    8 1   
     8    7   23 1   
     9    8    9 1   
    10    8   24 1   
    11    8   25 1   
    12    9   10 1   
    13    9   26 1   
    14    9   27 1   
    15   10   11 1   
    16   10   28 1   
    17   10   29 1   
    18   11   12 1   
    19   11   30 1   
    20   11   31 1   
    21   12   13 1   
    22   12   32 1   
    23   12   33 1   
    24   13   14 1   
    25   13   34 1   
    26   13   35 1   
    27   14   15 1   
    28   15   16 1   
    29   15   36 1   
    30   15   37 1   
    31   16   17 1   
    32   16   38 1   
    33   16   39 1   
    34   17   18 1   
    35   17   40 1   
    36   17   41 1   
    37   18   19 1   
    38   18   42 1   
    39   18   47 1   
    40   19   43 1   
    41   19   44 1   
    42   19   45 1   
    43   20   21 1   
    44   20   46 1   
    45   20   50 1   
    46   48   49 1   
@<TRIPOS>SUBSTRUCTURE
     1 02U         1 TEMP              0 ****  ****    0 ROOT
