@<TRIPOS>MOLECULE
02U
   50    46     1     0     0
SMALL
bcc


@<TRIPOS>ATOM
      1 C          -1.5610   -1.3040   -2.4760 c2        1 02U      0.320000
      2 O          -1.0630   -0.6260   -1.5240 o         1 02U     -0.600000
      3 OXT        -1.1440   -1.1810   -3.6670 o         1 02U     -0.600000
      4 CH3        -2.6790   -2.2860   -2.1740 c3        1 02U     -0.257000
      5 H1         -2.2520   -3.1820   -1.6660 hc        1 02U      0.055333
      6 H2         -3.1820   -2.6070   -3.1150 hc        1 02U      0.055333
      7 C1          1.8180    1.3160   -1.5190 c1        1 02U     -0.115000
      8 C2          0.9770    1.3460   -2.6710 c3        1 02U     -0.283000
      9 C3          1.7110    1.3060   -3.9940 c3        1 02U     -0.114000
     10 C4          0.7470    1.0400   -5.1300 c3        1 02U     -0.190000
     11 C5          1.4780    0.8580   -6.4430 c3        1 02U     -0.144000
     12 C6          0.5030    0.5540   -7.5650 c3        1 02U     -0.141000
     13 C7          1.1940    0.3900   -8.8660 c2        1 02U     -0.139000
     14 C8          0.8880   -0.5630   -9.7520 c2        1 02U     -0.199000
     15 C9          1.5560   -0.7070  -11.0680 c3        1 02U     -0.122000
     16 C10         1.9800   -2.1420  -11.3180 c3        1 02U     -0.156000
     17 C11         2.6510   -2.2860  -12.6670 c3        1 02U     -0.157000
     18 C12         3.1000   -3.7060  -12.9390 c3        1 02U     -0.159000
     19 C13         1.9570   -4.6170  -13.3090 c3        1 02U     -0.212000
     20 C14         5.9280   -3.8920  -15.5850 c2        1 02U     -0.558000
     21 C15         6.6240   -4.0740  -16.6710 c1        1 02U      0.163000
     22 H3          1.3340    1.6230   -0.5760 ha        1 02U      0.021000
     23 H4         -3.4280   -1.8140   -1.4970 hc        1 02U      0.055333
     24 H5          0.3480    0.3640   -2.5510 hc        1 02U      0.175000
     25 H6          0.1970    2.1550   -2.6870 hc        1 02U      0.175000
     26 H7          2.2430    2.2790   -4.1630 hc        1 02U      0.062500
     27 H8          2.4910    0.5010   -3.9600 hc        1 02U      0.062500
     28 H9          0.1400    0.1200   -4.8890 hc        1 02U      0.112000
     29 H10         0.0260    1.8950   -5.2190 hc        1 02U      0.112000
     30 H11         2.2130    0.0160   -6.3490 hc        1 02U      0.065500
     31 H12         2.0620    1.7830   -6.6890 hc        1 02U      0.065500
     32 H13        -0.2330    1.4000   -7.6540 hc        1 02U      0.095000
     33 H14        -0.0860   -0.3660   -7.3020 hc        1 02U      0.095000
     34 H15         1.9920    1.1230   -9.0710 ha        1 02U      0.109000
     35 H16         0.1000   -1.3040   -9.5410 ha        1 02U      0.124000
     36 H17         0.8420   -0.3860  -11.8750 hc        1 02U      0.075000
     37 H18         2.4530   -0.0350  -11.1350 hc        1 02U      0.075000
     38 H19         1.0830   -2.8130  -11.2670 hc        1 02U      0.084500
     39 H20         2.6840   -2.4690  -10.5080 hc        1 02U      0.084500
     40 H21         1.9470   -1.9520  -13.4740 hc        1 02U      0.074000
     41 H22         3.5450   -1.6070  -12.7060 hc        1 02U      0.074000
     42 H23         3.6250   -4.1130  -12.0340 hc        1 02U      0.072000
     43 H24         1.2120   -4.6740  -12.4780 hc        1 02U      0.072000
     44 H25         1.4330   -4.2430  -14.2220 hc        1 02U      0.072000
     45 H26         2.3350   -5.6470  -13.5150 hc        1 02U      0.072000
     46 H27         5.5520   -2.9100  -15.2540 ha        1 02U      0.196500
     47 H28         3.8480   -3.6990  -13.7780 hc        1 02U      0.072000
     48 H29         5.6490   -4.7050  -14.8920 ha        1 02U      0.196500
     49 H30         5.0530   -6.3990  -13.4600 ha        1 02U      0.001500
     50 H31         4.6100   -5.9200  -13.2770 ha        1 02U      0.001500
@<TRIPOS>BOND
     1    1    2 1   
     2    1    3 1   
     3    1    4 1   
     4    4    5 1   
     5    4    6 1   
     6    4   23 1   
     7    7    8 1   
     8    7   22 1   
     9    8    9 1   
    10    8   24 1   
    11    8   25 1   
    12    9   10 1   
    13    9   26 1   
    14    9   27 1   
    15   10   11 1   
    16   10   28 1   
    17   10   29 1   
    18   11   12 1   
    19   11   30 1   
    20   11   31 1   
    21   12   13 1   
    22   12   32 1   
    23   12   33 1   
    24   13   14 1   
    25   13   34 1   
    26   14   15 1   
    27   14   35 1   
    28   15   16 1   
    29   15   36 1   
    30   15   37 1   
    31   16   17 1   
    32   16   38 1   
    33   16   39 1   
    34   17   18 1   
    35   17   40 1   
    36   17   41 1   
    37   18   19 1   
    38   18   42 1   
    39   18   47 1   
    40   19   43 1   
    41   19   44 1   
    42   19   45 1   
    43   20   21 1   
    44   20   46 1   
    45   20   48 1   
    46   49   50 1   
@<TRIPOS>SUBSTRUCTURE
     1 02U         1 TEMP              0 ****  ****    0 ROOT
