@<TRIPOS>MOLECULE
02U
   50    47     1     0     0
SMALL
bcc


@<TRIPOS>ATOM
      1 C           7.0000   -3.3060    5.1620 c1        1 02U      0.327000
      2 O           6.9580   -4.4530    5.6790 o         1 02U     -0.588000
      3 OXT         7.6110   -2.3740    5.7460 o         1 02U     -0.588000
      4 CH3         6.3200   -3.0500    3.8340 c2        1 02U     -0.223000
      5 H1          6.7600   -2.3020    3.3820 ha        1 02U      0.058000
      6 H2          6.3830   -3.8510    3.2760 ha        1 02U      0.058000
      7 C1          4.8650   -2.7110    4.0700 c3        1 02U     -0.144000
      8 C2          4.2280   -2.2880    2.7640 c3        1 02U     -0.157000
      9 C3          2.7430   -2.0830    2.9710 c3        1 02U     -0.157000
     10 C4          2.1200   -1.5840    1.6860 c3        1 02U     -0.158000
     11 C5          0.6150   -1.5440    1.8380 c3        1 02U     -0.156000
     12 C6          0.0030   -0.8860    0.6210 c3        1 02U     -0.135000
     13 C7         -1.3720   -1.4660    0.3720 c2        1 02U     -0.155000
     14 C8         -2.2490   -0.8090   -0.4120 c1        1 02U     -0.187000
     15 C9         -1.8590    0.5090   -1.0440 c2        1 02U     -0.129000
     16 C10        -3.0520    1.0960   -1.7650 c3        1 02U     -0.155000
     17 C11        -2.6050    2.2740   -2.6040 c3        1 02U     -0.156000
     18 C12        -3.8120    2.9230   -3.2440 c3        1 02U     -0.105000
     19 C13        -4.0850    4.2520   -2.5740 c3        1 02U     -0.207000
     20 C14        -3.5430    3.1470   -4.7160 c3        1 02U     -0.157000
     21 C15        -4.8560    3.2550   -5.4580 c3        1 02U     -0.209000
     22 H3          4.4000   -3.4970    4.4200 hc        1 02U      0.083500
     23 H4          4.8010   -1.9800    4.7160 hc        1 02U      0.083500
     24 H5          4.3700   -2.9840    2.0920 hc        1 02U      0.065000
     25 H6          4.6330   -1.4520    2.4600 hc        1 02U      0.065000
     26 H7          2.6010   -1.4250    3.6800 hc        1 02U      0.076000
     27 H8          2.3290   -2.9320    3.2260 hc        1 02U      0.076000
     28 H9          2.3570   -2.1860    0.9530 hc        1 02U      0.073500
     29 H10         2.4520   -0.6850    1.4900 hc        1 02U      0.073500
     30 H11         0.3820   -1.0320    2.6380 hc        1 02U      0.078500
     31 H12         0.2720   -2.4560    1.9230 hc        1 02U      0.078500
     32 H13        -0.0730    0.0770    0.7750 hc        1 02U      0.086000
     33 H14         0.5710   -1.0480   -0.1580 hc        1 02U      0.086000
     34 H15        -1.6250   -2.3160    0.7800 ha        1 02U      0.122000
     35 H16        -3.1360   -1.1830   -0.5720 ha        1 02U      0.115000
     36 H17        -1.5610    1.1290   -0.3480 ha        1 02U      0.087000
     37 H18        -1.1320    0.3620   -1.6820 ha        1 02U      0.087000
     38 H19        -3.4500    0.4160   -2.3440 hc        1 02U      0.078500
     39 H20        -3.7140    1.3950   -1.1100 hc        1 02U      0.078500
     40 H21        -2.1490    2.9250   -2.0340 hc        1 02U      0.080500
     41 H22        -1.9930    1.9640   -3.3010 hc        1 02U      0.080500
     42 H23        -4.5890    2.3400   -3.1400 hc        1 02U      0.086000
     43 H24        -4.1500    4.1210   -1.6050 hc        1 02U      0.071667
     44 H25        -3.3550    4.8740   -2.7720 hc        1 02U      0.071667
     45 H26        -4.9290    4.6200   -2.9110 hc        1 02U      0.071667
     46 H27        -3.0330    3.9740   -4.8320 hc        1 02U      0.079000
     47 H28        -3.0280    2.3940   -5.0710 hc        1 02U      0.079000
     48 H29        -4.6980    3.1490   -6.4200 hc        1 02U      0.070333
     49 H30        -5.4660    2.5530   -5.1480 hc        1 02U      0.070333
     50 H31        -5.2560    4.1340   -5.2880 hc        1 02U      0.070333
@<TRIPOS>BOND
     1    1    2 1   
     2    1    3 1   
     3    4    5 1   
     4    4    6 1   
     5    4    7 1   
     6    7    8 1   
     7    7   22 1   
     8    7   23 1   
     9    8    9 1   
    10    8   24 1   
    11    8   25 1   
    12    9   10 1   
    13    9   26 1   
    14    9   27 1   
    15   10   11 1   
    16   10   28 1   
    17   10   29 1   
    18   11   12 1   
    19   11   30 1   
    20   11   31 1   
    21   12   13 1   
    22   12   32 1   
    23   12   33 1   
    24   13   14 1   
    25   13   34 1   
    26   14   35 1   
    27   15   16 1   
    28   15   36 1   
    29   15   37 1   
    30   16   17 1   
    31   16   38 1   
    32   16   39 1   
    33   17   18 1   
    34   17   40 1   
    35   17   41 1   
    36   18   19 1   
    37   18   20 1   
    38   18   42 1   
    39   19   43 1   
    40   19   44 1   
    41   19   45 1   
    42   20   21 1   
    43   20   46 1   
    44   20   47 1   
    45   21   48 1   
    46   21   49 1   
    47   21   50 1   
@<TRIPOS>SUBSTRUCTURE
     1 02U         1 TEMP              0 ****  ****    0 ROOT
