@<TRIPOS>MOLECULE
02V
   24    22     1     0     0
SMALL
bcc


@<TRIPOS>ATOM
      1 N          -1.8010    0.0760   -1.3820 n3        1 02V     -0.276000
      2 C1         -2.2360    0.6880   -2.6690 c3        1 02V     -0.142000
      3 CA         -0.3800   -0.0580   -1.3700 c3        1 02V     -0.094000
      4 C19         0.1100   -0.0540    0.0440 c2        1 02V     -0.010000
      5 C20        -0.4150   -0.9580    0.9730 c2        1 02V     -0.111000
      6 C21         1.1200    0.8460    0.4380 c1        1 02V     -0.165000
      7 C22         0.0650   -0.9630    2.2780 c1        1 02V     -0.145000
      8 C23         1.5920    0.8340    1.7410 c1        1 02V      0.000500
      9 C24         1.0720   -0.0630    2.6600 c1        1 02V      0.000500
     10 C           0.0090   -1.3590   -2.0320 c2        1 02V      0.315000
     11 O           1.0810   -1.4410   -2.6600 o         1 02V     -0.566000
     12 O2          2.6010    1.8100    2.1640 oh        1 02V     -0.280500
     13 H17        -2.2710    0.0110   -3.3530 h1        1 02V      0.066333
     14 H17A       -3.0940    1.0690   -2.5600 h1        1 02V      0.066333
     15 H17B       -1.5930    1.3940   -2.9360 h1        1 02V      0.066333
     16 H18         0.0330    0.7090   -1.8680 h1        1 02V      0.092000
     17 H20        -1.1230   -1.5920    0.7030 ha        1 02V      0.188000
     18 H21         1.5020    1.5020   -0.2300 ha        1 02V      0.130000
     19 HO81        3.3820    1.6460    1.7310 ho        1 02V      0.217500
     20 H2         -2.0480    0.5820   -0.7260 hn        1 02V      0.141000
     21 H1         -0.2900   -1.5780    2.9170 ha        1 02V      0.135000
     22 OXT        -0.8230   -2.3690   -2.0280 o         1 02V     -0.566000
     23 O1          1.4910   -0.0400    4.0110 oh        1 02V     -0.280500
     24 H3          2.0160   -0.6930    4.1550 ho        1 02V      0.217500
@<TRIPOS>BOND
     1    1    2 1   
     2    1    3 1   
     3    1   20 1   
     4    2   13 1   
     5    2   14 1   
     6    2   15 1   
     7    3    4 1   
     8    3   10 1   
     9    3   16 1   
    10    4    5 1   
    11    4    6 1   
    12    5    7 1   
    13    5   17 1   
    14    6   18 1   
    15    7   21 1   
    16    8    9 1   
    17    8   12 1   
    18    9   23 1   
    19   10   11 1   
    20   10   22 1   
    21   12   19 1   
    22   23   24 1   
@<TRIPOS>SUBSTRUCTURE
     1 02V         1 TEMP              0 ****  ****    0 ROOT
