@<TRIPOS>MOLECULE
02V
   24    24     1     0     0
SMALL
bcc


@<TRIPOS>ATOM
      1 N          -2.2710   -0.7150    1.6550 n3        1 02V     -0.796200
      2 C1         -2.3550   -1.8950    0.8280 c3        1 02V      0.134100
      3 CA         -1.5870    0.4230    1.0340 c3        1 02V      0.060800
      4 C19        -0.2350    0.0740    0.4740 ca        1 02V     -0.014300
      5 C20        -0.1110   -0.4020   -0.8410 ca        1 02V     -0.115000
      6 C21         0.9070    0.2530    1.2590 ca        1 02V     -0.129000
      7 C22         1.1390   -0.6950   -1.3740 ca        1 02V     -0.178000
      8 C23         2.1710   -0.0380    0.7270 ca        1 02V      0.086100
      9 C24         2.2850   -0.5150   -0.5900 ca        1 02V      0.001100
     10 C          -2.4490    1.1600   -0.0540 c         1 02V      0.894600
     11 O          -2.9860    0.4680   -0.9660 o         1 02V     -0.832300
     12 O2          3.2680    0.1440    1.5460 oh        1 02V     -0.512100
     13 H17        -2.8170   -1.7050   -0.1810 h1        1 02V      0.026367
     14 H17A       -1.3220   -2.3010    0.6700 h1        1 02V      0.026367
     15 H17B       -2.9640   -2.6660    1.3700 h1        1 02V      0.026367
     16 H18        -1.4350    1.1660    1.8750 h1        1 02V      0.057700
     17 H20        -1.0310   -0.5140   -1.4460 ha        1 02V      0.189000
     18 H21         0.8310    0.6220    2.2910 ha        1 02V      0.147000
     19 HO81        4.0570   -0.0110    1.0080 ho        1 02V      0.419000
     20 H2         -3.2080   -0.4040    1.8590 hn        1 02V      0.345800
     21 H1          1.2340   -1.0590   -2.4060 ha        1 02V      0.118000
     22 OXT        -2.5780    2.4060    0.0730 o         1 02V     -0.832300
     23 O1          3.5630   -0.8050   -1.0450 oh        1 02V     -0.536100
     24 H3          3.5190   -0.8190   -2.0100 ho        1 02V      0.412000
@<TRIPOS>BOND
     1    1    2 1   
     2    1    3 1   
     3    1   20 1   
     4    2   13 1   
     5    2   14 1   
     6    2   15 1   
     7    3    4 1   
     8    3   10 1   
     9    3   16 1   
    10    4    5 ar  
    11    4    6 ar  
    12    5    7 ar  
    13    5   17 1   
    14    6    8 ar  
    15    6   18 1   
    16    7    9 ar  
    17    7   21 1   
    18    8    9 ar  
    19    8   12 1   
    20    9   23 1   
    21   10   11 1   
    22   10   22 1   
    23   12   19 1   
    24   23   24 1   
@<TRIPOS>SUBSTRUCTURE
     1 02V         1 TEMP              0 ****  ****    0 ROOT
