@<TRIPOS>MOLECULE
02W
   27    28     1     0     0
SMALL
bcc


@<TRIPOS>ATOM
      1 C1         -0.0430    0.0640    0.0020 c3        1 02W      0.049300
      2 C2          1.5100   -0.0380   -0.1010 c3        1 02W      0.038800
      3 N1          2.1580   -0.1310    1.2350 nz        1 02W     -0.830600
      4 C14        -1.1190   -0.6140   -3.4040 ca        1 02W      0.076400
      5 C15        -1.3770   -1.5220   -4.4360 ca        1 02W     -0.050000
      6 C16        -1.3420   -2.8810   -4.1350 ca        1 02W     -0.134000
      7 C17        -1.0670   -3.3440   -2.8410 ca        1 02W     -0.093000
      8 C18        -0.8120   -2.4690   -1.7880 ca        1 02W     -0.149000
      9 C19        -0.8330   -1.1040   -2.0710 ca        1 02W     -0.092200
     10 N3         -1.0950    0.8020   -3.4040 nc        1 02W     -0.511100
     11 N4         -0.6840    0.0450   -1.2580 na        1 02W     -0.192300
     12 C20        -0.8120    1.1740   -2.1520 cd        1 02W      0.414800
     13 C21        -0.7150    2.5710   -1.6500 c3        1 02W     -0.120400
     14 H1         -0.4240   -0.8080    0.6090 h1        1 02W      0.078700
     15 H1A        -0.3080    1.0280    0.5260 h1        1 02W      0.078700
     16 H2          1.7940   -0.9570   -0.6920 hx        1 02W      0.123200
     17 H2A         1.9190    0.8720   -0.6260 hx        1 02W      0.123200
     18 HN1         1.8250   -0.9630    1.7340 hn        1 02W      0.462800
     19 H17        -1.0620   -4.4290   -2.6500 ha        1 02W      0.148000
     20 H18        -0.6250   -2.8470   -0.7750 ha        1 02W      0.125000
     21 H21        -0.8280    3.2940   -2.4980 hc        1 02W      0.068367
     22 H21A       -1.5270    2.7670   -0.9060 hc        1 02W      0.068367
     23 H21B        0.2780    2.7410   -1.1660 hc        1 02W      0.068367
     24 H3          1.9350    0.6980    1.7970 hn        1 02W      0.462800
     25 H15        -1.6080   -1.1650   -5.4510 ha        1 02W      0.168000
     26 H13         3.1760   -0.1950    1.1250 hn        1 02W      0.462800
     27 H16        -1.5420   -3.6130   -4.9340 ha        1 02W      0.155000
@<TRIPOS>BOND
     1    1    2 1   
     2    1   11 1   
     3    1   14 1   
     4    1   15 1   
     5    2    3 1   
     6    2   16 1   
     7    2   17 1   
     8    3   18 1   
     9    3   24 1   
    10    3   26 1   
    11    4    5 ar  
    12    4    9 ar  
    13    4   10 1   
    14    5    6 ar  
    15    5   25 1   
    16    6    7 ar  
    17    6   27 1   
    18    7    8 ar  
    19    7   19 1   
    20    8    9 ar  
    21    8   20 1   
    22    9   11 1   
    23   10   12 2   
    24   11   12 1   
    25   12   13 1   
    26   13   21 1   
    27   13   22 1   
    28   13   23 1   
@<TRIPOS>SUBSTRUCTURE
     1 02W         1 TEMP              0 ****  ****    0 ROOT
