@<TRIPOS>MOLECULE
02W
   27    28     1     0     0
SMALL
bcc


@<TRIPOS>ATOM
      1 C1         -0.0520    0.0690    0.0010 c3        1 02W      0.049300
      2 C2          1.5000   -0.0400   -0.0890 c3        1 02W      0.038800
      3 N1          2.1380   -0.1300    1.2520 n4        1 02W     -0.830600
      4 C14        -1.1040   -0.6170   -3.4110 ca        1 02W      0.076400
      5 C15        -1.3580   -1.5280   -4.4420 ca        1 02W     -0.050000
      6 C16        -1.3300   -2.8850   -4.1360 ca        1 02W     -0.134000
      7 C17        -1.0680   -3.3450   -2.8380 ca        1 02W     -0.093000
      8 C18        -0.8180   -2.4680   -1.7860 ca        1 02W     -0.149000
      9 C19        -0.8320   -1.1030   -2.0740 ca        1 02W     -0.092200
     10 N3         -1.0750    0.7990   -3.4150 nc        1 02W     -0.511100
     11 N4         -0.6840    0.0480   -1.2640 na        1 02W     -0.192300
     12 C20        -0.8010    1.1740   -2.1620 cd        1 02W      0.414800
     13 C21        -0.7020    2.5720   -1.6650 c3        1 02W     -0.120400
     14 H1         -0.4420   -0.8000    0.6080 h1        1 02W      0.078700
     15 H1A        -0.3180    1.0360    0.5200 h1        1 02W      0.078700
     16 H2          1.7860   -0.9620   -0.6760 hx        1 02W      0.123200
     17 H2A         1.9170    0.8680   -0.6150 hx        1 02W      0.123200
     18 HN1         1.7970   -0.9590    1.7500 hn        1 02W      0.462800
     19 H17        -1.0680   -4.4300   -2.6440 ha        1 02W      0.148000
     20 H18        -0.6410   -2.8420   -0.7700 ha        1 02W      0.125000
     21 H21        -0.8060    3.2930   -2.5160 hc        1 02W      0.068367
     22 H21A       -1.5200    2.7750   -0.9280 hc        1 02W      0.068367
     23 H21B        0.2870    2.7410   -1.1730 hc        1 02W      0.068367
     24 H3          1.9140    0.7010    1.8090 hn        1 02W      0.462800
     25 H15        -1.5790   -1.1730   -5.4600 ha        1 02W      0.168000
     26 H13         3.1570   -0.1980    1.1500 hn        1 02W      0.462800
     27 H16        -1.5270   -3.6200   -4.9340 ha        1 02W      0.155000
@<TRIPOS>BOND
     1    1    2 1   
     2    1   11 1   
     3    1   14 1   
     4    1   15 1   
     5    2    3 1   
     6    2   16 1   
     7    2   17 1   
     8    3   18 1   
     9    3   24 1   
    10    3   26 1   
    11    4    5 ar  
    12    4    9 ar  
    13    4   10 1   
    14    5    6 ar  
    15    5   25 1   
    16    6    7 ar  
    17    6   27 1   
    18    7    8 ar  
    19    7   19 1   
    20    8    9 ar  
    21    8   20 1   
    22    9   11 1   
    23   10   12 2   
    24   11   12 1   
    25   12   13 1   
    26   13   21 1   
    27   13   22 1   
    28   13   23 1   
@<TRIPOS>SUBSTRUCTURE
     1 02W         1 TEMP              0 ****  ****    0 ROOT
