@<TRIPOS>MOLECULE
02W
   26    21     1     0     0
SMALL
bcc


@<TRIPOS>ATOM
      1 C1          1.0740   -0.0950    1.3130 c3        1 02W     -0.015000
      2 C2          0.1910   -0.2230    2.5350 c3        1 02W     -0.103000
      3 N1          0.9960   -0.5090    3.6760 n3        1 02W     -0.350000
      4 C14        -0.5920    0.3180   -1.8380 c1        1 02W     -0.048500
      5 C15        -1.1420   -0.2010   -3.0260 c1        1 02W     -0.118250
      6 C16        -1.3010   -1.5690   -3.1770 c1        1 02W     -0.118250
      7 C17        -0.9190   -2.4270   -2.1580 c1        1 02W     -0.118250
      8 C18        -0.3780   -1.9170   -0.9890 c1        1 02W     -0.118250
      9 C19        -0.2160   -0.5270   -0.8350 c1        1 02W     -0.048500
     10 N3         -0.3320    1.5860   -1.4360 n1        1 02W     -0.139000
     11 N4          0.2750    0.2240    0.1810 n2        1 02W     -0.198000
     12 C20         0.2040    1.5300   -0.1880 c1        1 02W      0.018000
     13 C21         0.5020    2.9990    0.0120 c2        1 02W     -0.158000
     14 H1          1.7320    0.6160    1.4590 h1        1 02W      0.106500
     15 H1A         1.5390   -0.9430    1.1560 h1        1 02W      0.106500
     16 H2         -0.4510   -0.9500    2.3980 h1        1 02W      0.077000
     17 H2A        -0.2930    0.6170    2.6780 h1        1 02W      0.077000
     18 HN1         0.6660   -1.2470    4.1060 hn        1 02W      0.150000
     19 H15        -1.4120    0.4040   -3.7440 ha        1 02W      0.136750
     20 H16        -1.6820   -1.9290   -4.0000 ha        1 02W      0.136750
     21 H17        -1.0310   -3.3910   -2.2640 ha        1 02W      0.136750
     22 H18        -0.1080   -2.5220   -0.2710 ha        1 02W      0.136750
     23 H21         1.1100    3.3080   -0.6910 ha        1 02W      0.100333
     24 H21A       -0.3340    3.5110   -0.0300 ha        1 02W      0.100333
     25 H21B        0.9210    3.1310    0.8880 ha        1 02W      0.100333
     26 H3          0.9820    0.2080    4.2460 hn        1 02W      0.150000
@<TRIPOS>BOND
     1    1    2 1   
     2    1   11 1   
     3    1   14 1   
     4    1   15 1   
     5    2    3 1   
     6    2   16 1   
     7    2   17 1   
     8    3   18 1   
     9    3   26 1   
    10    4    9 1   
    11    5    6 1   
    12    5   19 1   
    13    6   20 1   
    14    7    8 1   
    15    7   21 1   
    16    8   22 1   
    17   10   12 1   
    18   11   12 1   
    19   13   23 1   
    20   13   24 1   
    21   13   25 1   
@<TRIPOS>SUBSTRUCTURE
     1 02W         1 TEMP              0 ****  ****    0 ROOT
