@<TRIPOS>MOLECULE
02W
   27    28     1     0     0
SMALL
bcc


@<TRIPOS>ATOM
      1 C1         -0.0360    0.0630    0.0010 c3        1 02W      0.049300
      2 C2          1.5160   -0.0370   -0.1080 c3        1 02W      0.038800
      3 N1          2.1710   -0.1300    1.2250 n4        1 02W     -0.830600
      4 C14        -1.1280   -0.6140   -3.4000 ca        1 02W      0.076400
      5 C15        -1.3910   -1.5220   -4.4310 ca        1 02W     -0.050000
      6 C16        -1.3520   -2.8800   -4.1310 ca        1 02W     -0.134000
      7 C17        -1.0710   -3.3450   -2.8390 ca        1 02W     -0.093000
      8 C18        -0.8100   -2.4700   -1.7870 ca        1 02W     -0.149000
      9 C19        -0.8350   -1.1040   -2.0680 ca        1 02W     -0.092200
     10 N3         -1.1070    0.8020   -3.3980 nc        1 02W     -0.511100
     11 N4         -0.6830    0.0440   -1.2560 na        1 02W     -0.192300
     12 C20        -0.8170    1.1730   -2.1470 cd        1 02W      0.414800
     13 C21        -0.7190    2.5700   -1.6460 c3        1 02W     -0.120400
     14 H1         -0.4130   -0.8100    0.6100 h1        1 02W      0.078700
     15 H1A        -0.3010    1.0260    0.5280 h1        1 02W      0.078700
     16 H2          1.7990   -0.9550   -0.7020 hx        1 02W      0.123200
     17 H2A         1.9220    0.8750   -0.6340 hx        1 02W      0.123200
     18 HN1         1.9480    0.6970    1.7890 hn        1 02W      0.462800
     19 H17        -1.0620   -4.4300   -2.6490 ha        1 02W      0.148000
     20 H18        -0.6180   -2.8480   -0.7750 ha        1 02W      0.125000
     21 H21        -1.5280    2.7650   -0.8970 hc        1 02W      0.068367
     22 H21A        0.2760    2.7410   -1.1660 hc        1 02W      0.068367
     23 H21B       -0.8380    3.2940   -2.4920 hc        1 02W      0.068367
     24 H3          1.8410   -0.9630    1.7240 hn        1 02W      0.462800
     25 H15        -1.6280   -1.1650   -5.4450 ha        1 02W      0.168000
     26 H13         3.1880   -0.1920    1.1110 hn        1 02W      0.462800
     27 H16        -1.5560   -3.6130   -4.9290 ha        1 02W      0.155000
@<TRIPOS>BOND
     1    1    2 1   
     2    1   11 1   
     3    1   14 1   
     4    1   15 1   
     5    2    3 1   
     6    2   16 1   
     7    2   17 1   
     8    3   18 1   
     9    3   24 1   
    10    3   26 1   
    11    4    5 ar  
    12    4    9 ar  
    13    4   10 1   
    14    5    6 ar  
    15    5   25 1   
    16    6    7 ar  
    17    6   27 1   
    18    7    8 ar  
    19    7   19 1   
    20    8    9 ar  
    21    8   20 1   
    22    9   11 1   
    23   10   12 2   
    24   11   12 1   
    25   12   13 1   
    26   13   21 1   
    27   13   22 1   
    28   13   23 1   
@<TRIPOS>SUBSTRUCTURE
     1 02W         1 TEMP              0 ****  ****    0 ROOT
