@<TRIPOS>MOLECULE
02W
   26    27     1     0     0
SMALL
bcc


@<TRIPOS>ATOM
      1 C1          1.8680    0.4460   -0.6390 c3        1 02W      0.044300
      2 C2          2.5570    0.9340    0.6600 c3        1 02W      0.133800
      3 N1          3.7550    1.6830    0.3710 n3        1 02W     -0.917800
      4 C14        -1.5030   -0.7870    0.1330 ca        1 02W      0.067400
      5 C15        -2.8630   -0.5340    0.3540 ca        1 02W     -0.071000
      6 C16        -3.3200    0.7680    0.2160 ca        1 02W     -0.154000
      7 C17        -2.4600    1.8220   -0.1400 ca        1 02W     -0.115000
      8 C18        -1.1070    1.6140   -0.3710 ca        1 02W     -0.133000
      9 C19        -0.6230    0.3080   -0.2360 ca        1 02W     -0.070200
     10 N3         -0.7610   -1.9840    0.1950 nc        1 02W     -0.566100
     11 N4          0.6460   -0.2610   -0.4180 na        1 02W     -0.172300
     12 C20         0.5070   -1.6470   -0.1160 cd        1 02W      0.419800
     13 C21         1.6600   -2.5830   -0.1900 c3        1 02W     -0.115400
     14 H1          1.6430    1.3380   -1.2920 h1        1 02W      0.067200
     15 H1A         2.5690   -0.2390   -1.1970 h1        1 02W      0.067200
     16 H2          1.8490    1.6140    1.2150 h1        1 02W      0.037700
     17 H2A         2.7480    0.0370    1.3210 h1        1 02W      0.037700
     18 HN1         4.1330    2.0740    1.2100 hn        1 02W      0.354800
     19 H16        -4.3840    0.9880    0.3880 ha        1 02W      0.132000
     20 H17        -2.8720    2.8370   -0.2360 ha        1 02W      0.131000
     21 H18        -0.4410    2.4410   -0.6510 ha        1 02W      0.137000
     22 H21         2.4870   -2.2270    0.4730 hc        1 02W      0.061033
     23 H21A        1.3510   -3.6070    0.1380 hc        1 02W      0.061033
     24 H21B        2.0360   -2.6410   -1.2420 hc        1 02W      0.061033
     25 H3          4.4450    1.1080   -0.0700 hn        1 02W      0.354800
     26 H15        -3.5430   -1.3530    0.6290 ha        1 02W      0.147000
@<TRIPOS>BOND
     1    1    2 1   
     2    1   11 1   
     3    1   14 1   
     4    1   15 1   
     5    2    3 1   
     6    2   16 1   
     7    2   17 1   
     8    3   18 1   
     9    3   25 1   
    10    4    5 ar  
    11    4    9 ar  
    12    4   10 1   
    13    5    6 ar  
    14    5   26 1   
    15    6    7 ar  
    16    6   19 1   
    17    7    8 ar  
    18    7   20 1   
    19    8    9 ar  
    20    8   21 1   
    21    9   11 1   
    22   10   12 2   
    23   11   12 1   
    24   12   13 1   
    25   13   22 1   
    26   13   23 1   
    27   13   24 1   
@<TRIPOS>SUBSTRUCTURE
     1 02W         1 TEMP              0 ****  ****    0 ROOT
