@<TRIPOS>MOLECULE
02X
   21    20     1     0     0
SMALL
bcc


@<TRIPOS>ATOM
      1 C3          1.5360   -0.7060    0.0660 c2        1 02X      0.431000
      2 O1          2.7420   -0.5320   -0.2190 o         1 02X     -0.561000
      3 C4         -1.8030   -0.2480    1.9370 c3        1 02X     -0.175000
      4 C5         -0.3580   -0.1790    2.3760 c3        1 02X     -0.170000
      5 C6         -0.2770    0.1480    3.9150 c3        1 02X      0.111000
      6 C7          0.3230   -1.4780    2.0500 c2        1 02X      0.353000
      7 O2          1.3920   -1.5450    1.2020 os        1 02X     -0.370000
      8 C8          1.2020    0.3090    4.2510 c3        1 02X     -0.190000
      9 C9         -1.0490    1.2840    4.3320 c2        1 02X     -0.880000
     10 H4         -1.8680   -0.3040    0.8230 hc        1 02X      0.057000
     11 H4A         0.1550    0.6470    1.8150 hc        1 02X      0.099000
     12 H5         -2.3020   -1.1470    2.3730 hc        1 02X      0.057000
     13 H6         -2.3320    0.6670    2.2990 hc        1 02X      0.057000
     14 H8          1.6060    1.2410    3.7880 hc        1 02X      0.033333
     15 H8A        -0.6510   -0.7950    4.4150 hc        1 02X      0.014000
     16 H8B         1.8000   -0.5580    3.8780 hc        1 02X      0.033333
     17 H9         -2.0930    1.1690    4.6040 ha        1 02X      0.035500
     18 H9A         1.3310    0.3850    5.3570 hc        1 02X      0.033333
     19 H9B        -0.6680    2.2910    4.2090 ha        1 02X      0.035500
     20 OXT         0.4820   -0.3620   -0.5130 o         1 02X     -0.561000
     21 O3          0.0740   -2.5890    2.5570 o         1 02X     -0.446000
@<TRIPOS>BOND
     1    1    2 1   
     2    1    7 1   
     3    1   20 1   
     4    3    4 1   
     5    3   10 1   
     6    3   12 1   
     7    3   13 1   
     8    4    5 1   
     9    4    6 1   
    10    4   11 1   
    11    5    8 1   
    12    5    9 1   
    13    5   15 1   
    14    6    7 1   
    15    6   21 1   
    16    8   14 1   
    17    8   16 1   
    18    8   18 1   
    19    9   17 1   
    20    9   19 1   
@<TRIPOS>SUBSTRUCTURE
     1 02X         1 TEMP              0 ****  ****    0 ROOT
