@<TRIPOS>MOLECULE
02X
   21    19     1     0     0
SMALL
bcc


@<TRIPOS>ATOM
      1 C3        -19.6310   73.9140 -168.3100 c         1 02X      0.901600
      2 O1        -18.9200   74.9010 -168.6610 o         1 02X     -0.861300
      3 C4        -19.4270   73.3320 -166.9120 c3        1 02X     -0.200100
      4 C5         10.1410  -36.9440   87.8890 c3        1 02X     -0.181500
      5 C6          8.9160  -37.2910   87.1270 c2        1 02X     -0.084200
      6 C7         10.0430  -37.5070   89.3390 c         1 02X      0.920600
      7 O2          8.9930  -37.2730   90.0000 o         1 02X     -0.841800
      8 C8         10.3140  -35.4420   87.9650 c3        1 02X     -0.058100
      9 C9          8.9050  -37.7870   85.8900 c2        1 02X     -0.307000
     10 H4        -19.0810   72.2760 -166.9950 hc        1 02X      0.006700
     11 H4A       -18.6690   73.9210 -166.3470 hc        1 02X      0.006700
     12 H5        -20.3920   73.3470 -166.3550 hc        1 02X      0.006700
     13 H6          7.9820  -37.1240   87.6930 ha        1 02X      0.131000
     14 H8         11.0480  -37.3960   87.4030 hc        1 02X      0.040700
     15 H8A         9.4550  -34.9870   88.5160 hc        1 02X      0.017033
     16 H8B        11.2550  -35.2000   88.5150 hc        1 02X      0.017033
     17 H9         10.3690  -34.9900   86.9450 hc        1 02X      0.017033
     18 H9A         7.9750  -38.0490   85.3720 ha        1 02X      0.085500
     19 H9B         9.8210  -37.9770   85.3190 ha        1 02X      0.085500
     20 OXT       -20.5030   73.3800 -169.0580 o         1 02X     -0.861300
     21 O3         11.0330  -38.1570   89.7730 o         1 02X     -0.841800
@<TRIPOS>BOND
     1    1    2 1   
     2    1    3 1   
     3    1   20 1   
     4    3   10 1   
     5    3   11 1   
     6    3   12 1   
     7    4    5 1   
     8    4    6 1   
     9    4    8 1   
    10    4   14 1   
    11    5    9 2   
    12    5   13 1   
    13    6    7 1   
    14    6   21 1   
    15    8   15 1   
    16    8   16 1   
    17    8   17 1   
    18    9   18 1   
    19    9   19 1   
@<TRIPOS>SUBSTRUCTURE
     1 02X         1 TEMP              0 ****  ****    0 ROOT
