@<TRIPOS>MOLECULE
02X
   21    19     1     0     0
SMALL
bcc


@<TRIPOS>ATOM
      1 C3          1.7500   -1.1780   -1.8360 c1        1 02X      0.316000
      2 O1          1.2330   -1.1960   -2.9840 o         1 02X     -0.623500
      3 C4          0.8670   -1.2260   -0.6090 c2        1 02X     -0.181000
      4 C5          0.1570    0.1000   -0.4460 c3        1 02X     -0.136000
      5 C6         -0.5310    0.1420    0.9010 c3        1 02X     -0.084000
      6 C7          1.1640    1.2250   -0.5340 c2        1 02X      0.322000
      7 O2          1.0190    2.1350   -1.3920 o         1 02X     -0.617000
      8 C8         -1.0470    1.5400    1.1610 c3        1 02X     -0.207500
      9 C9         -1.6880   -0.8320    0.9070 c3        1 02X     -0.207500
     10 H4          0.2050   -1.9400   -0.7110 ha        1 02X      0.064000
     11 H4A         1.4160   -1.4010    0.1810 ha        1 02X      0.064000
     12 H5         -0.5080    0.2020   -1.1540 hc        1 02X      0.094000
     13 H6          0.1060   -0.1050    1.5990 hc        1 02X      0.080000
     14 H8         -0.2970    2.1260    1.3960 hc        1 02X      0.059667
     15 H8A        -1.6900    1.5190    1.9000 hc        1 02X      0.059667
     16 H8B        -1.4870    1.8810    0.3540 hc        1 02X      0.059667
     17 H9         -2.2810   -0.6310    1.6620 hc        1 02X      0.059667
     18 H9A        -2.1890   -0.7500    0.0680 hc        1 02X      0.059667
     19 H9B        -1.3460   -1.7460    0.9950 hc        1 02X      0.059667
     20 OXT         3.0010   -1.1190   -1.7100 o         1 02X     -0.623500
     21 O3          2.1470    1.2530    0.2520 o         1 02X     -0.617000
@<TRIPOS>BOND
     1    1    2 1   
     2    1   20 1   
     3    3    4 1   
     4    3   10 1   
     5    3   11 1   
     6    4    5 1   
     7    4    6 1   
     8    4   12 1   
     9    5    8 1   
    10    5    9 1   
    11    5   13 1   
    12    6    7 1   
    13    6   21 1   
    14    8   14 1   
    15    8   15 1   
    16    8   16 1   
    17    9   17 1   
    18    9   18 1   
    19    9   19 1   
@<TRIPOS>SUBSTRUCTURE
     1 02X         1 TEMP              0 ****  ****    0 ROOT
