@<TRIPOS>MOLECULE
02X
   21    20     1     0     0
SMALL
bcc


@<TRIPOS>ATOM
      1 C3         -1.5530   -1.3680    0.4460 c         1 02X      0.896600
      2 O1         -1.6210   -1.2040    1.7030 o         1 02X     -0.888800
      3 C4         -0.8830   -0.3200   -0.4460 c3        1 02X     -0.152400
      4 C5          0.4820    0.1560    0.0130 c3        1 02X     -0.146700
      5 C6          1.5890   -0.8660   -0.2630 c3        1 02X     -0.044700
      6 C7          0.8600    1.4780   -0.6940 c         1 02X      0.902600
      7 O2          0.8860    1.5350   -1.9620 o         1 02X     -0.882300
      8 C8          2.8940   -0.4000    0.3560 c3        1 02X     -0.089600
      9 C9          1.2350   -2.2430    0.2540 c3        1 02X     -0.089600
     10 H4         -0.8040   -0.7230   -1.4880 hc        1 02X      0.024700
     11 H4A        -1.5680    0.5670   -0.4790 hc        1 02X      0.024700
     12 H5          0.4340    0.3450    1.1200 hc        1 02X      0.054700
     13 H6          1.7250   -0.9170   -1.3800 hc        1 02X      0.040700
     14 H8          2.8370   -0.4510    1.4700 hc        1 02X      0.020367
     15 H8A         3.7430   -1.0440    0.0190 hc        1 02X      0.020367
     16 H8B         3.0950    0.6590    0.0610 hc        1 02X      0.020367
     17 H9          0.3950   -2.6760   -0.3450 hc        1 02X      0.020367
     18 H9A         2.1180   -2.9270    0.1940 hc        1 02X      0.020367
     19 H9B         0.8900   -2.1820    1.3150 hc        1 02X      0.020367
     20 OXT        -2.0770   -2.3860   -0.1140 o         1 02X     -0.888800
     21 O3          1.1720    2.4820    0.0200 o         1 02X     -0.882300
@<TRIPOS>BOND
     1    1    2 1   
     2    1    3 1   
     3    1   20 1   
     4    3    4 1   
     5    3   10 1   
     6    3   11 1   
     7    4    5 1   
     8    4    6 1   
     9    4   12 1   
    10    5    8 1   
    11    5    9 1   
    12    5   13 1   
    13    6    7 1   
    14    6   21 1   
    15    8   14 1   
    16    8   15 1   
    17    8   16 1   
    18    9   17 1   
    19    9   18 1   
    20    9   19 1   
@<TRIPOS>SUBSTRUCTURE
     1 02X         1 TEMP              0 ****  ****    0 ROOT
