@<TRIPOS>MOLECULE
02X
   21    20     1     0     0
SMALL
bcc


@<TRIPOS>ATOM
      1 C3       -126.5010  456.9410 -893.9630 c         1 02X      0.901600
      2 O1       -126.0010  458.1040 -893.9910 o         1 02X     -0.861300
      3 C4       -125.7240  455.8380 -893.2450 c3        1 02X     -0.200100
      4 C5         62.7240 -228.5330  451.2630 cv        1 02X     -0.633400
      5 C6         62.6310 -228.8260  449.8560 c3        1 02X      0.102800
      6 C7         63.0960 -229.2280  452.4300 cv        1 02X      0.444100
      7 O2         63.5050 -230.2790  452.9410 o         1 02X     -0.484000
      8 C8         62.4230 -227.3280  452.1070 cy        1 02X      0.217600
      9 C9         63.6660 -228.1070  449.0100 c3        1 02X     -0.089100
     10 H4       -125.3250  456.2190 -892.2770 hc        1 02X      0.007033
     11 H4A      -126.3790  454.9580 -893.0540 hc        1 02X      0.007033
     12 H5       -124.8660  455.5200 -893.8830 hc        1 02X      0.007033
     13 H6         62.7450 -229.9330  449.6940 hc        1 02X     -0.008300
     14 H8         63.0840 -226.4400  451.9920 h1        1 02X     -0.010300
     15 H8A        61.6120 -228.5420  449.4580 hc        1 02X     -0.008300
     16 H8B        61.3590 -227.0170  452.1980 h1        1 02X     -0.010300
     17 H9         63.5750 -227.0030  449.1410 hc        1 02X      0.003367
     18 H9A        64.6950 -228.4100  449.3180 hc        1 02X      0.003367
     19 H9B        63.5340 -228.3480  447.9270 hc        1 02X      0.003367
     20 OXT      -127.6070  456.6440 -894.5030 o         1 02X     -0.861300
     21 O3         62.8220 -228.0940  453.3000 os        1 02X     -0.530900
@<TRIPOS>BOND
     1    1    2 1   
     2    1    3 1   
     3    1   20 1   
     4    3   10 1   
     5    3   11 1   
     6    3   12 1   
     7    4    5 1   
     8    4    6 2   
     9    4    8 1   
    10    5    9 1   
    11    5   13 1   
    12    5   15 1   
    13    6    7 1   
    14    6   21 1   
    15    8   14 1   
    16    8   16 1   
    17    8   21 1   
    18    9   17 1   
    19    9   18 1   
    20    9   19 1   
@<TRIPOS>SUBSTRUCTURE
     1 02X         1 TEMP              0 ****  ****    0 ROOT
