@<TRIPOS>MOLECULE
02Y
   21    20     1     0     0
SMALL
bcc


@<TRIPOS>ATOM
      1 N          -2.4000   -0.5640   -1.6450 n3        1 02Y     -0.895800
      2 CA         -0.9830   -0.6790   -1.6050 c3        1 02Y      0.141500
      3 C2         -0.5160   -0.6590   -0.1670 c3        1 02Y     -0.071400
      4 C3          0.3400    0.5660    0.0680 c3        1 02Y     -0.172400
      5 C4          0.8290    0.5720    1.5000 c         1 02Y      0.635100
      6 O          -1.0410   -3.0700   -1.8390 o         1 02Y     -0.605300
      7 O2          0.5200   -0.3310    2.2510 o         1 02Y     -0.560100
      8 C6          1.7010    1.7040    1.9960 c3        1 02Y     -0.203900
      9 H          -2.7040   -0.8170   -2.4710 hn        1 02Y      0.367800
     10 HA         -0.5810    0.0690   -2.0880 h1        1 02Y      0.096700
     11 HB1        -1.2930   -0.6330    0.4270 hc        1 02Y      0.068700
     12 HB2         0.0080   -1.4640    0.0170 hc        1 02Y      0.068700
     13 H8          1.1080    0.5480   -0.5390 hc        1 02Y      0.078700
     14 H9         -0.1890    1.3710   -0.1000 hc        1 02Y      0.078700
     15 N2          2.0740    1.4590    3.3460 n1        1 02Y      0.010500
     16 N3          2.3660    1.2660    4.4050 n1        1 02Y      0.017000
     17 H42         2.5060    1.7640    1.4410 h1        1 02Y      0.176700
     18 H2         -2.6410    0.3050   -1.4840 hn        1 02Y      0.367800
     19 H10         1.2050    2.5470    1.9420 h1        1 02Y      0.176700
     20 C1         -0.5650   -1.9800   -2.2520 c         1 02Y      0.831600
     21 OXT         0.2570   -1.9730   -3.2050 o         1 02Y     -0.605300
@<TRIPOS>BOND
     1    1    2 1   
     2    1    9 1   
     3    1   18 1   
     4    2    3 1   
     5    2   10 1   
     6    2   20 1   
     7    3    4 1   
     8    3   11 1   
     9    3   12 1   
    10    4    5 1   
    11    4   13 1   
    12    4   14 1   
    13    5    7 2   
    14    5    8 1   
    15    6   20 1   
    16    8   15 1   
    17    8   17 1   
    18    8   19 1   
    19   15   16 3   
    20   20   21 1   
@<TRIPOS>SUBSTRUCTURE
     1 02Y         1 TEMP              0 ****  ****    0 ROOT
