@<TRIPOS>MOLECULE
02Y
   21    20     1     0     0
SMALL
bcc


@<TRIPOS>ATOM
      1 N           1.9960    1.8870   -0.1120 n3        1 02Y     -0.889800
      2 CA          1.7170    0.5860    0.4520 c3        1 02Y      0.087500
      3 C2          0.4200   -0.0360   -0.0860 c3        1 02Y     -0.076400
      4 C3         -0.7740    0.8470    0.1990 c3        1 02Y     -0.155400
      5 C4         -2.0720    0.1010    0.0380 c2        1 02Y      0.607300
      6 O2         -2.1410   -1.1360   -0.0090 o         1 02Y     -0.597300
      7 C6         -3.2310    0.9800   -0.0320 ce        1 02Y      0.074700
      8 H           2.8950    2.2110    0.1920 hn        1 02Y      0.366300
      9 HA          1.6080    0.7320    1.5710 h1        1 02Y      0.077700
     10 HB1         0.5060   -0.2120   -1.1900 hc        1 02Y      0.066700
     11 HB2         0.2700   -1.0380    0.3980 hc        1 02Y      0.066700
     12 H8         -0.7300    1.2350    1.2530 hc        1 02Y      0.077200
     13 H9         -0.7660    1.7370   -0.4840 hc        1 02Y      0.077200
     14 N2         -4.4690    0.5330   -0.1610 n1        1 02Y     -0.295700
     15 N3         -5.5230    0.1460   -0.2720 n1        1 02Y      0.020000
     16 H42         2.0110   -1.6620    1.4760 ho        1 02Y      0.428000
     17 H2          1.9860    1.8490   -1.1130 hn        1 02Y      0.366300
     18 H10        -3.1120    2.0730    0.0210 h4        1 02Y      0.190000
     19 C1          2.8440   -0.4300    0.2580 c         1 02Y      0.577100
     20 OXT         2.8190   -1.6070    0.9470 oh        1 02Y     -0.572100
     21 O           3.8330   -0.2930   -0.4620 o         1 02Y     -0.496000
@<TRIPOS>BOND
     1    1    2 1   
     2    1    8 1   
     3    1   17 1   
     4    2    3 1   
     5    2    9 1   
     6    2   19 1   
     7    3    4 1   
     8    3   10 1   
     9    3   11 1   
    10    4    5 1   
    11    4   12 1   
    12    4   13 1   
    13    5    6 1   
    14    5    7 2   
    15    7   14 1   
    16    7   18 1   
    17   14   15 3   
    18   16   20 1   
    19   19   20 1   
    20   19   21 2   
@<TRIPOS>SUBSTRUCTURE
     1 02Y         1 TEMP              0 ****  ****    0 ROOT
