@<TRIPOS>MOLECULE
02Z
   26    24     1     0     0
SMALL
bcc


@<TRIPOS>ATOM
      1 C1         -3.5540   -0.6990   -2.0100 c1        1 02Z      0.407000
      2 N1         -0.0110    0.9270   -1.6240 n2        1 02Z     -0.219000
      3 S1         -1.6050   -0.1790   -0.2050 ss        1 02Z      0.414000
      4 N2         -1.4020    0.6770   -3.8800 n3        1 02Z     -0.331000
      5 N3          0.2760    1.0420    0.9510 n3        1 02Z     -0.217000
      6 C12        -2.1860   -0.1860   -1.6150 c1        1 02Z     -0.582000
      7 C13        -1.2440    0.4750   -2.4850 c2        1 02Z      0.198000
      8 C14        -0.2370    0.5330   -0.2700 c2        1 02Z     -0.067000
      9 C15         1.4640    0.4960    1.5040 c2        1 02Z      0.041000
     10 C16         2.6620    1.1830    1.3840 c1        1 02Z     -0.112000
     11 C17         3.8110    0.6800    1.9760 c1        1 02Z     -0.127500
     12 C18         3.7620   -0.5090    2.6860 c1        1 02Z     -0.127500
     13 C19         2.5630   -1.1950    2.8060 c1        1 02Z     -0.112000
     14 C20         1.4150   -0.6930    2.2150 c2        1 02Z     -0.167000
     15 O21        -3.9080   -0.6510   -3.1720 o         1 02Z     -0.419000
     16 N22        -4.4030   -1.2800   -1.0340 n3        1 02Z     -0.436000
     17 HN2        -0.7110    1.0160   -4.3740 hn        1 02Z      0.249000
     18 HN2A       -2.1950    0.4710   -4.2850 hn        1 02Z      0.249000
     19 HN3        -0.1640    1.7120    1.3870 hn        1 02Z      0.224000
     20 H16         2.6970    2.0200    0.8840 ha        1 02Z      0.156000
     21 H17         4.6550    1.1640    1.8910 ha        1 02Z      0.135500
     22 H18         4.5700   -0.8620    3.1030 ha        1 02Z      0.135500
     23 H19         2.5290   -2.0330    3.3060 ha        1 02Z      0.134000
     24 H20         0.5710   -1.1760    2.2990 ha        1 02Z      0.130000
     25 HN22       -4.3380   -1.0210   -0.1590 hn        1 02Z      0.223000
     26 HN2B       -5.0160   -1.9120   -1.2790 hn        1 02Z      0.223000
@<TRIPOS>BOND
     1    1   15 1   
     2    1   16 1   
     3    2    7 1   
     4    2    8 1   
     5    3    6 1   
     6    3    8 1   
     7    4    7 1   
     8    4   17 1   
     9    4   18 1   
    10    5    8 1   
    11    5    9 1   
    12    5   19 1   
    13    6    7 1   
    14    9   10 1   
    15    9   14 1   
    16   10   20 1   
    17   11   12 1   
    18   11   21 1   
    19   12   22 1   
    20   13   14 1   
    21   13   23 1   
    22   14   24 1   
    23   16   25 1   
    24   16   26 1   
@<TRIPOS>SUBSTRUCTURE
     1 02Z         1 TEMP              0 ****  ****    0 ROOT
