@<TRIPOS>MOLECULE
02Z
   27    28     1     0     0
SMALL
bcc


@<TRIPOS>ATOM
      1 C1         -0.0710    0.0560   -0.0030 c         1 02Z      0.608700
      2 N1          3.6020   -0.1200    0.4920 nc        1 02Z     -0.771000
      3 S1          1.6000   -0.0970    2.2110 ss        1 02Z     -0.260300
      4 N2          2.4240    0.0160   -1.5910 nv        1 02Z     -0.892500
      5 N3          4.2330   -0.2600    2.8240 nu        1 02Z     -0.674300
      6 C12         1.2050   -0.0180    0.5580 cd        1 02Z     -0.450000
      7 C13         2.4200   -0.0390   -0.2450 cc        1 02Z      0.807200
      8 C14         3.3300   -0.1590    1.8230 cd        1 02Z      0.838300
      9 C15         5.6450   -0.2640    2.6550 ca        1 02Z      0.085600
     10 C16         6.4290    0.5400    3.5110 ca        1 02Z     -0.119000
     11 C17         7.8150    0.5200    3.3940 ca        1 02Z     -0.110500
     12 C18         8.4350   -0.2830    2.4360 ca        1 02Z     -0.105000
     13 C19         7.6610   -1.0770    1.5920 ca        1 02Z     -0.110500
     14 C20         6.2700   -1.0780    1.6930 ca        1 02Z     -0.119000
     15 O21        -0.4530    0.1190   -1.1750 o         1 02Z     -0.528100
     16 N22        -1.2330    0.0620    0.9940 nz        1 02Z     -0.753400
     17 HN2         1.5610    0.0800   -2.0870 hn        1 02Z      0.478800
     18 HN2A        3.2790    0.0060   -2.1020 hn        1 02Z      0.478800
     19 HN3         3.9010   -0.1740    3.7630 hn        1 02Z      0.469800
     20 H16         5.9600    1.1820    4.2720 ha        1 02Z      0.146500
     21 H17         8.4250    1.1470    4.0650 ha        1 02Z      0.152500
     22 H18         9.5320   -0.2900    2.3490 ha        1 02Z      0.154000
     23 H19         8.1470   -1.7150    0.8370 ha        1 02Z      0.152500
     24 H20         5.6810   -1.7200    1.0200 ha        1 02Z      0.146500
     25 HN22       -1.1550    0.8700    1.6150 hn        1 02Z      0.459800
     26 HN2B       -2.1170    0.1140    0.4760 hn        1 02Z      0.459800
     27 H223       -1.2160   -0.7930    1.5540 hn        1 02Z      0.459800
@<TRIPOS>BOND
     1    1    6 1   
     2    1   15 2   
     3    1   16 1   
     4    2    7 1   
     5    2    8 2   
     6    3    6 1   
     7    3    8 1   
     8    4    7 1   
     9    4   17 1   
    10    4   18 1   
    11    5    8 1   
    12    5    9 1   
    13    5   19 1   
    14    6    7 2   
    15    9   10 ar  
    16    9   14 ar  
    17   10   11 ar  
    18   10   20 1   
    19   11   12 ar  
    20   11   21 1   
    21   12   13 ar  
    22   12   22 1   
    23   13   14 ar  
    24   13   23 1   
    25   14   24 1   
    26   16   25 1   
    27   16   26 1   
    28   16   27 1   
@<TRIPOS>SUBSTRUCTURE
     1 02Z         1 TEMP              0 ****  ****    0 ROOT
