@<TRIPOS>MOLECULE
02Z
   27    28     1     0     0
SMALL
bcc


@<TRIPOS>ATOM
      1 C1         -0.0680    0.0510   -0.0100 c         1 02Z      0.608700
      2 N1          3.6030   -0.1210    0.4920 nc        1 02Z     -0.771000
      3 S1          1.5990   -0.0980    2.2070 ss        1 02Z     -0.260300
      4 N2          2.4290    0.0110   -1.5940 nh        1 02Z     -0.892500
      5 N3          4.2300   -0.2580    2.8260 nh        1 02Z     -0.674300
      6 C12         1.2070   -0.0210    0.5540 cd        1 02Z     -0.450000
      7 C13         2.4230   -0.0420   -0.2480 cc        1 02Z      0.807200
      8 C14         3.3290   -0.1590    1.8230 cd        1 02Z      0.838300
      9 C15         5.6430   -0.2600    2.6590 ca        1 02Z      0.085600
     10 C16         6.4250    0.5450    3.5150 ca        1 02Z     -0.119000
     11 C17         7.8110    0.5260    3.4020 ca        1 02Z     -0.110500
     12 C18         8.4330   -0.2780    2.4460 ca        1 02Z     -0.105000
     13 C19         7.6610   -1.0740    1.6010 ca        1 02Z     -0.110500
     14 C20         6.2700   -1.0760    1.7000 ca        1 02Z     -0.119000
     15 O21        -0.4490    0.1120   -1.1830 o         1 02Z     -0.528100
     16 N22        -1.2320    0.0570    0.9840 n4        1 02Z     -0.753400
     17 HN2         1.5680    0.0740   -2.0910 hn        1 02Z      0.478800
     18 HN2A        3.2850    0.0020   -2.1030 hn        1 02Z      0.478800
     19 HN3         3.8970   -0.1710    3.7640 hn        1 02Z      0.469800
     20 H16         5.9530    1.1880    4.2750 ha        1 02Z      0.146500
     21 H17         8.4180    1.1550    4.0720 ha        1 02Z      0.152500
     22 H18         9.5310   -0.2840    2.3610 ha        1 02Z      0.154000
     23 H19         8.1490   -1.7130    0.8480 ha        1 02Z      0.152500
     24 H20         5.6830   -1.7180    1.0260 ha        1 02Z      0.146500
     25 HN22       -2.1150    0.1080    0.4640 hn        1 02Z      0.459800
     26 HN2B       -1.2160   -0.7980    1.5450 hn        1 02Z      0.459800
     27 H223       -1.1560    0.8660    1.6050 hn        1 02Z      0.459800
@<TRIPOS>BOND
     1    1    6 1   
     2    1   15 2   
     3    1   16 1   
     4    2    7 1   
     5    2    8 2   
     6    3    6 1   
     7    3    8 1   
     8    4    7 1   
     9    4   17 1   
    10    4   18 1   
    11    5    8 1   
    12    5    9 1   
    13    5   19 1   
    14    6    7 2   
    15    9   10 ar  
    16    9   14 ar  
    17   10   11 ar  
    18   10   20 1   
    19   11   12 ar  
    20   11   21 1   
    21   12   13 ar  
    22   12   22 1   
    23   13   14 ar  
    24   13   23 1   
    25   14   24 1   
    26   16   25 1   
    27   16   26 1   
    28   16   27 1   
@<TRIPOS>SUBSTRUCTURE
     1 02Z         1 TEMP              0 ****  ****    0 ROOT
