@<TRIPOS>MOLECULE
02Z
   26    27     1     0     0
SMALL
bcc


@<TRIPOS>ATOM
      1 C1          3.8110    0.0210   -0.1470 c         1 02Z      0.733700
      2 N1          0.1400    0.8530   -0.1350 nc        1 02Z     -0.745000
      3 S1          1.4350   -1.3910    0.2160 ss        1 02Z     -0.170300
      4 N2          1.9790    2.4140   -0.3520 nh        1 02Z     -0.933500
      5 N3         -1.2520   -1.1060    0.3070 nh        1 02Z     -0.696300
      6 C12         2.3600   -0.0030   -0.0530 cd        1 02Z     -0.398000
      7 C13         1.5250    1.1340   -0.2010 cc        1 02Z      0.719200
      8 C14        -0.0400   -0.4600    0.0940 cd        1 02Z      0.703300
      9 C15        -2.4970   -0.4400    0.1800 ca        1 02Z      0.122600
     10 C16        -3.5370   -1.0440   -0.5620 ca        1 02Z     -0.139500
     11 C17        -4.7920   -0.4470   -0.6200 ca        1 02Z     -0.113500
     12 C18        -5.0340    0.7560    0.0420 ca        1 02Z     -0.140000
     13 C19        -4.0120    1.3590    0.7720 ca        1 02Z     -0.113500
     14 C20        -2.7510    0.7730    0.8510 ca        1 02Z     -0.139500
     15 O21         4.4630    1.0460   -0.4630 o         1 02Z     -0.658100
     16 N22         4.5000   -1.1470    0.1040 n         1 02Z     -0.676000
     17 HN2         1.3460    3.1300   -0.6130 hn        1 02Z      0.453800
     18 HN2A        2.9520    2.5330   -0.5340 hn        1 02Z      0.453800
     19 HN3        -1.2610   -2.0500   -0.0260 hn        1 02Z      0.428800
     20 H16        -3.3670   -1.9920   -1.0950 ha        1 02Z      0.143000
     21 H17        -5.5950   -0.9280   -1.1980 ha        1 02Z      0.135000
     22 H18        -6.0260    1.2260   -0.0130 ha        1 02Z      0.135000
     23 H19        -4.1980    2.3080    1.2980 ha        1 02Z      0.135000
     24 H20        -1.9600    1.2660    1.4380 ha        1 02Z      0.143000
     25 HN22        4.0420   -1.9510    0.4460 hn        1 02Z      0.309500
     26 HN2B        5.4890   -1.1320    0.0830 hn        1 02Z      0.309500
@<TRIPOS>BOND
     1    1    6 1   
     2    1   15 2   
     3    1   16 1   
     4    2    7 1   
     5    2    8 2   
     6    3    6 1   
     7    3    8 1   
     8    4    7 1   
     9    4   17 1   
    10    4   18 1   
    11    5    8 1   
    12    5    9 1   
    13    5   19 1   
    14    6    7 2   
    15    9   10 ar  
    16    9   14 ar  
    17   10   11 ar  
    18   10   20 1   
    19   11   12 ar  
    20   11   21 1   
    21   12   13 ar  
    22   12   22 1   
    23   13   14 ar  
    24   13   23 1   
    25   14   24 1   
    26   16   25 1   
    27   16   26 1   
@<TRIPOS>SUBSTRUCTURE
     1 02Z         1 TEMP              0 ****  ****    0 ROOT
