@<TRIPOS>MOLECULE
02Z
   29    30     1     0     0
SMALL
bcc


@<TRIPOS>ATOM
      1 C1          0.7030    0.8440   -0.0470 c         1 02Z      0.596700
      2 N1          2.8870   -2.1270    0.4650 nc        1 02Z     -0.555000
      3 S1          3.2090    0.3410    1.1670 ss        1 02Z      0.427700
      4 N2          0.7110   -2.1320   -0.6620 n4        1 02Z     -0.811300
      5 N3          5.0080   -1.7280    1.6560 n4        1 02Z     -0.583100
      6 C12         1.8040   -0.0250    0.3550 cd        1 02Z     -0.375000
      7 C13         1.7820   -1.4280    0.0400 cc        1 02Z      0.518200
      8 C14         3.7360   -1.2610    1.0950 cd        1 02Z      0.441300
      9 C15         5.7630   -0.6360    2.2850 ca        1 02Z     -0.162400
     10 C16         5.6290   -0.4140    3.6720 ca        1 02Z     -0.096000
     11 C17         6.4640    0.5140    4.2880 ca        1 02Z     -0.094000
     12 C18         7.4330    1.2020    3.5480 ca        1 02Z     -0.018000
     13 C19         7.5610    0.9710    2.1740 ca        1 02Z     -0.094000
     14 C20         6.7400    0.0500    1.5300 ca        1 02Z     -0.096000
     15 O21        -0.2740    0.4720   -0.6890 o         1 02Z     -0.392100
     16 N22         0.7060    2.2960    0.3170 n4        1 02Z     -0.743400
     17 HN2        -0.0480   -2.3620    0.0050 hn        1 02Z      0.514467
     18 HN2A        0.3270   -1.5340   -1.4160 hn        1 02Z      0.514467
     19 HN3         4.8180   -2.4670    2.3640 hn        1 02Z      0.509800
     20 H16         4.9080   -0.9800    4.2870 ha        1 02Z      0.168000
     21 H17         6.3780    0.6850    5.3790 ha        1 02Z      0.204500
     22 H18         8.1130    1.9150    4.0550 ha        1 02Z      0.209000
     23 H19         8.3410    1.5040    1.5950 ha        1 02Z      0.204500
     24 H20         6.8950   -0.1510    0.4560 ha        1 02Z      0.168000
     25 HN22        1.5070    2.7900   -0.1020 hn        1 02Z      0.506133
     26 HN2B       -0.1660    2.7340   -0.0560 hn        1 02Z      0.506133
     27 H23         1.0590   -3.0190   -1.0810 hn        1 02Z      0.514467
     28 H32         5.5810   -2.1510    0.8980 hn        1 02Z      0.509800
     29 H223        0.7120    2.4300    1.3380 hn        1 02Z      0.506133
@<TRIPOS>BOND
     1    1    6 1   
     2    1   15 2   
     3    1   16 1   
     4    2    7 1   
     5    2    8 2   
     6    3    6 1   
     7    3    8 1   
     8    4    7 1   
     9    4   17 1   
    10    4   18 1   
    11    4   27 1   
    12    5    8 1   
    13    5    9 1   
    14    5   19 1   
    15    5   28 1   
    16    6    7 2   
    17    9   10 ar  
    18    9   14 ar  
    19   10   11 ar  
    20   10   20 1   
    21   11   12 ar  
    22   11   21 1   
    23   12   13 ar  
    24   12   22 1   
    25   13   14 ar  
    26   13   23 1   
    27   14   24 1   
    28   16   25 1   
    29   16   26 1   
    30   16   29 1   
@<TRIPOS>SUBSTRUCTURE
     1 02Z         1 TEMP              0 ****  ****    0 ROOT
