@<TRIPOS>MOLECULE
030
   24    24     1     0     0
SMALL
bcc


@<TRIPOS>ATOM
      1 C21        -0.5690   -0.6960   -0.4960 c1        1 030      0.451000
      2 O22         0.5610   -0.9210   -0.7990 o         1 030     -0.231000
      3 O23        -0.2520    0.6250    1.4930 oh        1 030     -0.394000
      4 C24         0.6580    0.5530    2.5900 c3        1 030      0.017000
      5 C25         0.6730    1.8730    3.3760 c3        1 030     -0.200000
      6 C26         0.3430    1.5080    4.8340 c3        1 030      0.148000
      7 O27        -0.7690    2.2950    5.3430 os        1 030     -0.338000
      8 C28        -1.7760    1.4120    5.8400 c3        1 030     -0.039000
      9 C29        -1.3320   -0.0550    5.5690 c3        1 030      0.152000
     10 C30        -0.0790    0.0890    4.8320 c2        1 030     -0.742000
     11 C31         0.2700   -0.5750    3.5830 c3        1 030     -0.003000
     12 O41        -1.2090   -0.7320    6.8260 oh        1 030     -0.402000
     13 H24        -1.1380    0.6850    1.8680 ho        1 030      0.210000
     14 H25         1.6470    0.3580    2.0970 h1        1 030      0.074000
     15 H25A       -0.0900    2.5820    2.9710 hc        1 030      0.063500
     16 H26         1.6750    2.3580    3.3020 hc        1 030      0.063500
     17 H28         1.2060    1.7680    5.5050 h1        1 030      0.037000
     18 H28A       -1.8920    1.6160    6.9340 h1        1 030      0.044500
     19 H29        -2.7280    1.6570    5.3050 h1        1 030      0.044500
     20 H30        -2.1390   -0.6280    5.0340 h1        1 030      0.044000
     21 H31         1.1530   -1.2650    3.6830 hc        1 030      0.017500
     22 H31A       -0.5690   -1.1930    3.1610 hc        1 030      0.017500
     23 HO41       -0.2680   -0.7500    7.0290 ho        1 030      0.200000
     24 OXT        -1.7240   -0.5110   -0.2750 o         1 030     -0.231000
@<TRIPOS>BOND
     1    1    2 1   
     2    1   24 1   
     3    3    4 1   
     4    3   13 1   
     5    4    5 1   
     6    4   11 1   
     7    4   14 1   
     8    5    6 1   
     9    5   15 1   
    10    5   16 1   
    11    6    7 1   
    12    6   10 1   
    13    6   17 1   
    14    7    8 1   
    15    8    9 1   
    16    8   18 1   
    17    8   19 1   
    18    9   10 1   
    19    9   12 1   
    20    9   20 1   
    21   10   11 1   
    22   11   21 1   
    23   11   22 1   
    24   12   23 1   
@<TRIPOS>SUBSTRUCTURE
     1 030         1 TEMP              0 ****  ****    0 ROOT
