@<TRIPOS>MOLECULE
030
   24    24     1     0     0
SMALL
bcc


@<TRIPOS>ATOM
      1 C21        -0.3050   -0.6310   -0.5660 c         1 030      0.496100
      2 O22         0.0100    0.5820   -0.4140 o         1 030     -0.579000
      3 O23        -1.1420   -1.1290    0.4390 oh        1 030     -0.713100
      4 C24         0.3480    0.9620    2.7110 c2        1 030     -0.145200
      5 C25         0.7210    2.0880    3.6270 c3        1 030     -0.078200
      6 C26         0.6560    1.4850    5.0450 c3        1 030      0.136100
      7 O27        -0.2720    2.1950    5.8720 os        1 030     -0.429600
      8 C28        -1.4210    1.3940    6.1520 c3        1 030      0.133400
      9 C29        -1.2020   -0.0210    5.5940 c3        1 030      0.118100
     10 C30         0.1500    0.0250    4.8710 c3        1 030     -0.093500
     11 C31         0.0330   -0.1570    3.3870 c2        1 030     -0.224200
     12 O41        -1.1980   -0.9150    6.6980 oh        1 030     -0.608800
     13 H24        -1.3320   -0.4060    1.0460 ho        1 030      0.383000
     14 H25         0.3470    1.0810    1.6120 ha        1 030      0.221000
     15 H25A        0.0060    2.9420    3.5260 hc        1 030      0.059700
     16 H26         1.7500    2.4620    3.4040 hc        1 030      0.059700
     17 H28         1.6420    1.5430    5.5690 h1        1 030      0.055700
     18 H28A       -1.5450    1.3840    7.2650 h1        1 030      0.050200
     19 H29        -2.3010    1.8840    5.6640 h1        1 030      0.050200
     20 H30        -2.0290   -0.3100    4.8910 h1        1 030      0.058700
     21 H31         0.8620   -0.7120    5.3190 hc        1 030      0.064700
     22 H31A       -0.2700   -1.1130    2.9540 ha        1 030      0.161000
     23 HO41       -0.9820   -1.7860    6.3450 ho        1 030      0.402000
     24 OXT        -0.0100   -1.4750   -1.4380 o         1 030     -0.579000
@<TRIPOS>BOND
     1    1    2 1   
     2    1    3 1   
     3    1   24 1   
     4    3   13 1   
     5    4    5 1   
     6    4   11 2   
     7    4   14 1   
     8    5    6 1   
     9    5   15 1   
    10    5   16 1   
    11    6    7 1   
    12    6   10 1   
    13    6   17 1   
    14    7    8 1   
    15    8    9 1   
    16    8   18 1   
    17    8   19 1   
    18    9   10 1   
    19    9   12 1   
    20    9   20 1   
    21   10   11 1   
    22   10   21 1   
    23   11   22 1   
    24   12   23 1   
@<TRIPOS>SUBSTRUCTURE
     1 030         1 TEMP              0 ****  ****    0 ROOT
