@<TRIPOS>MOLECULE
030
   25    25     1     0     0
SMALL
bcc


@<TRIPOS>ATOM
      1 C21        -0.5730   -0.1980   -0.4370 c         1 030      0.774200
      2 O22         0.5600   -0.6100   -0.2170 o         1 030     -0.541000
      3 O23        -1.3690    0.4040    0.4780 oh        1 030     -0.585100
      4 C24         0.9440    0.1690    2.9860 c2        1 030     -0.188200
      5 C25         0.6910    1.6160    3.2820 c3        1 030     -0.079200
      6 C26         0.2890    1.6510    4.7710 c3        1 030      0.142100
      7 O27        -1.0480    2.1360    4.9120 os        1 030     -0.421600
      8 C28        -1.8920    1.1490    5.5100 c3        1 030      0.130400
      9 C29        -1.0800   -0.1340    5.7550 c3        1 030      0.122100
     10 C30         0.3420    0.1800    5.2700 c3        1 030     -0.105500
     11 C31         0.7530   -0.6120    4.0650 c2        1 030     -0.177200
     12 O41        -1.1250   -0.3950    7.1470 oh        1 030     -0.591800
     13 H24        -0.9040    0.4580    1.3320 ho        1 030      0.466500
     14 H25         1.2600   -0.1530    1.9880 ha        1 030      0.164000
     15 H25A       -0.1270    2.0340    2.6430 hc        1 030      0.065200
     16 H26         1.6130    2.2250    3.1090 hc        1 030      0.065200
     17 H28         0.9450    2.3360    5.3640 h1        1 030      0.070700
     18 H28A       -2.2760    1.5780    6.4720 h1        1 030      0.062200
     19 H29        -2.7360    0.9660    4.7980 h1        1 030      0.062200
     20 H30        -1.5180   -1.0040    5.1960 h1        1 030      0.049700
     21 H31         1.0790    0.0580    6.1030 hc        1 030      0.082700
     22 H31A        0.8730   -1.6950    4.1250 ha        1 030      0.143000
     23 HO41       -0.6110   -1.1970    7.2990 ho        1 030      0.404000
     24 OXT        -1.1790   -0.2940   -1.6320 oh        1 030     -0.585100
     25 HXT        -2.0690    0.0990   -1.5790 ho        1 030      0.466500
@<TRIPOS>BOND
     1    1    2 2   
     2    1    3 1   
     3    1   24 1   
     4    3   13 1   
     5    4    5 1   
     6    4   11 2   
     7    4   14 1   
     8    5    6 1   
     9    5   15 1   
    10    5   16 1   
    11    6    7 1   
    12    6   10 1   
    13    6   17 1   
    14    7    8 1   
    15    8    9 1   
    16    8   18 1   
    17    8   19 1   
    18    9   10 1   
    19    9   12 1   
    20    9   20 1   
    21   10   11 1   
    22   10   21 1   
    23   11   22 1   
    24   12   23 1   
    25   24   25 1   
@<TRIPOS>SUBSTRUCTURE
     1 030         1 TEMP              0 ****  ****    0 ROOT
