@<TRIPOS>MOLECULE
030
   25    26     1     0     0
SMALL
bcc


@<TRIPOS>ATOM
      1 C21        -2.8690    0.0490   -0.5360 c         1 030      0.765200
      2 O22        -3.5600   -0.0750    0.4740 o         1 030     -0.590000
      3 O23        -1.5370    0.2610   -0.6050 os        1 030     -0.390900
      4 C24        -0.8360    0.2970    0.6670 c3        1 030      0.148100
      5 C25        -0.1950   -1.0640    0.9300 c3        1 030     -0.124400
      6 C26         1.3090   -0.8370    1.0800 c3        1 030      0.144100
      7 O27         2.0380   -1.7070    0.2070 os        1 030     -0.411600
      8 C28         2.6350   -0.9670   -0.8580 c3        1 030      0.093400
      9 C29         2.4580    0.5360   -0.5850 c3        1 030      0.120100
     10 C30         1.6090    0.6250    0.6940 c3        1 030     -0.089700
     11 C31         0.2780    1.3360    0.5010 c3        1 030     -0.082400
     12 O41         3.6940    1.1770   -0.3110 oh        1 030     -0.593800
     13 H24        -1.5560    0.5830    1.4800 h1        1 030      0.086700
     14 H25        -0.6180   -1.5190    1.8600 hc        1 030      0.076200
     15 H25A       -0.3950   -1.7660    0.0800 hc        1 030      0.076200
     16 H26         1.6610   -1.0880    2.1150 h1        1 030      0.074700
     17 H28         3.7160   -1.2640   -0.8820 h1        1 030      0.054700
     18 H28A        2.1270   -1.2720   -1.8080 h1        1 030      0.054700
     19 H29         1.9630    1.0410   -1.4580 h1        1 030      0.053700
     20 H30         2.2100    1.1320    1.4940 hc        1 030      0.092700
     21 H31         0.2080    1.8180   -0.5070 hc        1 030      0.068700
     22 H31A        0.1520    2.1400    1.2690 hc        1 030      0.068700
     23 HO41        4.2450    1.0680   -1.0950 ho        1 030      0.404000
     24 OXT        -3.3540    0.0050   -1.7970 oh        1 030     -0.556100
     25 HXT        -4.3140   -0.1420   -1.7350 ho        1 030      0.457000
@<TRIPOS>BOND
     1    1    2 2   
     2    1    3 1   
     3    1   24 1   
     4    3    4 1   
     5    4    5 1   
     6    4   11 1   
     7    4   13 1   
     8    5    6 1   
     9    5   14 1   
    10    5   15 1   
    11    6    7 1   
    12    6   10 1   
    13    6   16 1   
    14    7    8 1   
    15    8    9 1   
    16    8   17 1   
    17    8   18 1   
    18    9   10 1   
    19    9   12 1   
    20    9   19 1   
    21   10   11 1   
    22   10   20 1   
    23   11   21 1   
    24   11   22 1   
    25   12   23 1   
    26   24   25 1   
@<TRIPOS>SUBSTRUCTURE
     1 030         1 TEMP              0 ****  ****    0 ROOT
