@<TRIPOS>MOLECULE
030
   25    25     1     0     0
SMALL
bcc


@<TRIPOS>ATOM
      1 C21         0.8620    0.0780   -3.5030 c1        1 030      0.396000
      2 O22         1.7860   -0.7090   -3.4370 o         1 030     -0.401000
      3 O23         0.3310    0.6370   -2.3290 o         1 030     -0.229000
      4 C24         0.7000   -0.0420   -1.1590 c3        1 030      0.037000
      5 C25         1.3590    0.7950   -0.3230 c3        1 030     -0.203000
      6 C26         0.9430    0.3270    1.1390 c3        1 030      0.033000
      7 O27         0.4770    1.3060    1.8280 os        1 030     -0.268000
      8 C28        -0.7440    0.7000    2.6970 c3        1 030     -0.057000
      9 C29        -1.3580   -0.1990    1.9040 c3        1 030      0.009000
     10 C30        -0.2730   -0.6770    0.9490 c3        1 030     -0.129000
     11 C31        -0.6520   -0.5400   -0.3370 c3        1 030     -0.161000
     12 O41        -1.8640   -1.3240    2.7050 oh        1 030     -0.321000
     13 H24         1.2640   -0.8120   -1.3790 h1        1 030      0.126000
     14 H25         1.0790    1.7210   -0.4770 hc        1 030      0.115500
     15 H25A        2.3280    0.7070   -0.4460 hc        1 030      0.115500
     16 H26         1.6900   -0.1060    1.5990 h1        1 030      0.114000
     17 H28        -1.3690    1.4130    2.9430 h1        1 030      0.094000
     18 H28A       -0.4000    0.2610    3.5010 h1        1 030      0.094000
     19 H29        -2.0870    0.2240    1.4090 h1        1 030      0.093000
     20 H30        -0.0060   -1.5970    1.1450 hc        1 030      0.132000
     21 H31        -1.3580    0.1340   -0.4100 hc        1 030      0.108000
     22 H31A       -0.9650   -1.3980   -0.6910 hc        1 030      0.108000
     23 HO41       -2.7430   -1.2390    2.8120 ho        1 030      0.203000
     24 OXT         0.3320    0.4380   -4.7550 oh        1 030     -0.265000
     25 HXT         0.6670   -0.0960   -5.3830 ho        1 030      0.256000
@<TRIPOS>BOND
     1    1    2 1   
     2    1   24 1   
     3    3    4 1   
     4    4    5 1   
     5    4   11 1   
     6    4   13 1   
     7    5    6 1   
     8    5   14 1   
     9    5   15 1   
    10    6    7 1   
    11    6   10 1   
    12    6   16 1   
    13    7    8 1   
    14    8    9 1   
    15    8   17 1   
    16    8   18 1   
    17    9   10 1   
    18    9   12 1   
    19    9   19 1   
    20   10   11 1   
    21   10   20 1   
    22   11   21 1   
    23   11   22 1   
    24   12   23 1   
    25   24   25 1   
@<TRIPOS>SUBSTRUCTURE
     1 030         1 TEMP              0 ****  ****    0 ROOT
