@<TRIPOS>MOLECULE
032
   51    48     1     0     0
SMALL
bcc


@<TRIPOS>ATOM
      1 C10        -1.9220    0.2160   -1.9930 c1        1 032     -0.230000
      2 C15         5.3680    0.4580    6.2080 c1        1 032      0.167000
      3 C17         0.6550   -0.7290    8.6090 c2        1 032      0.291000
      4 C20         0.8580    0.7140   10.6460 c2        1 032      0.017000
      5 C21        -0.2280    1.5090   10.9210 c2        1 032      0.143000
      6 C22        -1.5550    1.0390   10.5220 c2        1 032     -0.488000
      7 C24         0.6530   -1.7120   10.9170 c2        1 032      0.096000
      8 C01         1.0820   -0.4570    4.1820 c2        1 032      0.061000
      9 C02         2.1320   -0.1360    3.4470 c1        1 032     -0.123000
     10 N03         2.4500    2.1920    5.9420 n2        1 032     -0.220000
     11 C04         1.1750   -0.7760    5.6010 c2        1 032     -0.057000
     12 N14         4.2070    0.6880    6.2170 n2        1 032     -0.311000
     13 C16         1.9970   -0.6130    7.9380 c3        1 032     -0.168000
     14 C05         1.9520   -0.1750    6.5170 c2        1 032     -0.140000
     15 C06         2.8450    0.9870    6.1970 c2        1 032      0.185000
     16 C07        -0.2500   -0.5560    3.6070 c2        1 032     -0.429000
     17 C18         0.7140   -0.6430   10.0920 c2        1 032     -0.236000
     18 C23        -2.7350    1.3350   11.0280 c1        1 032      0.257000
     19 F26         2.1320    1.1050   10.9050 f         1 032     -0.103000
     20 N27        -0.1460    2.7680   11.5250 n3        1 032     -0.831000
     21 S28         0.5780    3.1890   12.9490 s6        1 032      2.835000
     22 O29        -0.2390    4.1780   13.5390 o         1 032     -0.944000
     23 O30         0.8110    2.0350   13.7330 o         1 032     -0.944000
     24 C31         2.0250    3.8630   12.4960 c3        1 032     -1.070000
     25 C32         3.6380    1.9430   15.2020 c3        1 032     -0.316000
     26 C33         3.5820    3.3490   14.9480 c1        1 032     -0.092000
     27 C08         4.1550    0.4460    1.9830 c2        1 032     -0.116000
     28 C09         3.1250    0.1500    2.7260 c1        1 032     -0.088000
     29 C11        -1.5950    0.0670   -0.8520 c1        1 032     -0.180000
     30 C12        -0.6270   -0.3680    2.3590 c1        1 032      0.207000
     31 CL13       -2.3590    0.4160   -3.5190 cl        1 032      0.148000
     32 H15         2.6300    0.0920    8.5470 hc        1 032      0.133500
     33 H22        -1.5640    0.3150    9.6680 ha        1 032      0.228000
     34 H02         1.4590    2.3140    5.9430 hn        1 032      0.171000
     35 H04         0.4970   -1.5900    5.9290 ha        1 032      0.157000
     36 H23         0.7100   -1.6200   12.0190 h4        1 032      0.173000
     37 HN27       -0.7240    3.4420   11.0700 hn        1 032      0.252000
     38 H31         2.7740    3.7930   13.4000 h1        1 032      0.197667
     39 H31A        2.5690    3.3610   11.6610 h1        1 032      0.197667
     40 H32         1.9720    4.9480   12.2440 h1        1 032      0.197667
     41 H32A        2.5630    1.5770   15.1330 hc        1 032      0.135667
     42 H33         4.0760    1.6110   16.1760 hc        1 032      0.135667
     43 H33A        4.1820    1.4310   14.3600 hc        1 032      0.135667
     44 H33B        3.8550    4.0460   15.7520 ha        1 032      0.064000
     45 H08         5.1730    0.5150    2.3960 ha        1 032      0.145000
     46 H09         4.0570    0.6440    0.9050 ha        1 032      0.145000
     47 H11        -1.3030   -0.0660    0.1660 ha        1 032      0.256000
     48 H12        -1.0590   -0.8250    4.3260 ha        1 032      0.205000
     49 O19        -0.4140   -0.8830    8.0130 o         1 032     -0.285000
     50 H18         2.4830   -1.6290    7.9960 hc        1 032      0.133500
     51 F25         0.5260   -2.9780   10.4850 f         1 032     -0.095000
@<TRIPOS>BOND
     1    1   29 1   
     2    1   31 1   
     3    2   12 1   
     4    3   13 1   
     5    3   17 1   
     6    3   49 1   
     7    4    5 1   
     8    4   17 1   
     9    4   19 1   
    10    5    6 1   
    11    5   20 1   
    12    6   18 1   
    13    6   33 1   
    14    7   17 1   
    15    7   36 1   
    16    7   51 1   
    17    8    9 1   
    18    8   11 1   
    19    8   16 1   
    20    9   28 1   
    21   10   15 1   
    22   10   34 1   
    23   11   14 1   
    24   11   35 1   
    25   12   15 1   
    26   13   14 1   
    27   13   32 1   
    28   13   50 1   
    29   14   15 1   
    30   16   30 1   
    31   16   48 1   
    32   20   21 1   
    33   20   37 1   
    34   21   22 1   
    35   21   23 1   
    36   21   24 1   
    37   24   38 1   
    38   24   39 1   
    39   24   40 1   
    40   25   26 1   
    41   25   41 1   
    42   25   42 1   
    43   25   43 1   
    44   26   44 1   
    45   27   28 1   
    46   27   45 1   
    47   27   46 1   
    48   29   47 1   
@<TRIPOS>SUBSTRUCTURE
     1 032         1 TEMP              0 ****  ****    0 ROOT
