@<TRIPOS>MOLECULE
032
   52    52     1     0     0
SMALL
bcc


@<TRIPOS>ATOM
      1 C10         0.2630   -0.1810   -0.1500 c2        1 032      0.095000
      2 C15         2.1440    1.9600    8.6710 c1        1 032     -0.080000
      3 C17        -0.0820    1.4740    7.7490 c2        1 032      0.273000
      4 C20        -0.5360    1.5960   10.2260 c2        1 032      0.022000
      5 C21        -0.7830    1.0310   11.4630 c2        1 032     -0.066000
      6 C22        -0.8840   -0.4570   11.5750 c3        1 032     -0.204000
      7 C24        -0.5720   -0.5810    9.1100 c2        1 032      0.074000
      8 C01         2.1390   -0.4280    4.4020 c2        1 032     -0.129000
      9 C02         3.1670   -1.3570    5.0030 c3        1 032     -0.086000
     10 N03         3.5090   -1.1820    6.3870 n2        1 032     -0.136000
     11 C04         1.5820    0.5910    5.2690 c2        1 032     -0.031000
     12 N14         2.7210    2.1650    9.6590 n1        1 032     -0.106000
     13 C16         1.3910    1.7580    7.4470 c3        1 032     -0.008000
     14 C05         1.9580    0.6930    6.5670 c2        1 032     -0.171000
     15 C06         2.9530   -0.2540    7.0840 c2        1 032     -0.052000
     16 C07         1.7960   -0.5950    3.1060 c2        1 032     -0.071000
     17 C18        -0.3920    0.7870    9.0310 c2        1 032     -0.121000
     18 C23        -0.7920   -1.2460   10.3710 c1        1 032     -0.023000
     19 N27        -0.8370    1.8050   12.6440 n3        1 032     -0.370000
     20 S28         1.6650    1.9060   13.7290 s6        1 032      2.842000
     21 O29         0.9380    2.2560   14.8430 o         1 032     -0.864500
     22 O30         1.6980    0.6220   13.2420 o         1 032     -0.864500
     23 C31         1.9940    3.1340   12.7000 c3        1 032     -1.042000
     24 C32         3.8020    2.4610   15.7310 c3        1 032     -0.312000
     25 C33         3.4820    1.9880   14.4410 c2        1 032     -0.260000
     26 C08         1.4530    0.9950   -2.1420 c1        1 032     -0.131000
     27 C09         0.9090    0.4570   -1.2210 c1        1 032     -0.154000
     28 C11         0.5600    0.0020    1.1130 c1        1 032     -0.132000
     29 C12         0.8280    0.1960    2.3770 c2        1 032     -0.063000
     30 CL13       -0.9940   -1.2600   -0.5810 cl        1 032      0.011000
     31 H15         1.4190    2.7410    6.8720 hc        1 032      0.166000
     32 H22        -1.8520   -0.7540   12.0860 hc        1 032      0.198500
     33 H02         4.1300   -1.2670    4.4170 h1        1 032      0.130000
     34 H04         0.8300    1.2800    4.8460 ha        1 032      0.148000
     35 H23        -0.0480   -0.8400   12.2500 hc        1 032      0.198500
     36 HN27       -1.3600    1.3430   13.3670 hn        1 032      0.201500
     37 H31         1.2860    3.1830   11.8140 h1        1 032      0.218000
     38 H31A        2.9970    3.1050   12.1870 h1        1 032      0.218000
     39 H32         4.0500    1.5320   16.3650 hc        1 032      0.211667
     40 H32A        1.9170    4.1590   13.1580 h1        1 032      0.218000
     41 H33         4.2850    1.6110   13.7800 h4        1 032      0.187000
     42 H33A        2.9660    3.0020   16.2540 hc        1 032      0.211667
     43 H33B        4.7630    3.0560   15.7810 hc        1 032      0.211667
     44 H08         2.8070   -2.4230    4.8920 h1        1 032      0.130000
     45 H09         1.9330    1.4700   -2.9620 ha        1 032      0.235000
     46 H11         0.2930    0.9980    2.9210 ha        1 032      0.146000
     47 H12         2.2820   -1.4040    2.5270 ha        1 032      0.145000
     48 O19        -0.9560    1.8040    6.9520 o         1 032     -0.209000
     49 H18         3.2540   -0.1740    8.1450 h4        1 032      0.150000
     50 F25        -0.5230   -1.3510    8.0030 f         1 032     -0.052000
     51 H272       -1.2150    2.7210   12.4750 hn        1 032      0.201500
     52 F26        -0.4320    2.9460   10.0940 f         1 032     -0.106000
@<TRIPOS>BOND
     1    1   27 1   
     2    1   28 1   
     3    1   30 1   
     4    2   12 1   
     5    2   13 1   
     6    3   13 1   
     7    3   17 1   
     8    3   48 1   
     9    4    5 1   
    10    4   17 1   
    11    4   52 1   
    12    5    6 1   
    13    5   19 1   
    14    6   18 1   
    15    6   32 1   
    16    6   35 1   
    17    7   17 1   
    18    7   18 1   
    19    7   50 1   
    20    8    9 1   
    21    8   11 1   
    22    8   16 1   
    23    9   10 1   
    24    9   33 1   
    25    9   44 1   
    26   10   15 1   
    27   11   14 1   
    28   11   34 1   
    29   13   14 1   
    30   13   31 1   
    31   14   15 1   
    32   15   49 1   
    33   16   29 1   
    34   16   47 1   
    35   19   36 1   
    36   19   51 1   
    37   20   21 1   
    38   20   22 1   
    39   20   23 1   
    40   20   25 1   
    41   23   37 1   
    42   23   38 1   
    43   23   40 1   
    44   24   25 1   
    45   24   39 1   
    46   24   42 1   
    47   24   43 1   
    48   25   41 1   
    49   26   27 1   
    50   26   45 1   
    51   28   29 1   
    52   29   46 1   
@<TRIPOS>SUBSTRUCTURE
     1 032         1 TEMP              0 ****  ****    0 ROOT
