@<TRIPOS>MOLECULE
032
   51    40     1     0     0
SMALL
bcc


@<TRIPOS>ATOM
      1 C10        -3.0630    0.8110   -7.4510 c1        1 032     -0.059000
      2 C15        -1.2740    2.7190    0.8520 c1        1 032      0.009000
      3 C17        -2.3310    0.5550    0.9900 c1        1 032      0.352000
      4 C20        -0.2030   -0.2180    2.0800 c1        1 032      0.104000
      5 C21         0.4780   -0.9830    3.0150 c1        1 032      0.027000
      6 C22        -0.2180   -1.8640    3.8290 c1        1 032     -0.128000
      7 C24        -2.2750   -1.2140    2.7730 c1        1 032      0.122000
      8 C01        -2.1760    1.7550   -3.5090 c1        1 032     -0.068000
      9 C02        -1.9780    3.1250   -3.6270 c1        1 032     -0.041000
     10 N03        -1.6750    3.8680   -2.5250 n1        1 032     -0.136000
     11 C04        -2.0670    1.1520   -2.2880 c1        1 032     -0.070000
     12 N14        -1.2630    3.7600   -0.0330 n2        1 032     -0.187000
     13 C16        -1.5800    1.5680    0.1550 c1        1 032     -0.147500
     14 C05        -1.7590    1.9080   -1.1690 c1        1 032     -0.147500
     15 C06        -1.5640    3.2590   -1.2880 c1        1 032      0.009000
     16 C07        -2.3950    1.3330   -4.8110 c1        1 032     -0.068000
     17 C18        -1.5790   -0.3340    1.9590 c1        1 032     -0.188000
     18 C23        -1.5940   -1.9790    3.7080 c1        1 032     -0.128000
     19 F25        -3.6080   -1.1040    2.8320 f         1 032     -0.087000
     20 F26         0.4730    0.6090    1.2720 f         1 032     -0.090000
     21 N27         1.8940   -0.9070    3.0990 n3        1 032     -0.826000
     22 S28         2.7430   -2.1320    3.7920 s4        1 032      2.031800
     23 O29         2.3440   -2.3350    5.1570 o         1 032     -0.530400
     24 O30         2.4010   -3.3990    3.2080 o         1 032     -0.530400
     25 C31         4.4860   -1.8170    3.6700 c2        1 032     -0.866000
     26 C32         5.2510   -3.0860    3.9830 c3        1 032     -0.136000
     27 C33         6.7370   -2.8150    3.8900 c3        1 032     -0.205000
     28 C08        -1.4060    1.2900   -5.7810 c1        1 032     -0.128000
     29 C09        -1.7390    1.0300   -7.1010 c1        1 032     -0.128000
     30 C11        -4.0520    0.8530   -6.4810 c1        1 032     -0.122000
     31 C12        -3.7180    1.1140   -5.1610 c1        1 032     -0.070000
     32 CL13       -3.5240    0.8230   -9.1320 cl        1 032     -0.014000
     33 H15        -1.1130    2.7820    1.8130 DU        1 032      0.221500
     34 H22         0.2610   -2.4020    4.4870 ha        1 032      0.159750
     35 H02        -2.0560    3.5550   -4.4990 ha        1 032      0.166000
     36 H04        -2.2060    0.1900   -2.2050 ha        1 032      0.157500
     37 H23        -2.0840   -2.5990    4.2810 ha        1 032      0.159750
     38 HN27        2.3310   -0.1720    2.7800 hn        1 032      0.263000
     39 H31         4.7010   -1.5220    2.7630 ha        1 032      0.151500
     40 H31A        4.7360   -1.1190    4.3080 ha        1 032      0.151500
     41 H32         5.0050   -3.7810    3.3400 hc        1 032      0.101500
     42 H32A        5.0300   -3.3850    4.8870 hc        1 032      0.101500
     43 H33         6.9400   -1.9580    4.3190 hc        1 032      0.077667
     44 H33A        7.0040   -2.7790    2.9480 hc        1 032      0.077667
     45 H33B        7.2290   -3.5320    4.3420 hc        1 032      0.077667
     46 H08        -0.4740    1.4440   -5.5350 ha        1 032      0.159750
     47 H09        -1.0430    1.0000   -7.7840 ha        1 032      0.159750
     48 H11        -4.9840    0.6990   -6.7270 ha        1 032      0.150000
     49 H12        -4.4150    1.1440   -4.4780 ha        1 032      0.157500
     50 O19        -3.5380    0.4570    0.8880 o         1 032     -0.270000
     51 H18        -1.0890    4.6320    0.1680 DU        1 032      0.221500
@<TRIPOS>BOND
     1    1   30 1   
     2    1   32 1   
     3    2   12 1   
     4    2   13 1   
     5    3   17 1   
     6    3   50 1   
     7    4    5 1   
     8    4   20 1   
     9    5   21 1   
    10    6   18 1   
    11    6   34 1   
    12    7   17 1   
    13    7   19 1   
    14    8   11 1   
    15    9   10 1   
    16    9   35 1   
    17   11   36 1   
    18   12   15 1   
    19   13   14 1   
    20   14   15 1   
    21   16   31 1   
    22   18   37 1   
    23   21   22 1   
    24   21   38 1   
    25   22   23 1   
    26   22   24 1   
    27   25   26 1   
    28   25   39 1   
    29   25   40 1   
    30   26   27 1   
    31   26   41 1   
    32   26   42 1   
    33   27   43 1   
    34   27   44 1   
    35   27   45 1   
    36   28   29 1   
    37   28   46 1   
    38   29   47 1   
    39   30   48 1   
    40   31   49 1   
@<TRIPOS>SUBSTRUCTURE
     1 032         1 TEMP              0 ****  ****    0 ROOT
