@<TRIPOS>MOLECULE
032
   51    54     1     0     0
SMALL
bcc


@<TRIPOS>ATOM
      1 C10        -7.7920    0.7660   -1.0910 ca        1 032      0.019400
      2 C15         0.2390   -1.7730    1.2860 cc        1 032     -0.028100
      3 C17         0.0810    0.7400    0.8190 c         1 032      0.630900
      4 C20         2.4510    0.9250    0.0030 ca        1 032      0.138900
      5 C21         3.8490    1.1220    0.2200 ca        1 032      0.108600
      6 C22         4.2950    1.3060    1.5460 ca        1 032     -0.117000
      7 C24         2.0310    1.0790    2.3870 ca        1 032      0.156900
      8 C01        -4.1430   -1.0710    0.1040 cp        1 032     -0.170300
      9 C02        -4.1070   -2.4760    0.3580 ca        1 032      0.424200
     10 N03        -3.0310   -3.1690    0.7380 nb        1 032     -0.662000
     11 C04        -2.9760   -0.3230    0.2580 ca        1 032     -0.031000
     12 N14        -0.6110   -2.8670    1.2660 na        1 032     -0.273100
     13 C16        -0.4490   -0.6060    0.9190 cd        1 032     -0.225400
     14 C05        -1.8170   -0.9920    0.6550 ca        1 032     -0.154100
     15 C06        -1.8940   -2.4260    0.8820 ca        1 032      0.410800
     16 C07        -5.3940   -0.4430   -0.3070 cp        1 032     -0.031000
     17 C18         1.5440    0.8990    1.0790 ca        1 032     -0.208600
     18 C23         3.4060    1.2760    2.6090 ca        1 032     -0.157000
     19 F26         1.9880    0.7760   -1.2620 f         1 032     -0.124900
     20 N27         4.7310    1.1550   -0.8690 nh        1 032     -0.776500
     21 S28         6.2870    0.6610   -0.9260 s6        1 032      1.459900
     22 O29         6.8390    1.1460   -2.1270 o         1 032     -0.642800
     23 O30         6.9630    0.9690    0.2680 o         1 032     -0.642800
     24 C31         6.1320   -1.0440   -1.0360 c3        1 032     -0.326600
     25 C32         7.4950   -1.6980   -1.1390 c3        1 032     -0.057400
     26 C33         7.3870   -3.1970   -1.2380 c3        1 032     -0.087100
     27 C08        -6.2640   -1.0980   -1.1910 ca        1 032     -0.111500
     28 C09        -7.4580   -0.4990   -1.5840 ca        1 032     -0.123000
     29 C11        -6.9330    1.4320   -0.2100 ca        1 032     -0.123000
     30 C12        -5.7400    0.8270    0.1770 ca        1 032     -0.111500
     31 CL13       -9.2490    1.4990   -1.5660 cl        1 032     -0.092400
     32 H15         1.2900   -1.8870    1.5650 h4        1 032      0.176000
     33 H22         5.3680    1.4820    1.7530 ha        1 032      0.188000
     34 H02        -5.0320   -3.0740    0.2490 h4        1 032      0.029100
     35 H04        -2.9470    0.7630    0.0710 ha        1 032      0.170000
     36 H23         3.7700    1.4230    3.6380 ha        1 032      0.164000
     37 HN27        4.3010    1.5080   -1.6990 hn        1 032      0.467800
     38 H31         5.6020   -1.4790   -0.1480 h1        1 032      0.112200
     39 H31A        5.5280   -1.3560   -1.9280 h1        1 032      0.112200
     40 H32         8.0270   -1.3000   -2.0460 hc        1 032      0.062200
     41 H32A        8.1060   -1.4230   -0.2360 hc        1 032      0.062200
     42 H33         6.8800   -3.6170   -0.3360 hc        1 032      0.038367
     43 H33A        6.8000   -3.4920   -2.1410 hc        1 032      0.038367
     44 H33B        8.4050   -3.6500   -1.3140 hc        1 032      0.038367
     45 H08        -5.9980   -2.0900   -1.5880 ha        1 032      0.142000
     46 H09        -8.1320   -1.0210   -2.2800 ha        1 032      0.149000
     47 H11        -7.1970    2.4280    0.1770 ha        1 032      0.149000
     48 H12        -5.0660    1.3500    0.8730 ha        1 032      0.142000
     49 O19        -0.6140    1.7220    0.5320 o         1 032     -0.509100
     50 H18        -0.3760   -3.7980    1.4970 hn        1 032      0.316700
     51 F25         1.1860    1.0680    3.4430 f         1 032     -0.121900
@<TRIPOS>BOND
     1    1   28 ar  
     2    1   29 ar  
     3    1   31 1   
     4    2   12 1   
     5    2   13 2   
     6    2   32 1   
     7    3   13 1   
     8    3   17 1   
     9    3   49 2   
    10    4    5 ar  
    11    4   17 ar  
    12    4   19 1   
    13    5    6 ar  
    14    5   20 1   
    15    6   18 ar  
    16    6   33 1   
    17    7   17 ar  
    18    7   18 ar  
    19    7   51 1   
    20    8    9 ar  
    21    8   11 ar  
    22    8   16 1   
    23    9   10 ar  
    24    9   34 1   
    25   10   15 ar  
    26   11   14 ar  
    27   11   35 1   
    28   12   15 1   
    29   12   50 1   
    30   13   14 1   
    31   14   15 ar  
    32   16   27 ar  
    33   16   30 ar  
    34   18   36 1   
    35   20   21 1   
    36   20   37 1   
    37   21   22 2   
    38   21   23 2   
    39   21   24 1   
    40   24   25 1   
    41   24   38 1   
    42   24   39 1   
    43   25   26 1   
    44   25   40 1   
    45   25   41 1   
    46   26   42 1   
    47   26   43 1   
    48   26   44 1   
    49   27   28 ar  
    50   27   45 1   
    51   28   46 1   
    52   29   30 ar  
    53   29   47 1   
    54   30   48 1   
@<TRIPOS>SUBSTRUCTURE
     1 032         1 TEMP              0 ****  ****    0 ROOT
