@<TRIPOS>MOLECULE
033
   59    62     1     0     0
SMALL
bcc


@<TRIPOS>ATOM
      1 C1         -0.5520   -0.1960    0.4940 ca        1 033     -0.151000
      2 C2          0.7540    0.1600    0.1700 ca        1 033     -0.065000
      3 C3          1.7050    0.1740    1.1880 ca        1 033     -0.129800
      4 C4          1.3060   -0.1740    2.5160 ca        1 033      0.082100
      5 C5          0.0030   -0.5320    2.8490 ca        1 033     -0.129000
      6 C6         -0.9210   -0.5350    1.8060 ca        1 033     -0.095000
      7 C7         15.1140   -2.5890   11.1390 c3        1 033     -0.053700
      8 C8         14.3660   -3.6900   11.8590 c3        1 033     -0.100600
      9 C9         16.1390   -3.1630   10.1810 c3        1 033     -0.100600
     10 C11         3.1220    0.4750    1.2690 cc        1 033     -0.064200
     11 C12         3.4890    0.3000    2.5850 cd        1 033     -0.062100
     12 O13         2.3930   -0.1010    3.3880 os        1 033     -0.209200
     13 C14         4.8110    0.4710    3.2200 c         1 033      0.713300
     14 N15         4.8930    0.2020    4.5800 n         1 033     -0.458100
     15 C16         6.0300    0.2840    5.3930 ca        1 033      0.100600
     16 O17         5.7780    0.8410    2.5300 o         1 033     -0.574100
     17 C18         5.8770    0.0510    6.7850 ca        1 033     -0.176000
     18 C19         6.9680    0.1200    7.6360 ca        1 033     -0.069500
     19 C20         8.2490    0.4130    7.1430 cp        1 033     -0.113000
     20 C21         8.4050    0.6340    5.7680 ca        1 033     -0.069500
     21 C22         7.3200    0.5800    4.9010 ca        1 033     -0.176000
     22 C27         9.3940    0.4780    8.0420 cp        1 033      0.098000
     23 C28        10.6530    0.0140    7.6350 ca        1 033     -0.153500
     24 C29        11.7410    0.0770    8.4970 ca        1 033      0.024000
     25 C30        11.6170    0.6190    9.7910 ca        1 033     -0.512500
     26 C31        10.3410    1.0730   10.1920 ca        1 033      0.024000
     27 C32         9.2540    1.0100    9.3400 ca        1 033     -0.153500
     28 S37        12.8800    0.7740   10.7860 sy        1 033      1.465200
     29 N38        13.1950   -0.9580   11.2420 n4        1 033     -0.717900
     30 O39        12.5370    1.3310   12.0240 o         1 033     -0.606300
     31 O40        14.0450    1.2330   10.1840 o         1 033     -0.606300
     32 C41        14.1690   -1.6700   10.3570 c3        1 033     -0.057500
     33 C42        13.3450   -2.4930    9.2650 c         1 033      0.915600
     34 O45        13.8540   -2.5440    8.1280 o         1 033     -0.769300
     35 O50        12.2340   -2.9420    9.6550 o         1 033     -0.769300
     36 H1         -1.3190   -0.2140   -0.2960 ha        1 033      0.140000
     37 H2          1.0310    0.4220   -0.8610 ha        1 033      0.146000
     38 H5         -0.2760   -0.7950    3.8770 ha        1 033      0.154000
     39 H6         -1.9660   -0.8110    2.0150 ha        1 033      0.141000
     40 H7         15.6650   -1.9700   11.9070 hc        1 033      0.026700
     41 H81        15.0840   -4.4500   12.2500 hc        1 033      0.049367
     42 H82        13.7890   -3.2830   12.7250 hc        1 033      0.049367
     43 H83        13.6500   -4.1950   11.1620 hc        1 033      0.049367
     44 H91        15.6300   -3.7030    9.3440 hc        1 033      0.049367
     45 H92        16.7610   -2.3460    9.7420 hc        1 033      0.049367
     46 H93        16.8090   -3.8730   10.7220 hc        1 033      0.049367
     47 H11         3.7670    0.7800    0.4460 ha        1 033      0.185000
     48 H15         4.0490   -0.0760    5.0380 hn        1 033      0.335500
     49 H18         4.8880   -0.1910    7.2040 ha        1 033      0.159500
     50 H19         6.8260   -0.0750    8.7110 ha        1 033      0.141500
     51 H21         9.4020    0.8660    5.3610 ha        1 033      0.141500
     52 H22         7.4860    0.7670    3.8270 ha        1 033      0.159500
     53 H28        10.7810   -0.4370    6.6360 ha        1 033      0.160500
     54 H29        12.7160   -0.3370    8.1610 ha        1 033      0.172000
     55 H31        10.2180    1.4960   11.2060 ha        1 033      0.172000
     56 H32         8.2730    1.3840    9.6720 ha        1 033      0.160500
     57 H38        12.3290   -1.5350   11.1740 hn        1 033      0.462300
     58 H41        14.7910   -0.8970    9.8180 hx        1 033      0.105700
     59 H382       13.5100   -1.0220   12.2090 hn        1 033      0.462300
@<TRIPOS>BOND
     1    1    2 ar  
     2    1    6 ar  
     3    1   36 1   
     4    2    3 ar  
     5    2   37 1   
     6    3    4 ar  
     7    3   10 1   
     8    4    5 ar  
     9    4   12 1   
    10    5    6 ar  
    11    5   38 1   
    12    6   39 1   
    13    7    8 1   
    14    7    9 1   
    15    7   32 1   
    16    7   40 1   
    17    8   41 1   
    18    8   42 1   
    19    8   43 1   
    20    9   44 1   
    21    9   45 1   
    22    9   46 1   
    23   10   11 2   
    24   10   47 1   
    25   11   12 1   
    26   11   13 1   
    27   13   14 1   
    28   13   16 2   
    29   14   15 1   
    30   14   48 1   
    31   15   17 ar  
    32   15   21 ar  
    33   17   18 ar  
    34   17   49 1   
    35   18   19 ar  
    36   18   50 1   
    37   19   20 ar  
    38   19   22 1   
    39   20   21 ar  
    40   20   51 1   
    41   21   52 1   
    42   22   23 ar  
    43   22   27 ar  
    44   23   24 ar  
    45   23   53 1   
    46   24   25 ar  
    47   24   54 1   
    48   25   26 ar  
    49   25   28 1   
    50   26   27 ar  
    51   26   55 1   
    52   27   56 1   
    53   28   29 1   
    54   28   30 2   
    55   28   31 2   
    56   29   32 1   
    57   29   57 1   
    58   29   59 1   
    59   32   33 1   
    60   32   58 1   
    61   33   34 1   
    62   33   35 1   
@<TRIPOS>SUBSTRUCTURE
     1 033         1 TEMP              0 ****  ****    0 ROOT
