@<TRIPOS>MOLECULE
033
   58    61     1     0     0
SMALL
bcc


@<TRIPOS>ATOM
      1 C1         11.1460   -0.5200   -0.1460 ca        1 033     -0.154000
      2 C2         10.3320   -0.2850    0.9590 ca        1 033     -0.072000
      3 C3          8.9590   -0.1630    0.7530 ca        1 033     -0.123800
      4 C4          8.4440   -0.2820   -0.5750 ca        1 033      0.079100
      5 C5          9.2500   -0.5180   -1.6850 ca        1 033     -0.126000
      6 C6         10.6170   -0.6340   -1.4410 ca        1 033     -0.103000
      7 C7         -7.6960   -1.6870    0.0850 c3        1 033     -0.061700
      8 C8         -8.8280   -1.6060   -0.9150 c3        1 033     -0.088100
      9 C9         -7.5610   -3.0900    0.6390 c3        1 033     -0.088100
     10 C11         7.8070    0.0750    1.6020 cc        1 033     -0.085200
     11 C12         6.7040    0.0850    0.7780 cd        1 033     -0.046100
     12 O13         7.0580   -0.1320   -0.5750 os        1 033     -0.205200
     13 C14         5.2760    0.2850    1.1200 c         1 033      0.706300
     14 N15         4.3690    0.2180    0.0820 n         1 033     -0.451100
     15 C16         2.9730    0.3810    0.1580 ca        1 033      0.057600
     16 O17         4.9720    0.4990    2.3100 o         1 033     -0.585100
     17 C18         2.2420    0.4270   -1.0550 ca        1 033     -0.167000
     18 C19         0.8630    0.5770   -1.0390 ca        1 033     -0.092000
     19 C20         0.1640    0.6830    0.1720 cp        1 033     -0.052000
     20 C21         0.8850    0.6340    1.3700 ca        1 033     -0.092000
     21 C22         2.2700    0.4880    1.3740 ca        1 033     -0.167000
     22 C27        -1.2900    0.8360    0.1760 cp        1 033      0.003000
     23 C28        -2.0770    0.1270    1.0940 ca        1 033     -0.148500
     24 C29        -3.4630    0.2650    1.0790 ca        1 033     -0.016500
     25 C30        -4.0910    1.1140    0.1630 ca        1 033     -0.333500
     26 C31        -3.3000    1.8240   -0.7440 ca        1 033     -0.016500
     27 C32        -1.9150    1.6900   -0.7440 ca        1 033     -0.148500
     28 S37        -5.7970    1.2850    0.1520 sy        1 033      1.499200
     29 N38        -6.3010    0.1630   -0.8310 n3        1 033     -0.913100
     30 O39        -6.0780    2.5740   -0.3860 o         1 033     -0.679800
     31 O40        -6.2290    1.0950    1.4910 o         1 033     -0.679800
     32 C41        -6.3540   -1.2560   -0.5470 c3        1 033      0.103500
     33 C42        -6.0540   -2.1070   -1.8420 c         1 033      0.919600
     34 O45        -6.3400   -1.6050   -2.9630 o         1 033     -0.824800
     35 O50        -5.5300   -3.2360   -1.6580 o         1 033     -0.824800
     36 H1         12.2330   -0.6200   -0.0040 ha        1 033      0.134000
     37 H2         10.7570   -0.1980    1.9680 ha        1 033      0.141000
     38 H5          8.8260   -0.6060   -2.6930 ha        1 033      0.153000
     39 H6         11.2980   -0.8210   -2.2850 ha        1 033      0.136000
     40 H7         -7.9280   -0.9920    0.9440 hc        1 033      0.030700
     41 H81        -8.5680   -2.1820   -1.8380 hc        1 033      0.033033
     42 H82        -9.7660   -2.0230   -0.4760 hc        1 033      0.033033
     43 H83        -9.0150   -0.5460   -1.2090 hc        1 033      0.033033
     44 H91        -7.1710   -3.7800   -0.1510 hc        1 033      0.033033
     45 H92        -6.8470   -3.1000    1.4970 hc        1 033      0.033033
     46 H93        -8.5510   -3.4610    0.9980 hc        1 033      0.033033
     47 H11         7.8150    0.2160    2.6810 ha        1 033      0.183000
     48 H15         4.7340    0.0570   -0.8330 hn        1 033      0.330500
     49 H18         2.7580    0.3390   -2.0230 ha        1 033      0.148500
     50 H19         0.3070    0.6010   -1.9900 ha        1 033      0.144000
     51 H21         0.3510    0.7150    2.3300 ha        1 033      0.144000
     52 H22         2.8020    0.4590    2.3390 ha        1 033      0.148500
     53 H28        -1.6000   -0.5530    1.8140 ha        1 033      0.131000
     54 H29        -4.0790   -0.2980    1.8020 ha        1 033      0.152500
     55 H31        -3.7860    2.5060   -1.4630 ha        1 033      0.152500
     56 H32        -1.3070    2.2560   -1.4650 ha        1 033      0.131000
     57 H38        -6.4930    0.3290   -1.8010 hn        1 033      0.484800
     58 H41        -5.5360   -1.4940    0.1980 h1        1 033      0.034700
@<TRIPOS>BOND
     1    1    2 ar  
     2    1    6 ar  
     3    1   36 1   
     4    2    3 ar  
     5    2   37 1   
     6    3    4 ar  
     7    3   10 1   
     8    4    5 ar  
     9    4   12 1   
    10    5    6 ar  
    11    5   38 1   
    12    6   39 1   
    13    7    8 1   
    14    7    9 1   
    15    7   32 1   
    16    7   40 1   
    17    8   41 1   
    18    8   42 1   
    19    8   43 1   
    20    9   44 1   
    21    9   45 1   
    22    9   46 1   
    23   10   11 2   
    24   10   47 1   
    25   11   12 1   
    26   11   13 1   
    27   13   14 1   
    28   13   16 2   
    29   14   15 1   
    30   14   48 1   
    31   15   17 ar  
    32   15   21 ar  
    33   17   18 ar  
    34   17   49 1   
    35   18   19 ar  
    36   18   50 1   
    37   19   20 ar  
    38   19   22 1   
    39   20   21 ar  
    40   20   51 1   
    41   21   52 1   
    42   22   23 ar  
    43   22   27 ar  
    44   23   24 ar  
    45   23   53 1   
    46   24   25 ar  
    47   24   54 1   
    48   25   26 ar  
    49   25   28 1   
    50   26   27 ar  
    51   26   55 1   
    52   27   56 1   
    53   28   29 1   
    54   28   30 2   
    55   28   31 2   
    56   29   32 1   
    57   29   57 1   
    58   32   33 1   
    59   32   58 1   
    60   33   34 1   
    61   33   35 1   
@<TRIPOS>SUBSTRUCTURE
     1 033         1 TEMP              0 ****  ****    0 ROOT
