@<TRIPOS>MOLECULE
033
   58    47     1     0     0
SMALL
bcc


@<TRIPOS>ATOM
      1 C1        -10.5050    0.5600   -4.7680 c1        1 033     -0.104500
      2 C2         -9.7740    0.8580   -3.6270 c1        1 033     -0.113750
      3 C3         -8.3790    0.6840   -3.6200 c1        1 033     -0.032500
      4 C4         -7.7400    0.2190   -4.7440 c1        1 033     -0.032500
      5 C5         -8.4810   -0.0820   -5.8990 c1        1 033     -0.113750
      6 C6         -9.8580    0.0900   -5.9050 c1        1 033     -0.104500
      7 C7          6.2510   -1.1080    5.1250 c3        1 033     -0.096000
      8 C8          7.5190   -1.4660    5.8750 c3        1 033     -0.210500
      9 C9          5.6970    0.1930    5.6640 c3        1 033     -0.210500
     10 C11        -7.4220    0.8920   -2.6400 c1        1 033     -0.099000
     11 C12        -6.1900    0.5510   -3.1670 c1        1 033     -0.070000
     12 O13        -6.3820    0.1370   -4.4620 o         1 033     -0.116000
     13 C14        -4.8750    0.6300   -2.4220 c1        1 033      0.380000
     14 N15        -3.6680    0.2530   -3.0690 n3        1 033     -0.304000
     15 C16        -2.4360    0.3060   -2.3630 c2        1 033      0.062000
     16 O17        -4.8530    0.9980   -1.2650 o         1 033     -0.347000
     17 C18        -1.8630   -0.8760   -1.9180 c2        1 033     -0.179000
     18 C19        -0.6580   -0.8470   -1.2340 c1        1 033     -0.091000
     19 C20        -0.0260    0.3630   -0.9940 c1        1 033     -0.032500
     20 C21        -0.5990    1.5440   -1.4380 c1        1 033     -0.113750
     21 C22        -1.8040    1.5160   -2.1230 c1        1 033     -0.155000
     22 C27         1.1790    0.3920   -0.3070 c1        1 033     -0.032500
     23 C28         2.3700    0.1980   -0.9890 c1        1 033     -0.104500
     24 C29         3.5720    0.1830   -0.2960 c1        1 033     -0.104500
     25 C30         3.5820    0.3620    1.0790 c1        1 033     -0.789000
     26 C31         2.3900    0.5560    1.7610 c1        1 033     -0.031000
     27 C32         1.1890    0.5710    1.0680 c1        1 033     -0.113750
     28 S37         5.1300    0.4960    1.9430 s4        1 033      2.052800
     29 N38         5.3490   -0.8070    2.9240 n2        1 033     -0.875000
     30 O39         5.2090    1.7240    2.6830 o         1 033     -0.564400
     31 O40         6.2260    0.6500    1.0290 o         1 033     -0.564400
     32 C41         6.5630   -0.9520    3.6530 c3        1 033     -0.053000
     33 C42         7.3020   -2.1750    3.1630 c2        1 033      0.318000
     34 O45         6.6750   -3.2450    2.9480 o         1 033     -0.562500
     35 O50         8.5520   -2.1380    3.0160 o         1 033     -0.562500
     36 H1        -11.4730    0.6810   -4.7730 ha        1 033      0.154000
     37 H2        -10.2280    1.1890   -2.8290 ha        1 033      0.140500
     38 H5         -8.0280   -0.4150   -6.6960 ha        1 033      0.140500
     39 H6        -10.3730   -0.1190   -6.7070 ha        1 033      0.154000
     40 H7          5.5910   -1.8170    5.2450 hc        1 033      0.090000
     41 H81         7.3440   -1.4480    6.8390 hc        1 033      0.070167
     42 H82         7.8110   -2.3630    5.6120 hc        1 033      0.070167
     43 H83         8.2210   -0.8170    5.6580 hc        1 033      0.070167
     44 H91         6.3960    0.8800    5.6420 hc        1 033      0.070167
     45 H92         4.9410    0.4800    5.1100 hc        1 033      0.070167
     46 H93         5.3950    0.0620    6.5870 hc        1 033      0.070167
     47 H11        -7.5920    1.1940   -1.7270 DU        1 033      0.183000
     48 H15        -3.6830   -0.0170   -3.9400 hn        1 033      0.243000
     49 H18        -2.2940   -1.7310   -2.1120 ha        1 033      0.128000
     50 H19        -0.2520   -1.6790   -0.9250 ha        1 033      0.147000
     51 H21        -0.1540    2.3960   -1.2690 ha        1 033      0.140500
     52 H22        -2.2080    2.3480   -2.4360 ha        1 033      0.166000
     53 H28         2.3630    0.0720   -1.9570 ha        1 033      0.154000
     54 H29         4.4120    0.0680   -0.7800 ha        1 033      0.154000
     55 H31         2.3990    0.7110    2.7240 ha        1 033      0.142000
     56 H32         0.3500    0.7070    1.5480 ha        1 033      0.140500
     57 H38         4.7040   -1.4490    2.9800 hn        1 033      0.262000
     58 H41         7.1190   -0.1600    3.5200 h1        1 033      0.107000
@<TRIPOS>BOND
     1    1    6 1   
     2    1   36 1   
     3    2    3 1   
     4    2   37 1   
     5    4    5 1   
     6    5   38 1   
     7    6   39 1   
     8    7    8 1   
     9    7    9 1   
    10    7   32 1   
    11    7   40 1   
    12    8   41 1   
    13    8   42 1   
    14    8   43 1   
    15    9   44 1   
    16    9   45 1   
    17    9   46 1   
    18   10   11 1   
    19   11   12 1   
    20   13   14 1   
    21   13   16 1   
    22   14   15 1   
    23   14   48 1   
    24   15   17 1   
    25   15   21 1   
    26   17   18 1   
    27   17   49 1   
    28   18   50 1   
    29   19   20 1   
    30   20   51 1   
    31   21   52 1   
    32   22   27 1   
    33   23   24 1   
    34   23   53 1   
    35   24   54 1   
    36   25   26 1   
    37   25   28 1   
    38   26   55 1   
    39   27   56 1   
    40   28   30 1   
    41   28   31 1   
    42   29   32 1   
    43   29   57 1   
    44   32   33 1   
    45   32   58 1   
    46   33   34 1   
    47   33   35 1   
@<TRIPOS>SUBSTRUCTURE
     1 033         1 TEMP              0 ****  ****    0 ROOT
