@<TRIPOS>MOLECULE
033
   59    62     1     0     0
SMALL
bcc


@<TRIPOS>ATOM
      1 C1         -0.5360   -0.1900    0.4720 ca        1 033     -0.151000
      2 C2          0.7680    0.1800    0.1560 ca        1 033     -0.065000
      3 C3          1.7170    0.1900    1.1770 ca        1 033     -0.129800
      4 C4          1.3160   -0.1760    2.5000 ca        1 033      0.082100
      5 C5          0.0140   -0.5470    2.8250 ca        1 033     -0.129000
      6 C6         -0.9060   -0.5460    1.7790 ca        1 033     -0.095000
      7 C7         15.1190   -2.5880   11.1320 c3        1 033     -0.053700
      8 C8         14.3780   -3.7040   11.8350 c3        1 033     -0.100600
      9 C9         16.1510   -3.1400   10.1690 c3        1 033     -0.100600
     10 C11         3.1300    0.5010    1.2660 cc        1 033     -0.064200
     11 C12         3.4940    0.3140    2.5810 cd        1 033     -0.062100
     12 O13         2.4000   -0.1040    3.3760 os        1 033     -0.209200
     13 C14         4.8130    0.4880    3.2230 c         1 033      0.713300
     14 N15         4.8930    0.2040    4.5800 ns        1 033     -0.458100
     15 C16         6.0270    0.2850    5.3970 ca        1 033      0.100600
     16 O17         5.7790    0.8740    2.5400 o         1 033     -0.574100
     17 C18         5.8720    0.0320    6.7850 ca        1 033     -0.176000
     18 C19         6.9600    0.0990    7.6410 ca        1 033     -0.069500
     19 C20         8.2400    0.4090    7.1560 cp        1 033     -0.113000
     20 C21         8.3980    0.6500    5.7840 ca        1 033     -0.069500
     21 C22         7.3160    0.5980    4.9130 ca        1 033     -0.176000
     22 C27         9.3820    0.4720    8.0580 cp        1 033      0.098000
     23 C28        10.6460    0.0240    7.6490 ca        1 033     -0.153500
     24 C29        11.7310    0.0850    8.5150 ca        1 033      0.024000
     25 C30        11.5990    0.6080    9.8170 ca        1 033     -0.512500
     26 C31        10.3170    1.0460   10.2190 ca        1 033      0.024000
     27 C32         9.2340    0.9850    9.3630 ca        1 033     -0.153500
     28 S37        12.8570    0.7610   10.8160 sy        1 033      1.465200
     29 N38        13.1850   -0.9750   11.2500 ny        1 033     -0.717900
     30 O39        12.5060    1.2970   12.0610 o         1 033     -0.606300
     31 O40        14.0200    1.2380   10.2250 o         1 033     -0.606300
     32 C41        14.1690   -1.6660   10.3590 c3        1 033     -0.057500
     33 C42        13.3540   -2.4820    9.2530 c         1 033      0.915600
     34 O45        13.8670   -2.5130    8.1180 o         1 033     -0.769300
     35 O50        12.2470   -2.9460    9.6340 o         1 033     -0.769300
     36 H1         -1.3000   -0.2050   -0.3210 ha        1 033      0.140000
     37 H2          1.0470    0.4560   -0.8710 ha        1 033      0.146000
     38 H5         -0.2660   -0.8250    3.8490 ha        1 033      0.154000
     39 H6         -1.9490   -0.8320    1.9820 ha        1 033      0.141000
     40 H7         15.6630   -1.9740   11.9090 hc        1 033      0.026700
     41 H81        13.7960   -3.3130   12.7040 hc        1 033      0.049367
     42 H82        13.6680   -4.2060   11.1290 hc        1 033      0.049367
     43 H83        15.1020   -4.4640   12.2170 hc        1 033      0.049367
     44 H91        15.6490   -3.6740    9.3230 hc        1 033      0.049367
     45 H92        16.8260   -3.8520   10.7020 hc        1 033      0.049367
     46 H93        16.7670   -2.3120    9.7420 hc        1 033      0.049367
     47 H11         3.7760    0.8200    0.4490 ha        1 033      0.185000
     48 H15         4.0500   -0.0860    5.0310 hn        1 033      0.335500
     49 H18         4.8840   -0.2240    7.1990 ha        1 033      0.159500
     50 H19         6.8170   -0.1120    8.7120 ha        1 033      0.141500
     51 H21         9.3940    0.8960    5.3830 ha        1 033      0.141500
     52 H22         7.4830    0.8010    3.8420 ha        1 033      0.159500
     53 H28        10.7810   -0.4130    6.6450 ha        1 033      0.160500
     54 H29        12.7100   -0.3160    8.1770 ha        1 033      0.172000
     55 H31        10.1870    1.4540   11.2390 ha        1 033      0.172000
     56 H32         8.2480    1.3460    9.6980 ha        1 033      0.160500
     57 H38        12.3250   -1.5580   11.1720 hn        1 033      0.462300
     58 H41        14.7860   -0.8810    9.8320 hx        1 033      0.105700
     59 H382       13.4980   -1.0490   12.2180 hn        1 033      0.462300
@<TRIPOS>BOND
     1    1    2 ar  
     2    1    6 ar  
     3    1   36 1   
     4    2    3 ar  
     5    2   37 1   
     6    3    4 ar  
     7    3   10 1   
     8    4    5 ar  
     9    4   12 1   
    10    5    6 ar  
    11    5   38 1   
    12    6   39 1   
    13    7    8 1   
    14    7    9 1   
    15    7   32 1   
    16    7   40 1   
    17    8   41 1   
    18    8   42 1   
    19    8   43 1   
    20    9   44 1   
    21    9   45 1   
    22    9   46 1   
    23   10   11 2   
    24   10   47 1   
    25   11   12 1   
    26   11   13 1   
    27   13   14 1   
    28   13   16 2   
    29   14   15 1   
    30   14   48 1   
    31   15   17 ar  
    32   15   21 ar  
    33   17   18 ar  
    34   17   49 1   
    35   18   19 ar  
    36   18   50 1   
    37   19   20 ar  
    38   19   22 1   
    39   20   21 ar  
    40   20   51 1   
    41   21   52 1   
    42   22   23 ar  
    43   22   27 ar  
    44   23   24 ar  
    45   23   53 1   
    46   24   25 ar  
    47   24   54 1   
    48   25   26 ar  
    49   25   28 1   
    50   26   27 ar  
    51   26   55 1   
    52   27   56 1   
    53   28   29 1   
    54   28   30 2   
    55   28   31 2   
    56   29   32 1   
    57   29   57 1   
    58   29   59 1   
    59   32   33 1   
    60   32   58 1   
    61   33   34 1   
    62   33   35 1   
@<TRIPOS>SUBSTRUCTURE
     1 033         1 TEMP              0 ****  ****    0 ROOT
