@<TRIPOS>MOLECULE
033
   60    63     1     0     0
SMALL
bcc


@<TRIPOS>ATOM
      1 C1          1.9890    1.5860    0.8600 ca        1 033     -0.143000
      2 C2          2.9030    0.5600    0.6500 ca        1 033     -0.035000
      3 C3          3.3850   -0.1310    1.7660 ca        1 033     -0.160800
      4 C4          2.9240    0.2430    3.0680 ca        1 033      0.112100
      5 C5          2.0080    1.2680    3.2870 ca        1 033     -0.138000
      6 C6          1.5500    1.9330    2.1510 ca        1 033     -0.052000
      7 C7         13.9970   -2.2110    9.7690 c3        1 033     -0.057700
      8 C8         13.7280   -3.1230   10.9470 c3        1 033     -0.100600
      9 C9         14.0340   -2.9920    8.4720 c3        1 033     -0.100600
     10 C11         4.3060   -1.2230    1.9650 cc        1 033      0.053800
     11 C12         4.3580   -1.4520    3.3320 cd        1 033     -0.147100
     12 O13         3.5170   -0.5570    4.0480 os        1 033     -0.227200
     13 C14         5.0980   -2.4340    4.0740 c         1 033      0.601300
     14 N15         4.9540   -2.3920    5.5880 n4        1 033     -0.532200
     15 C16         6.0030   -1.5790    6.2120 ca        1 033     -0.054400
     16 O17         5.8130   -3.3250    3.6320 o         1 033     -0.427100
     17 C18         7.1800   -2.2000    6.6690 ca        1 033     -0.103000
     18 C19         8.1590   -1.4290    7.2870 ca        1 033     -0.088000
     19 C20         7.9690   -0.0450    7.4480 cp        1 033     -0.013000
     20 C21         6.8000    0.5650    6.9840 ca        1 033     -0.088000
     21 C22         5.8120   -0.1950    6.3620 ca        1 033     -0.103000
     22 C27         9.0320    0.6970    8.1330 cp        1 033      0.051000
     23 C28        10.2110    1.0220    7.4430 ca        1 033     -0.121500
     24 C29        11.3360    1.4090    8.1560 ca        1 033      0.026000
     25 C30        11.3110    1.4840    9.5630 ca        1 033     -0.478500
     26 C31        10.0720    1.3300   10.2140 ca        1 033      0.026000
     27 C32         8.9380    0.9460    9.5080 ca        1 033     -0.121500
     28 S37        12.6880    1.6090   10.4100 sy        1 033      1.467200
     29 N38        12.9940   -0.1510   10.8160 n4        1 033     -0.716900
     30 O39        12.5220    2.1670   11.6720 o         1 033     -0.594300
     31 O40        13.7860    1.9730    9.6410 o         1 033     -0.594300
     32 C41        12.9390   -1.1030    9.6590 c3        1 033     -0.016500
     33 C42        11.4800   -1.7190    9.5590 c         1 033      0.925600
     34 O45        10.8040   -1.7220   10.6220 o         1 033     -0.793300
     35 O50        11.1040   -2.0950    8.4250 o         1 033     -0.793300
     36 H1          1.5930    2.1450   -0.0040 ha        1 033      0.163000
     37 H2          3.2400    0.2950   -0.3640 ha        1 033      0.163000
     38 H5          1.6660    1.5340    4.2960 ha        1 033      0.166000
     39 H6          0.8210    2.7530    2.2670 ha        1 033      0.162000
     40 H7         15.0090   -1.7300    9.9100 hc        1 033      0.037700
     41 H81        14.4170   -4.0020   10.9150 hc        1 033      0.051367
     42 H82        13.8930   -2.5880   11.9130 hc        1 033      0.051367
     43 H83        12.6720   -3.4930   10.9230 hc        1 033      0.051367
     44 H91        13.0260   -3.4190    8.2420 hc        1 033      0.051367
     45 H92        14.7720   -3.8260    8.5550 hc        1 033      0.051367
     46 H93        14.3370   -2.3290    7.6260 hc        1 033      0.051367
     47 H11         4.8510   -1.7640    1.1870 ha        1 033      0.199000
     48 H15         4.0370   -1.9970    5.8290 hn        1 033      0.468300
     49 H18         7.3470   -3.2840    6.5490 ha        1 033      0.164000
     50 H19         9.0950   -1.9060    7.6670 ha        1 033      0.203000
     51 H21         6.6520    1.6500    7.1070 ha        1 033      0.203000
     52 H22         4.8960    0.2970    5.9910 ha        1 033      0.164000
     53 H28        10.2640    0.9060    6.3490 ha        1 033      0.162500
     54 H29        12.2810    1.6170    7.6200 ha        1 033      0.168500
     55 H31        10.0130    1.4650   11.3100 ha        1 033      0.168500
     56 H32         7.9930    0.7660   10.0450 ha        1 033      0.162500
     57 H38        12.2700   -0.5030   11.4750 hn        1 033      0.464300
     58 H41        13.1400   -0.5050    8.7250 hx        1 033      0.078700
     59 H152        5.0230   -3.3520    5.9510 hn        1 033      0.468300
     60 H382       13.8930   -0.2580   11.2840 hn        1 033      0.464300
@<TRIPOS>BOND
     1    1    2 ar  
     2    1    6 ar  
     3    1   36 1   
     4    2    3 ar  
     5    2   37 1   
     6    3    4 ar  
     7    3   10 1   
     8    4    5 ar  
     9    4   12 1   
    10    5    6 ar  
    11    5   38 1   
    12    6   39 1   
    13    7    8 1   
    14    7    9 1   
    15    7   32 1   
    16    7   40 1   
    17    8   41 1   
    18    8   42 1   
    19    8   43 1   
    20    9   44 1   
    21    9   45 1   
    22    9   46 1   
    23   10   11 2   
    24   10   47 1   
    25   11   12 1   
    26   11   13 1   
    27   13   14 1   
    28   13   16 2   
    29   14   15 1   
    30   14   48 1   
    31   14   59 1   
    32   15   17 ar  
    33   15   21 ar  
    34   17   18 ar  
    35   17   49 1   
    36   18   19 ar  
    37   18   50 1   
    38   19   20 ar  
    39   19   22 1   
    40   20   21 ar  
    41   20   51 1   
    42   21   52 1   
    43   22   23 ar  
    44   22   27 ar  
    45   23   24 ar  
    46   23   53 1   
    47   24   25 ar  
    48   24   54 1   
    49   25   26 ar  
    50   25   28 1   
    51   26   27 ar  
    52   26   55 1   
    53   27   56 1   
    54   28   29 1   
    55   28   30 2   
    56   28   31 2   
    57   29   32 1   
    58   29   57 1   
    59   29   60 1   
    60   32   33 1   
    61   32   58 1   
    62   33   34 1   
    63   33   35 1   
@<TRIPOS>SUBSTRUCTURE
     1 033         1 TEMP              0 ****  ****    0 ROOT
