@<TRIPOS>MOLECULE
034
   57    47     1     0     0
SMALL
bcc


@<TRIPOS>ATOM
      1 C1         -5.2930   -1.6390    2.7430 c3        1 034     -0.207500
      2 C2         -3.7720   -1.7740    2.9420 c3        1 034     -0.053000
      3 C3         -3.4760   -1.9240    4.4180 c3        1 034     -0.207500
      4 CL3         0.5230   -5.2710    1.6290 cl        1 034      0.011000
      5 C4         -3.2410   -3.0470    2.1640 c2        1 034      0.012000
      6 O5         -3.5610   -4.3500    2.4380 os        1 034     -0.064000
      7 N6         -2.8690   -5.1660    1.5340 n2        1 034      0.000000
      8 CL6        -3.1910   -4.2540   -2.4430 cl        1 034      0.008000
      9 C7         -2.1390   -4.3670    0.7210 c2        1 034     -0.078000
     10 C8         -2.3630   -3.0400    1.1060 c1        1 034     -0.161000
     11 C9         -1.7950   -1.7970    0.4200 c2        1 034      0.050000
     12 O10        -0.6300   -1.3440    1.1320 os        1 034     -0.236000
     13 C11         0.0340   -0.2060    0.5090 c2        1 034      0.016000
     14 C12        -0.5990    1.0340    0.4790 c2        1 034     -0.135000
     15 C13         0.0360    2.1220   -0.0860 c1        1 034     -0.124000
     16 C14         1.3100    1.9800   -0.6280 c1        1 034     -0.052000
     17 C15         1.9390    0.7510   -0.5990 c1        1 034     -0.098000
     18 C16         1.2960   -0.3490   -0.0260 c1        1 034     -0.152000
     19 C17         1.9630    3.1010   -1.2140 c1        1 034     -0.052000
     20 C18         1.8860    3.3540   -2.5780 c1        1 034     -0.128500
     21 C19         2.6000    4.4100   -3.1300 c1        1 034     -0.128500
     22 C20         3.4040    5.2270   -2.3050 c1        1 034     -0.010000
     23 N21         4.1170    6.3870   -2.5600 n1        1 034     -0.187000
     24 C22         4.6220    6.8410   -1.3770 c1        1 034     -0.026000
     25 C23         4.2290    5.9680   -0.3800 c1        1 034     -0.226000
     26 C24         3.4780    4.9740   -0.9570 c1        1 034     -0.082000
     27 C25         2.7570    3.9070   -0.4000 c1        1 034     -0.098000
     28 C26         5.4420    8.1020   -1.2420 c1        1 034      0.378000
     29 O27         6.6870    8.0680   -1.4480 o         1 034     -0.548500
     30 O28         4.9010    9.1650   -0.8410 o         1 034     -0.548500
     31 C29        -1.2990   -4.7920   -0.3040 c1        1 034     -0.005000
     32 C30        -0.0430   -5.2870   -0.0040 c1        1 034     -0.034000
     33 C32         0.7490   -5.8220   -1.0080 c1        1 034     -0.130000
     34 C33         0.2870   -5.8600   -2.3030 c1        1 034     -0.128500
     35 C34        -0.9790   -5.3610   -2.6060 c1        1 034     -0.128500
     36 C35        -1.7660   -4.8300   -1.6120 c1        1 034     -0.032000
     37 H1         -5.7380   -2.4640    3.0410 hc        1 034      0.081333
     38 H1A        -5.4860   -1.4870    1.8000 hc        1 034      0.081333
     39 H1B        -5.6290   -0.8710    3.2770 hc        1 034      0.081333
     40 H2         -3.3200   -0.9630    2.5950 hc        1 034      0.141000
     41 H3         -3.7480   -1.0960    4.8970 hc        1 034      0.081333
     42 H3A        -3.9790   -2.6880    4.7740 hc        1 034      0.081333
     43 H3B        -2.5100   -2.0760    4.5470 hc        1 034      0.081333
     44 H9         -1.5500   -2.0150   -0.4960 h4        1 034      0.091500
     45 H9A        -2.4790   -1.0800    0.4180 h4        1 034      0.091500
     46 H12        -1.5080    1.1360    0.8660 ha        1 034      0.136000
     47 H13        -0.3830    3.0280   -0.0270 ha        1 034      0.143000
     48 H15         2.8550    0.6500   -0.9880 ha        1 034      0.131000
     49 H16         1.7420   -1.2230   -0.0060 ha        1 034      0.133000
     50 H18         1.4660    2.8260   -3.2810 ha        1 034      0.131250
     51 H19         2.2850    4.6250   -4.0450 ha        1 034      0.131250
     52 H23         4.4500    6.0460    0.5890 DU        1 034      0.210500
     53 H25         2.8320    3.7080    0.5760 ha        1 034      0.131000
     54 H32         1.6640   -6.1250   -0.8030 ha        1 034      0.152000
     55 H33         0.8560   -6.2430   -3.0210 ha        1 034      0.131250
     56 H34        -1.2980   -5.3880   -3.4960 ha        1 034      0.131250
     57 HN21        4.2320    6.7890   -3.3980 DU        1 034      0.210500
@<TRIPOS>BOND
     1    1    2 1   
     2    1   37 1   
     3    1   38 1   
     4    1   39 1   
     5    2    3 1   
     6    2    5 1   
     7    2   40 1   
     8    3   41 1   
     9    3   42 1   
    10    3   43 1   
    11    4   32 1   
    12    5    6 1   
    13    5   10 1   
    14    6    7 1   
    15    7    9 1   
    16    8   36 1   
    17    9   10 1   
    18    9   31 1   
    19   11   12 1   
    20   11   44 1   
    21   11   45 1   
    22   12   13 1   
    23   13   14 1   
    24   13   18 1   
    25   14   15 1   
    26   14   46 1   
    27   15   47 1   
    28   16   17 1   
    29   17   48 1   
    30   18   49 1   
    31   19   27 1   
    32   20   21 1   
    33   20   50 1   
    34   21   51 1   
    35   22   26 1   
    36   23   24 1   
    37   24   25 1   
    38   25   26 1   
    39   27   53 1   
    40   28   29 1   
    41   28   30 1   
    42   31   36 1   
    43   32   33 1   
    44   33   54 1   
    45   34   35 1   
    46   34   55 1   
    47   35   56 1   
@<TRIPOS>SUBSTRUCTURE
     1 034         1 TEMP              0 ****  ****    0 ROOT
