@<TRIPOS>MOLECULE
034
   57    61     1     0     0
SMALL
bcc


@<TRIPOS>ATOM
      1 C1          4.6500   -4.3770   -0.8090 c3        1 034     -0.090600
      2 C2          3.8770   -3.5340    0.1880 c3        1 034     -0.107000
      3 C3          3.9700   -4.1320    1.5800 c3        1 034     -0.090600
      4 CL3         3.8110    1.6520    2.4200 cl        1 034     -0.066900
      5 C4          4.3660   -2.1400    0.1830 cc        1 034      0.302000
      6 O5          5.7050   -1.9160    0.5950 os        1 034     -0.119100
      7 N6          5.9920   -0.6330    0.5420 nc        1 034     -0.335300
      8 CL6         5.8920    1.1270   -2.5250 cl        1 034     -0.066900
      9 C7          4.9070    0.0450    0.1130 cd        1 034      0.362800
     10 C8          3.8180   -0.9110   -0.1360 cd        1 034     -0.301900
     11 C9          2.4850   -0.5460   -0.6450 c3        1 034      0.207700
     12 O10         1.5460   -1.5380   -0.2070 os        1 034     -0.341900
     13 C11         0.2130   -1.1660   -0.3270 ca        1 034      0.091100
     14 C12        -0.2530   -0.1950   -1.2180 ca        1 034     -0.171500
     15 C13        -1.6200    0.0610   -1.2920 ca        1 034     -0.106000
     16 C14        -2.5320   -0.6420   -0.4920 cp        1 034     -0.013000
     17 C15        -2.0430   -1.6160    0.3950 ca        1 034     -0.106000
     18 C16        -0.6820   -1.8800    0.4880 ca        1 034     -0.171500
     19 C17        -3.9640   -0.3670   -0.5760 cp        1 034     -0.108000
     20 C18        -4.5520   -0.1160   -1.8360 ca        1 034     -0.127000
     21 C19        -5.9040    0.1490   -1.9720 ca        1 034     -0.152000
     22 C20        -6.6960    0.1700   -0.8150 ca        1 034     -0.056200
     23 N21        -8.0510    0.4050   -0.6270 na        1 034     -0.165400
     24 C22        -8.3490    0.3100    0.7400 cc        1 034     -0.072300
     25 C23        -7.1800    0.0120    1.4480 cd        1 034     -0.215200
     26 C24        -6.1060   -0.0850    0.4920 ca        1 034     -0.092800
     27 C25        -4.7440   -0.3520    0.5830 ca        1 034     -0.076000
     28 C26        -9.7700    0.5210    1.2500 c         1 034      0.927800
     29 O27        -9.9600    0.4180    2.4880 o         1 034     -0.813800
     30 O28       -10.6550    0.7860    0.3880 o         1 034     -0.813800
     31 C29         4.8280    1.4880   -0.0730 ca        1 034     -0.116500
     32 C30         4.3190    2.3150    0.9440 ca        1 034      0.045900
     33 C32         4.2220    3.6980    0.7560 ca        1 034     -0.131000
     34 C33         4.6410    4.2650   -0.4450 ca        1 034     -0.105000
     35 C34         5.1590    3.4640   -1.4600 ca        1 034     -0.131000
     36 C35         5.2540    2.0810   -1.2730 ca        1 034      0.045900
     37 H1          4.2590   -5.4230   -0.8000 hc        1 034      0.042867
     38 H1A         4.5380   -3.9630   -1.8400 hc        1 034      0.042867
     39 H1B         5.7350   -4.3960   -0.5470 hc        1 034      0.042867
     40 H2          2.7900   -3.5000   -0.1210 hc        1 034      0.097700
     41 H3          5.0300   -4.1410    1.9310 hc        1 034      0.042867
     42 H3A         3.3610   -3.5360    2.3010 hc        1 034      0.042867
     43 H3B         3.5860   -5.1800    1.5660 hc        1 034      0.042867
     44 H9          2.1850    0.4670   -0.2620 h1        1 034      0.054700
     45 H9A         2.4910   -0.5350   -1.7710 h1        1 034      0.054700
     46 H12         0.4420    0.3670   -1.8570 ha        1 034      0.133000
     47 H13        -1.9900    0.8330   -1.9840 ha        1 034      0.140000
     48 H15        -2.7510   -2.1770    1.0240 ha        1 034      0.140000
     49 H16        -0.2970   -2.6400    1.1810 ha        1 034      0.133000
     50 H18        -3.9170   -0.1450   -2.7340 ha        1 034      0.111000
     51 H19        -6.3450    0.3360   -2.9600 ha        1 034      0.119000
     52 H23        -7.1110   -0.1180    2.5230 ha        1 034      0.160000
     53 H25        -4.2870   -0.5390    1.5650 ha        1 034      0.123000
     54 H32         3.8140    4.3350    1.5560 ha        1 034      0.153000
     55 H33         4.5620    5.3530   -0.5930 ha        1 034      0.143000
     56 H34         5.4920    3.9160   -2.4070 ha        1 034      0.153000
     57 HN21       -8.7260    0.6070   -1.3170 hn        1 034      0.309700
@<TRIPOS>BOND
     1    1    2 1   
     2    1   37 1   
     3    1   38 1   
     4    1   39 1   
     5    2    3 1   
     6    2    5 1   
     7    2   40 1   
     8    3   41 1   
     9    3   42 1   
    10    3   43 1   
    11    4   32 1   
    12    5    6 1   
    13    5   10 2   
    14    6    7 1   
    15    7    9 2   
    16    8   36 1   
    17    9   10 1   
    18    9   31 1   
    19   10   11 1   
    20   11   12 1   
    21   11   44 1   
    22   11   45 1   
    23   12   13 1   
    24   13   14 ar  
    25   13   18 ar  
    26   14   15 ar  
    27   14   46 1   
    28   15   16 ar  
    29   15   47 1   
    30   16   17 ar  
    31   16   19 1   
    32   17   18 ar  
    33   17   48 1   
    34   18   49 1   
    35   19   20 ar  
    36   19   27 ar  
    37   20   21 ar  
    38   20   50 1   
    39   21   22 ar  
    40   21   51 1   
    41   22   23 1   
    42   22   26 ar  
    43   23   24 1   
    44   23   57 1   
    45   24   25 2   
    46   24   28 1   
    47   25   26 1   
    48   25   52 1   
    49   26   27 ar  
    50   27   53 1   
    51   28   29 1   
    52   28   30 1   
    53   31   32 ar  
    54   31   36 ar  
    55   32   33 ar  
    56   33   34 ar  
    57   33   54 1   
    58   34   35 ar  
    59   34   55 1   
    60   35   36 ar  
    61   35   56 1   
@<TRIPOS>SUBSTRUCTURE
     1 034         1 TEMP              0 ****  ****    0 ROOT
