@<TRIPOS>MOLECULE
034
   57    61     1     0     0
SMALL
bcc


@<TRIPOS>ATOM
      1 C1          0.2860    0.0240    0.1950 c3        1 034     -0.090600
      2 C2          1.8020   -0.0290    0.1360 c3        1 034     -0.107000
      3 C3          2.3890   -0.1260    1.5320 c3        1 034     -0.090600
      4 CL3         6.0010   -3.2360   -1.8550 cl        1 034     -0.066900
      5 C4          2.2530   -1.1590   -0.7030 cc        1 034      0.302000
      6 O5          1.9380   -2.4680   -0.2570 os        1 034     -0.119100
      7 N6          2.4060   -3.3640   -1.0990 nc        1 034     -0.335300
      8 CL6         1.2820   -3.4690   -4.4520 cl        1 034     -0.066900
      9 C7          3.0370   -2.7310   -2.1110 cd        1 034      0.362800
     10 C8          2.9550   -1.2810   -1.8880 cd        1 034     -0.301900
     11 C9          3.5030   -0.2610   -2.7990 c3        1 034      0.207700
     12 O10         3.7890    0.9200   -2.0390 os        1 034     -0.341900
     13 C11         4.6030    1.8420   -2.6840 ca        1 034      0.091100
     14 C12         4.7440    1.9260   -4.0730 ca        1 034     -0.171500
     15 C13         5.5480    2.9250   -4.6160 ca        1 034     -0.106000
     16 C14         6.2120    3.8460   -3.7940 cp        1 034     -0.013000
     17 C15         6.0550    3.7450   -2.4010 ca        1 034     -0.106000
     18 C16         5.2630    2.7510   -1.8400 ca        1 034     -0.171500
     19 C17         7.0540    4.8900   -4.3720 cp        1 034     -0.108000
     20 C18         6.6410    5.5420   -5.5550 ca        1 034     -0.127000
     21 C19         7.4000    6.5390   -6.1440 ca        1 034     -0.152000
     22 C20         8.6130    6.8960   -5.5380 ca        1 034     -0.056200
     23 N21         9.5770    7.8330   -5.8810 na        1 034     -0.165400
     24 C22        10.6110    7.7960   -4.9350 cc        1 034     -0.072300
     25 C23        10.3200    6.8290   -3.9680 cd        1 034     -0.215200
     26 C24         9.0550    6.2330   -4.3170 ca        1 034     -0.092800
     27 C25         8.2580    5.2400   -3.7570 ca        1 034     -0.076000
     28 C26        11.8170    8.7230   -5.0540 c         1 034      0.927800
     29 O27        12.7020    8.6330   -4.1660 o         1 034     -0.813800
     30 O28        11.8370    9.5130   -6.0390 o         1 034     -0.813800
     31 C29         3.6910   -3.3810   -3.2400 ca        1 034     -0.116500
     32 C30         5.0710   -3.6440   -3.2140 ca        1 034      0.045900
     33 C32         5.7030   -4.2460   -4.3080 ca        1 034     -0.131000
     34 C33         4.9570   -4.5960   -5.4310 ca        1 034     -0.105000
     35 C34         3.5860   -4.3540   -5.4710 ca        1 034     -0.131000
     36 C35         2.9560   -3.7510   -4.3790 ca        1 034      0.045900
     37 H1         -0.0350    0.8900    0.8220 hc        1 034      0.042867
     38 H1A        -0.1190   -0.9150    0.6420 hc        1 034      0.042867
     39 H1B        -0.1410    0.1460   -0.8290 hc        1 034      0.042867
     40 H2          2.1860    0.9150   -0.3560 hc        1 034      0.097700
     41 H3          2.0610   -1.0710    2.0280 hc        1 034      0.042867
     42 H3A         2.0470    0.7420    2.1450 hc        1 034      0.042867
     43 H3B         3.5050   -0.1150    1.4860 hc        1 034      0.042867
     44 H9          2.7430   -0.0010   -3.5890 h1        1 034      0.054700
     45 H9A         4.4400   -0.6410   -3.2910 h1        1 034      0.054700
     46 H12         4.2310    1.2180   -4.7370 ha        1 034      0.133000
     47 H13         5.6700    2.9890   -5.7080 ha        1 034      0.140000
     48 H15         6.5680    4.4670   -1.7460 ha        1 034      0.140000
     49 H16         5.1390    2.6700   -0.7520 ha        1 034      0.133000
     50 H18         5.6820    5.2550   -6.0130 ha        1 034      0.111000
     51 H19         7.0610    7.0380   -7.0610 ha        1 034      0.119000
     52 H23        10.9430    6.5820   -3.1160 ha        1 034      0.160000
     53 H25         8.5860    4.7290   -2.8400 ha        1 034      0.123000
     54 H32         6.7860   -4.4410   -4.2790 ha        1 034      0.153000
     55 H33         5.4550   -5.0680   -6.2920 ha        1 034      0.143000
     56 H34         3.0010   -4.6360   -6.3600 ha        1 034      0.153000
     57 HN21        9.5700    8.4430   -6.6560 hn        1 034      0.309700
@<TRIPOS>BOND
     1    1    2 1   
     2    1   37 1   
     3    1   38 1   
     4    1   39 1   
     5    2    3 1   
     6    2    5 1   
     7    2   40 1   
     8    3   41 1   
     9    3   42 1   
    10    3   43 1   
    11    4   32 1   
    12    5    6 1   
    13    5   10 2   
    14    6    7 1   
    15    7    9 2   
    16    8   36 1   
    17    9   10 1   
    18    9   31 1   
    19   10   11 1   
    20   11   12 1   
    21   11   44 1   
    22   11   45 1   
    23   12   13 1   
    24   13   14 ar  
    25   13   18 ar  
    26   14   15 ar  
    27   14   46 1   
    28   15   16 ar  
    29   15   47 1   
    30   16   17 ar  
    31   16   19 1   
    32   17   18 ar  
    33   17   48 1   
    34   18   49 1   
    35   19   20 ar  
    36   19   27 ar  
    37   20   21 ar  
    38   20   50 1   
    39   21   22 ar  
    40   21   51 1   
    41   22   23 1   
    42   22   26 ar  
    43   23   24 1   
    44   23   57 1   
    45   24   25 2   
    46   24   28 1   
    47   25   26 1   
    48   25   52 1   
    49   26   27 ar  
    50   27   53 1   
    51   28   29 1   
    52   28   30 1   
    53   31   32 ar  
    54   31   36 ar  
    55   32   33 ar  
    56   33   34 ar  
    57   33   54 1   
    58   34   35 ar  
    59   34   55 1   
    60   35   36 ar  
    61   35   56 1   
@<TRIPOS>SUBSTRUCTURE
     1 034         1 TEMP              0 ****  ****    0 ROOT
