@<TRIPOS>MOLECULE
034
   57    61     1     0     0
SMALL
bcc


@<TRIPOS>ATOM
      1 C1          0.2880    0.0200    0.2040 c3        1 034     -0.090600
      2 C2          1.8030   -0.0340    0.1410 c3        1 034     -0.107000
      3 C3          2.3940   -0.1360    1.5350 c3        1 034     -0.090600
      4 Cl3         5.9950   -3.2330   -1.8750 cl        1 034     -0.066900
      5 C4          2.2520   -1.1600   -0.7030 cc        1 034      0.302000
      6 O5          1.9390   -2.4720   -0.2610 os        1 034     -0.119100
      7 N6          2.4040   -3.3640   -1.1080 nc        1 034     -0.335300
      8 Cl6         1.2690   -3.4560   -4.4580 cl        1 034     -0.066900
      9 C7          3.0310   -2.7270   -2.1200 cd        1 034      0.362800
     10 C8          2.9500   -1.2780   -1.8910 cd        1 034     -0.301900
     11 C9          3.4940   -0.2550   -2.8010 c3        1 034      0.207700
     12 O10         3.7860    0.9230   -2.0360 os        1 034     -0.341900
     13 C11         4.6010    1.8440   -2.6800 ca        1 034      0.091100
     14 C12         4.7330    1.9370   -4.0690 ca        1 034     -0.171500
     15 C13         5.5390    2.9360   -4.6110 ca        1 034     -0.106000
     16 C14         6.2140    3.8480   -3.7870 cp        1 034     -0.012000
     17 C15         6.0650    3.7370   -2.3940 ca        1 034     -0.106000
     18 C16         5.2710    2.7440   -1.8350 ca        1 034     -0.171500
     19 C17         7.0570    4.8910   -4.3640 cp        1 034     -0.108000
     20 C18         6.6400    5.5530   -5.5400 ca        1 034     -0.127000
     21 C19         7.4010    6.5490   -6.1280 ca        1 034     -0.152000
     22 C20         8.6200    6.8950   -5.5270 ca        1 034     -0.056200
     23 N21         9.5870    7.8290   -5.8700 na        1 034     -0.165400
     24 C22        10.6280    7.7800   -4.9320 cc        1 034     -0.072300
     25 C23        10.3370    6.8070   -3.9700 cd        1 034     -0.215200
     26 C24         9.0660    6.2220   -4.3140 ca        1 034     -0.092800
     27 C25         8.2680    5.2290   -3.7550 ca        1 034     -0.076000
     28 C26        11.8380    8.7000   -5.0530 c         1 034      0.927800
     29 O27        12.7280    8.6000   -4.1720 o         1 034     -0.813800
     30 O28        11.8550    9.4970   -6.0330 o         1 034     -0.813800
     31 C29         3.6820   -3.3720   -3.2540 ca        1 034     -0.116500
     32 C30         5.0620   -3.6350   -3.2330 ca        1 034      0.045900
     33 C32         5.6900   -4.2330   -4.3310 ca        1 034     -0.131000
     34 C33         4.9410   -4.5790   -5.4530 ca        1 034     -0.105000
     35 C34         3.5700   -4.3370   -5.4880 ca        1 034     -0.131000
     36 C35         2.9430   -3.7380   -4.3910 ca        1 034      0.045900
     37 H1         -0.0320    0.8830    0.8350 hc        1 034      0.042867
     38 H1A        -0.1170   -0.9210    0.6490 hc        1 034      0.042867
     39 H1B        -0.1420    0.1450   -0.8180 hc        1 034      0.042867
     40 H2          2.1860    0.9120   -0.3480 hc        1 034      0.097700
     41 H3          2.0670   -1.0830    2.0280 hc        1 034      0.042867
     42 H3A         2.0540    0.7290    2.1520 hc        1 034      0.042867
     43 H3B         3.5090   -0.1260    1.4860 hc        1 034      0.042867
     44 H9          2.7300    0.0110   -3.5850 h1        1 034      0.054700
     45 H9A         4.4270   -0.6330   -3.3000 h1        1 034      0.054700
     46 H12         4.2120    1.2360   -4.7350 ha        1 034      0.133000
     47 H13         5.6540    3.0060   -5.7040 ha        1 034      0.140000
     48 H15         6.5870    4.4520   -1.7380 ha        1 034      0.140000
     49 H16         5.1550    2.6560   -0.7460 ha        1 034      0.133000
     50 H18         5.6770    5.2740   -5.9930 ha        1 034      0.111000
     51 H19         7.0580    7.0560   -7.0380 ha        1 034      0.119000
     52 H23        10.9650    6.5510   -3.1230 ha        1 034      0.160000
     53 H25         8.5990    4.7100   -2.8440 ha        1 034      0.123000
     54 H32         6.7730   -4.4280   -4.3060 ha        1 034      0.153000
     55 H33         5.4360   -5.0480   -6.3170 ha        1 034      0.143000
     56 H34         2.9820   -4.6160   -6.3760 ha        1 034      0.153000
     57 HN21        9.5790    8.4440   -6.6410 hn        1 034      0.309700
@<TRIPOS>BOND
     1    1    2 1   
     2    1   37 1   
     3    1   38 1   
     4    1   39 1   
     5    2    3 1   
     6    2    5 1   
     7    2   40 1   
     8    3   41 1   
     9    3   42 1   
    10    3   43 1   
    11    4   32 1   
    12    5    6 1   
    13    5   10 2   
    14    6    7 1   
    15    7    9 2   
    16    8   36 1   
    17    9   10 1   
    18    9   31 1   
    19   10   11 1   
    20   11   12 1   
    21   11   44 1   
    22   11   45 1   
    23   12   13 1   
    24   13   14 ar  
    25   13   18 ar  
    26   14   15 ar  
    27   14   46 1   
    28   15   16 ar  
    29   15   47 1   
    30   16   17 ar  
    31   16   19 1   
    32   17   18 ar  
    33   17   48 1   
    34   18   49 1   
    35   19   20 ar  
    36   19   27 ar  
    37   20   21 ar  
    38   20   50 1   
    39   21   22 ar  
    40   21   51 1   
    41   22   23 1   
    42   22   26 ar  
    43   23   24 1   
    44   23   57 1   
    45   24   25 2   
    46   24   28 1   
    47   25   26 1   
    48   25   52 1   
    49   26   27 ar  
    50   27   53 1   
    51   28   29 1   
    52   28   30 1   
    53   31   32 ar  
    54   31   36 ar  
    55   32   33 ar  
    56   33   34 ar  
    57   33   54 1   
    58   34   35 ar  
    59   34   55 1   
    60   35   36 ar  
    61   35   56 1   
@<TRIPOS>SUBSTRUCTURE
     1 034         1 TEMP              0 ****  ****    0 ROOT
