@<TRIPOS>MOLECULE
034
   57    61     1     0     0
SMALL
bcc


@<TRIPOS>ATOM
      1 C1          0.2920    0.0220    0.2020 c3        1 034     -0.090600
      2 C2          1.8070   -0.0320    0.1390 c3        1 034     -0.107000
      3 C3          2.3980   -0.1300    1.5330 c3        1 034     -0.090600
      4 CL3         6.0000   -3.2380   -1.8630 cl        1 034     -0.066900
      5 C4          2.2560   -1.1610   -0.7010 cc        1 034      0.302000
      6 O5          1.9400   -2.4710   -0.2570 os        1 034     -0.119100
      7 N6          2.4060   -3.3650   -1.1010 nc        1 034     -0.335300
      8 CL6         1.2770   -3.4670   -4.4510 cl        1 034     -0.066900
      9 C7          3.0360   -2.7320   -2.1130 cd        1 034      0.362800
     10 C8          2.9560   -1.2820   -1.8880 cd        1 034     -0.301900
     11 C9          3.5040   -0.2620   -2.7990 c3        1 034      0.207700
     12 O10         3.7900    0.9190   -2.0380 os        1 034     -0.341900
     13 C11         4.6040    1.8410   -2.6820 ca        1 034      0.091100
     14 C12         4.7440    1.9260   -4.0710 ca        1 034     -0.171500
     15 C13         5.5490    2.9260   -4.6140 ca        1 034     -0.106000
     16 C14         6.2120    3.8470   -3.7910 cp        1 034     -0.013000
     17 C15         6.0560    3.7450   -2.3980 ca        1 034     -0.106000
     18 C16         5.2630    2.7500   -1.8380 ca        1 034     -0.171500
     19 C17         7.0530    4.8910   -4.3680 cp        1 034     -0.108000
     20 C18         6.6400    5.5440   -5.5520 ca        1 034     -0.127000
     21 C19         7.3990    6.5410   -6.1400 ca        1 034     -0.152000
     22 C20         8.6120    6.8990   -5.5330 ca        1 034     -0.056200
     23 N21         9.5750    7.8360   -5.8760 na        1 034     -0.165400
     24 C22        10.6090    7.8000   -4.9300 cc        1 034     -0.072300
     25 C23        10.3180    6.8320   -3.9640 cd        1 034     -0.215200
     26 C24         9.0530    6.2360   -4.3140 ca        1 034     -0.092800
     27 C25         8.2580    5.2420   -3.7530 ca        1 034     -0.076000
     28 C26        11.8140    8.7270   -5.0490 c         1 034      0.927800
     29 O27        12.6990    8.6380   -4.1610 o         1 034     -0.813800
     30 O28        11.8330    9.5190   -6.0330 o         1 034     -0.813800
     31 C29         3.6880   -3.3810   -3.2440 ca        1 034     -0.116500
     32 C30         5.0680   -3.6440   -3.2200 ca        1 034      0.045900
     33 C32         5.6970   -4.2460   -4.3160 ca        1 034     -0.131000
     34 C33         4.9500   -4.5960   -5.4380 ca        1 034     -0.105000
     35 C34         3.5790   -4.3530   -5.4760 ca        1 034     -0.131000
     36 C35         2.9500   -3.7500   -4.3810 ca        1 034      0.045900
     37 H1         -0.1380    0.1440   -0.8200 hc        1 034      0.042867
     38 H1A        -0.0280    0.8870    0.8310 hc        1 034      0.042867
     39 H1B        -0.1130   -0.9180    0.6500 hc        1 034      0.042867
     40 H2          2.1900    0.9130   -0.3520 hc        1 034      0.097700
     41 H3          2.0580    0.7370    2.1480 hc        1 034      0.042867
     42 H3A         2.0710   -1.0750    2.0300 hc        1 034      0.042867
     43 H3B         3.5140   -0.1190    1.4840 hc        1 034      0.042867
     44 H9          4.4410   -0.6420   -3.2910 h1        1 034      0.054700
     45 H9A         2.7440   -0.0010   -3.5880 h1        1 034      0.054700
     46 H12         4.2320    1.2180   -4.7360 ha        1 034      0.133000
     47 H13         5.6710    2.9900   -5.7060 ha        1 034      0.140000
     48 H15         6.5690    4.4660   -1.7440 ha        1 034      0.140000
     49 H16         5.1400    2.6680   -0.7500 ha        1 034      0.133000
     50 H18         5.6820    5.2560   -6.0090 ha        1 034      0.111000
     51 H19         7.0590    7.0410   -7.0570 ha        1 034      0.119000
     52 H23        10.9420    6.5850   -3.1120 ha        1 034      0.160000
     53 H25         8.5860    4.7300   -2.8370 ha        1 034      0.123000
     54 H32         6.7800   -4.4410   -4.2890 ha        1 034      0.153000
     55 H33         5.4460   -5.0670   -6.3000 ha        1 034      0.143000
     56 H34         2.9910   -4.6340   -6.3630 ha        1 034      0.153000
     57 HN21        9.5680    8.4470   -6.6510 hn        1 034      0.309700
@<TRIPOS>BOND
     1    1    2 1   
     2    1   37 1   
     3    1   38 1   
     4    1   39 1   
     5    2    3 1   
     6    2    5 1   
     7    2   40 1   
     8    3   41 1   
     9    3   42 1   
    10    3   43 1   
    11    4   32 1   
    12    5    6 1   
    13    5   10 2   
    14    6    7 1   
    15    7    9 2   
    16    8   36 1   
    17    9   10 1   
    18    9   31 1   
    19   10   11 1   
    20   11   12 1   
    21   11   44 1   
    22   11   45 1   
    23   12   13 1   
    24   13   14 ar  
    25   13   18 ar  
    26   14   15 ar  
    27   14   46 1   
    28   15   16 ar  
    29   15   47 1   
    30   16   17 ar  
    31   16   19 1   
    32   17   18 ar  
    33   17   48 1   
    34   18   49 1   
    35   19   20 ar  
    36   19   27 ar  
    37   20   21 ar  
    38   20   50 1   
    39   21   22 ar  
    40   21   51 1   
    41   22   23 1   
    42   22   26 ar  
    43   23   24 1   
    44   23   57 1   
    45   24   25 2   
    46   24   28 1   
    47   25   26 1   
    48   25   52 1   
    49   26   27 ar  
    50   27   53 1   
    51   28   29 1   
    52   28   30 1   
    53   31   32 ar  
    54   31   36 ar  
    55   32   33 ar  
    56   33   34 ar  
    57   33   54 1   
    58   34   35 ar  
    59   34   55 1   
    60   35   36 ar  
    61   35   56 1   
@<TRIPOS>SUBSTRUCTURE
     1 034         1 TEMP              0 ****  ****    0 ROOT
