@<TRIPOS>MOLECULE
035
   30    29     1     0     0
SMALL
bcc


@<TRIPOS>ATOM
      1 C1          1.1430   -1.2320    0.0640 c         1 035      0.898600
      2 C2          1.9550    0.0220   -0.3660 c3        1 035      0.145100
      3 C3          2.6820    0.5660    0.8950 c3        1 035     -0.091400
      4 C4          3.7800   -0.3400    1.4280 c3        1 035     -0.073400
      5 C5          4.4130    0.1840    2.7120 c3        1 035     -0.072400
      6 C6          5.5330   -0.6960    3.2420 c3        1 035     -0.088400
      7 C7          6.1730   -0.1740    4.5370 c3        1 035      0.201400
      8 O8          1.4420   -2.3650   -0.4480 o         1 035     -0.920800
      9 O9          0.2320   -1.1780    0.9520 o         1 035     -0.920800
     10 O10         1.1440    1.0120   -0.8980 os        1 035     -0.584200
     11 O11         7.1860   -1.0200    4.9590 os        1 035     -0.586200
     12 P12         1.4600    1.7080   -2.4270 p5        1 035      1.336900
     13 O13         2.7950    1.1840   -2.9040 o         1 035     -0.960833
     14 O14         0.2920    1.3110   -3.3080 o         1 035     -0.960833
     15 O15         1.4610    3.1940   -2.1210 o         1 035     -0.960833
     16 P16         7.9550   -0.5200    6.4070 p5        1 035      1.324900
     17 O17         6.8540   -0.4880    7.4410 o         1 035     -0.954833
     18 O18         8.9790   -1.6140    6.6250 o         1 035     -0.954833
     19 O19         8.5510    0.8300    6.0830 o         1 035     -0.954833
     20 H2          2.7250   -0.2860   -1.1310 h1        1 035      0.036700
     21 H3          3.1180    1.5680    0.6520 hc        1 035      0.019700
     22 H3A         1.9070    0.7150    1.6900 hc        1 035      0.019700
     23 H4          4.5770   -0.4540    0.6470 hc        1 035      0.029700
     24 H4A         3.3470   -1.3590    1.6100 hc        1 035      0.029700
     25 H5          4.8130    1.2160    2.5290 hc        1 035      0.012700
     26 H5A         3.6180    0.2780    3.4980 hc        1 035      0.012700
     27 H6          6.3320   -0.7900    2.4630 hc        1 035      0.016700
     28 H6A         5.1380   -1.7270    3.4300 hc        1 035      0.016700
     29 H7          5.3920   -0.0950    5.3450 h1        1 035     -0.009300
     30 H7A         6.5950    0.8570    4.3650 h1        1 035     -0.009300
@<TRIPOS>BOND
     1    1    2 1   
     2    1    8 1   
     3    1    9 1   
     4    2    3 1   
     5    2   10 1   
     6    2   20 1   
     7    3    4 1   
     8    3   21 1   
     9    3   22 1   
    10    4    5 1   
    11    4   23 1   
    12    4   24 1   
    13    5    6 1   
    14    5   25 1   
    15    5   26 1   
    16    6    7 1   
    17    6   27 1   
    18    6   28 1   
    19    7   11 1   
    20    7   29 1   
    21    7   30 1   
    22   10   12 1   
    23   11   16 1   
    24   12   13 1   
    25   12   14 1   
    26   12   15 1   
    27   16   17 1   
    28   16   18 1   
    29   16   19 1   
@<TRIPOS>SUBSTRUCTURE
     1 035         1 TEMP              0 ****  ****    0 ROOT
