@<TRIPOS>MOLECULE
035
   30    28     1     0     0
SMALL
bcc


@<TRIPOS>ATOM
      1 C1         -3.1270    1.3430   -2.0940 c1        1 035      0.318000
      2 C2         -1.6350    1.0990   -2.1200 c2        1 035      0.084000
      3 C3         -1.0930    1.1400   -0.7090 c3        1 035     -0.170000
      4 C4         -0.2590   -0.0960   -0.4520 c3        1 035     -0.152000
      5 C5          0.2990   -0.0450    0.9530 c3        1 035     -0.151000
      6 C6          1.0780   -1.3120    1.2320 c3        1 035     -0.167000
      7 C7          1.6900   -1.2330    2.6130 c3        1 035      0.051000
      8 O8         -3.9200    0.4340   -2.4540 o         1 035     -0.655500
      9 O9         -3.5770    2.4560   -1.7150 o         1 035     -0.655500
     10 O10        -1.0110    2.0950   -2.8920 os        1 035     -0.746000
     11 O11         2.3720   -2.4330    2.8940 os        1 035     -0.748000
     12 P12        -1.3880    2.2080   -4.4230 p5        1 035      1.570500
     13 O13        -2.6110    3.0800   -4.5770 o         1 035     -0.960833
     14 O14        -0.2340    2.8210   -5.1810 o         1 035     -0.960833
     15 O15        -1.6780    0.8320   -4.9730 o         1 035     -0.960833
     16 P16         3.1300   -2.5640    4.2750 p5        1 035      1.558500
     17 O17         4.2710   -1.5760    4.3170 o         1 035     -0.954833
     18 O18         2.1710   -2.2740    5.4050 o         1 035     -0.954833
     19 O19         3.6710   -3.9660    4.4210 o         1 035     -0.954833
     20 H2         -1.4550    0.2220   -2.5130 h4        1 035      0.076000
     21 H3         -1.8360    1.1700   -0.0750 hc        1 035      0.059000
     22 H3A        -0.5370    1.9370   -0.5970 hc        1 035      0.059000
     23 H4          0.4770   -0.1320   -1.0950 hc        1 035      0.069000
     24 H4A        -0.8180   -0.8930   -0.5530 hc        1 035      0.069000
     25 H5         -0.4370    0.0330    1.5930 hc        1 035      0.052000
     26 H5A         0.8910    0.7280    1.0410 hc        1 035      0.052000
     27 H6          0.4770   -2.0820    1.1850 hc        1 035      0.056000
     28 H6A         1.7880   -1.4110    0.5660 hc        1 035      0.056000
     29 H7          2.3200   -0.4840    2.6490 h1        1 035      0.030000
     30 H7A         0.9820   -1.0970    3.2770 h1        1 035      0.030000
@<TRIPOS>BOND
     1    1    8 1   
     2    1    9 1   
     3    2    3 1   
     4    2   10 1   
     5    2   20 1   
     6    3    4 1   
     7    3   21 1   
     8    3   22 1   
     9    4    5 1   
    10    4   23 1   
    11    4   24 1   
    12    5    6 1   
    13    5   25 1   
    14    5   26 1   
    15    6    7 1   
    16    6   27 1   
    17    6   28 1   
    18    7   11 1   
    19    7   29 1   
    20    7   30 1   
    21   10   12 1   
    22   11   16 1   
    23   12   13 1   
    24   12   14 1   
    25   12   15 1   
    26   16   17 1   
    27   16   18 1   
    28   16   19 1   
@<TRIPOS>SUBSTRUCTURE
     1 035         1 TEMP              0 ****  ****    0 ROOT
