@<TRIPOS>MOLECULE
035
   30    29     1     0     0
SMALL
bcc


@<TRIPOS>ATOM
      1 C1          1.2010   -1.2860    0.0120 c         1 035      0.898600
      2 C2          1.9590    0.0160   -0.3690 c3        1 035      0.145100
      3 C3          2.6600    0.5440    0.9120 c3        1 035     -0.091400
      4 C4          3.7960   -0.3330    1.4150 c3        1 035     -0.073400
      5 C5          4.4040    0.1700    2.7190 c3        1 035     -0.072400
      6 C6          5.5610   -0.6780    3.2190 c3        1 035     -0.088400
      7 C7          6.1770   -0.1780    4.5330 c3        1 035      0.201400
      8 O8          1.5500   -2.3860   -0.5390 o         1 035     -0.920800
      9 O9          0.2870   -1.3050    0.8990 o         1 035     -0.920800
     10 O10         1.1060    0.9890   -0.8660 os        1 035     -0.584200
     11 O11         7.2250   -0.9930    4.9260 os        1 035     -0.586200
     12 P12         1.3930    1.7530   -2.3680 p5        1 035      1.336900
     13 O13         2.7500    1.3060   -2.8610 o         1 035     -0.960833
     14 O14         0.2450    1.3380   -3.2670 o         1 035     -0.960833
     15 O15         1.3290    3.2250   -2.0080 o         1 035     -0.960833
     16 P16         7.9700   -0.5150    6.3940 p5        1 035      1.324900
     17 O17         6.8670   -0.5700    7.4260 o         1 035     -0.954833
     18 O18         9.0410   -1.5700    6.5740 o         1 035     -0.954833
     19 O19         8.5060    0.8710    6.1220 o         1 035     -0.954833
     20 H2          2.7420   -0.2310   -1.1430 h1        1 035      0.036700
     21 H3          1.8790    0.6300    1.7110 hc        1 035      0.019700
     22 H3A         3.0530    1.5720    0.7080 hc        1 035      0.019700
     23 H4          3.4080   -1.3750    1.5590 hc        1 035      0.029700
     24 H4A         4.5980   -0.3830    0.6330 hc        1 035      0.029700
     25 H5          4.7600    1.2250    2.5750 hc        1 035      0.012700
     26 H5A         3.6060    0.2010    3.5060 hc        1 035      0.012700
     27 H6          5.2110   -1.7320    3.3680 hc        1 035      0.016700
     28 H6A         6.3640   -0.7100    2.4390 hc        1 035      0.016700
     29 H7          6.5530    0.8760    4.4020 h1        1 035     -0.009300
     30 H7A         5.3920   -0.1640    5.3420 h1        1 035     -0.009300
@<TRIPOS>BOND
     1    1    2 1   
     2    1    8 1   
     3    1    9 1   
     4    2    3 1   
     5    2   10 1   
     6    2   20 1   
     7    3    4 1   
     8    3   21 1   
     9    3   22 1   
    10    4    5 1   
    11    4   23 1   
    12    4   24 1   
    13    5    6 1   
    14    5   25 1   
    15    5   26 1   
    16    6    7 1   
    17    6   27 1   
    18    6   28 1   
    19    7   11 1   
    20    7   29 1   
    21    7   30 1   
    22   10   12 1   
    23   11   16 1   
    24   12   13 1   
    25   12   14 1   
    26   12   15 1   
    27   16   17 1   
    28   16   18 1   
    29   16   19 1   
@<TRIPOS>SUBSTRUCTURE
     1 035         1 TEMP              0 ****  ****    0 ROOT
