@<TRIPOS>MOLECULE
035
   30    29     1     0     0
SMALL
bcc


@<TRIPOS>ATOM
      1 C1          3.1810    1.6590   -1.3160 c         1 035      0.898600
      2 C2          3.0770    0.4440   -0.3520 c3        1 035      0.145100
      3 C3          1.7320    0.5670    0.4150 c3        1 035     -0.091400
      4 C4          0.4960    0.3760   -0.4480 c3        1 035     -0.073400
      5 C5         -0.8050    0.5870    0.3200 c3        1 035     -0.072400
      6 C6         -2.0510    0.3710   -0.5220 c3        1 035     -0.088400
      7 C7         -3.3640    0.5830    0.2450 c3        1 035      0.201400
      8 O8          3.2180    1.4440   -2.5760 o         1 035     -0.920800
      9 O9          3.1680    2.8610   -0.8970 o         1 035     -0.920800
     10 O10         4.1260    0.4060    0.5530 os        1 035     -0.584200
     11 O11        -4.4550    0.3660   -0.5800 os        1 035     -0.586200
     12 P12         5.0930   -0.9910    0.7500 p5        1 035      1.336900
     13 O13         4.4670   -2.1020   -0.0600 o         1 035     -0.960833
     14 O14         6.4810   -0.5990    0.2860 o         1 035     -0.960833
     15 O15         5.0370   -1.2230    2.2480 o         1 035     -0.960833
     16 P16        -5.9700    0.5900    0.1910 p5        1 035      1.324900
     17 O17        -5.9600    2.0280    0.6560 o         1 035     -0.954833
     18 O18        -6.9490    0.3070   -0.9280 o         1 035     -0.954833
     19 O19        -5.9910   -0.4290    1.3060 o         1 035     -0.954833
     20 H2          3.0690   -0.5060   -0.9610 h1        1 035      0.036700
     21 H3          1.7220   -0.1870    1.2430 hc        1 035      0.019700
     22 H3A         1.7040    1.5850    0.8820 hc        1 035      0.019700
     23 H4          0.5450    1.0940   -1.3080 hc        1 035      0.029700
     24 H4A         0.5020   -0.6590   -0.8790 hc        1 035      0.029700
     25 H5         -0.8300   -0.1120    1.1970 hc        1 035      0.012700
     26 H5A        -0.8190    1.6290    0.7340 hc        1 035      0.012700
     27 H6         -2.0330    1.0690   -1.3980 hc        1 035      0.016700
     28 H6A        -2.0450   -0.6700   -0.9360 hc        1 035      0.016700
     29 H7         -3.4130   -0.1230    1.1220 h1        1 035     -0.009300
     30 H7A        -3.4050    1.6350    0.6490 h1        1 035     -0.009300
@<TRIPOS>BOND
     1    1    2 1   
     2    1    8 1   
     3    1    9 1   
     4    2    3 1   
     5    2   10 1   
     6    2   20 1   
     7    3    4 1   
     8    3   21 1   
     9    3   22 1   
    10    4    5 1   
    11    4   23 1   
    12    4   24 1   
    13    5    6 1   
    14    5   25 1   
    15    5   26 1   
    16    6    7 1   
    17    6   27 1   
    18    6   28 1   
    19    7   11 1   
    20    7   29 1   
    21    7   30 1   
    22   10   12 1   
    23   11   16 1   
    24   12   13 1   
    25   12   14 1   
    26   12   15 1   
    27   16   17 1   
    28   16   18 1   
    29   16   19 1   
@<TRIPOS>SUBSTRUCTURE
     1 035         1 TEMP              0 ****  ****    0 ROOT
