@<TRIPOS>MOLECULE
035
   30    29     1     0     0
SMALL
bcc


@<TRIPOS>ATOM
      1 C1          1.1590   -1.2540    0.0530 c         1 035      0.898600
      2 C2          1.9420    0.0260   -0.3540 c3        1 035      0.145100
      3 C3          2.6650    0.5580    0.9140 c3        1 035     -0.091400
      4 C4          3.7850   -0.3340    1.4220 c3        1 035     -0.073400
      5 C5          4.4130    0.1750    2.7140 c3        1 035     -0.072400
      6 C6          5.5560   -0.6900    3.2190 c3        1 035     -0.088400
      7 C7          6.1910   -0.1840    4.5210 c3        1 035      0.201400
      8 O8          1.4790   -2.3690   -0.4830 o         1 035     -0.920800
      9 O9          0.2520   -1.2380    0.9470 o         1 035     -0.920800
     10 O10         1.1080    1.0090   -0.8610 os        1 035     -0.584200
     11 O11         7.2260   -1.0140    4.9180 os        1 035     -0.586200
     12 P12         1.4000    1.7430   -2.3770 p5        1 035      1.336900
     13 O13         2.7430    1.2580   -2.8720 o         1 035     -0.960833
     14 O14         0.2360    1.3390   -3.2600 o         1 035     -0.960833
     15 O15         1.3720    3.2220   -2.0400 o         1 035     -0.960833
     16 P16         7.9910   -0.5310    6.3750 p5        1 035      1.324900
     17 O17         6.8940   -0.5510    7.4140 o         1 035     -0.954833
     18 O18         9.0420   -1.6040    6.5600 o         1 035     -0.954833
     19 O19         8.5510    0.8410    6.0810 o         1 035     -0.954833
     20 H2          2.7140   -0.2510   -1.1300 h1        1 035      0.036700
     21 H3          3.0780    1.5750    0.6900 hc        1 035      0.019700
     22 H3A         1.8910    0.6740    1.7160 hc        1 035      0.019700
     23 H4          4.5800   -0.4140    0.6350 hc        1 035      0.029700
     24 H4A         3.3760   -1.3660    1.5840 hc        1 035      0.029700
     25 H5          3.6210    0.2340    3.5060 hc        1 035      0.012700
     26 H5A         4.7890    1.2200    2.5520 hc        1 035      0.012700
     27 H6          5.1860   -1.7350    3.3850 hc        1 035      0.016700
     28 H6A         6.3530   -0.7490    2.4330 hc        1 035      0.016700
     29 H7          5.4130   -0.1430    5.3350 h1        1 035     -0.009300
     30 H7A         6.5870    0.8610    4.3720 h1        1 035     -0.009300
@<TRIPOS>BOND
     1    1    2 1   
     2    1    8 1   
     3    1    9 1   
     4    2    3 1   
     5    2   10 1   
     6    2   20 1   
     7    3    4 1   
     8    3   21 1   
     9    3   22 1   
    10    4    5 1   
    11    4   23 1   
    12    4   24 1   
    13    5    6 1   
    14    5   25 1   
    15    5   26 1   
    16    6    7 1   
    17    6   27 1   
    18    6   28 1   
    19    7   11 1   
    20    7   29 1   
    21    7   30 1   
    22   10   12 1   
    23   11   16 1   
    24   12   13 1   
    25   12   14 1   
    26   12   15 1   
    27   16   17 1   
    28   16   18 1   
    29   16   19 1   
@<TRIPOS>SUBSTRUCTURE
     1 035         1 TEMP              0 ****  ****    0 ROOT
