@<TRIPOS>MOLECULE
036
   30    29     1     0     0
SMALL
bcc


@<TRIPOS>ATOM
      1 C1          1.1470    1.2400    0.0680 c         1 036      0.898600
      2 C2          1.9390   -0.0290   -0.3520 c3        1 036      0.145100
      3 C3          2.6680   -0.5670    0.9100 c3        1 036     -0.091400
      4 C4          3.7810    0.3310    1.4240 c3        1 036     -0.073400
      5 C5          4.4180   -0.1850    2.7100 c3        1 036     -0.072400
      6 C6          5.5520    0.6850    3.2210 c3        1 036     -0.088400
      7 C7          6.1960    0.1720    4.5170 c3        1 036      0.201400
      8 O8          0.2410    1.2100    0.9640 o         1 036     -0.920800
      9 O9          1.4560    2.3630   -0.4590 o         1 036     -0.920800
     10 O10         1.1110   -1.0150   -0.8650 os        1 036     -0.584200
     11 O11         7.2230    1.0090    4.9210 os        1 036     -0.586200
     12 P12         1.4060   -1.7340   -2.3880 p5        1 036      1.336900
     13 O13         0.2380   -1.3320   -3.2660 o         1 036     -0.960833
     14 O14         2.7440   -1.2330   -2.8820 o         1 036     -0.960833
     15 O15         1.3910   -3.2160   -2.0640 o         1 036     -0.960833
     16 P16         7.9960    0.5170    6.3700 p5        1 036      1.324900
     17 O17         8.5720   -0.8440    6.0580 o         1 036     -0.954833
     18 O18         9.0350    1.6000    6.5670 o         1 036     -0.954833
     19 O19         6.9020    0.5120    7.4120 o         1 036     -0.954833
     20 H2          2.7070    0.2600   -1.1270 h1        1 036      0.036700
     21 H3          1.8970   -0.6970    1.7130 hc        1 036      0.019700
     22 H3A         3.0900   -1.5780    0.6770 hc        1 036      0.019700
     23 H4          4.5740    0.4250    0.6370 hc        1 036      0.029700
     24 H4A         3.3640    1.3570    1.5970 hc        1 036      0.029700
     25 H5          3.6270   -0.2600    3.5030 hc        1 036      0.012700
     26 H5A         4.8030   -1.2250    2.5360 hc        1 036      0.012700
     27 H6          6.3470    0.7610    2.4350 hc        1 036      0.016700
     28 H6A         5.1720    1.7240    3.4000 hc        1 036      0.016700
     29 H7          6.6030   -0.8670    4.3550 h1        1 036     -0.009300
     30 H7A         5.4200    0.1130    5.3320 h1        1 036     -0.009300
@<TRIPOS>BOND
     1    1    2 1   
     2    1    8 1   
     3    1    9 1   
     4    2    3 1   
     5    2   10 1   
     6    2   20 1   
     7    3    4 1   
     8    3   21 1   
     9    3   22 1   
    10    4    5 1   
    11    4   23 1   
    12    4   24 1   
    13    5    6 1   
    14    5   25 1   
    15    5   26 1   
    16    6    7 1   
    17    6   27 1   
    18    6   28 1   
    19    7   11 1   
    20    7   29 1   
    21    7   30 1   
    22   10   12 1   
    23   11   16 1   
    24   12   13 1   
    25   12   14 1   
    26   12   15 1   
    27   16   17 1   
    28   16   18 1   
    29   16   19 1   
@<TRIPOS>SUBSTRUCTURE
     1 036         1 TEMP              0 ****  ****    0 ROOT
