@<TRIPOS>MOLECULE
036
   30    29     1     0     0
SMALL
bcc


@<TRIPOS>ATOM
      1 C1          3.2080    1.7040    1.2230 c         1 036      0.898600
      2 C2          3.0800    0.4280    0.3450 c3        1 036      0.145100
      3 C3          1.7310    0.5170   -0.4200 c3        1 036     -0.091400
      4 C4          0.4990    0.4050    0.4620 c3        1 036     -0.073400
      5 C5         -0.8040    0.5820   -0.3100 c3        1 036     -0.072400
      6 C6         -2.0470    0.4430    0.5530 c3        1 036     -0.088400
      7 C7         -3.3630    0.6220   -0.2180 c3        1 036      0.201400
      8 O8          3.2100    2.8750    0.7230 o         1 036     -0.920800
      9 O9          3.2520    1.5750    2.4950 o         1 036     -0.920800
     10 O10         4.1220    0.3120   -0.5620 os        1 036     -0.584200
     11 O11        -4.4510    0.4770    0.6260 os        1 036     -0.586200
     12 P12         5.0670   -1.1090   -0.6690 p5        1 036      1.336900
     13 O13         6.4640   -0.7060   -0.2420 o         1 036     -0.960833
     14 O14         4.4310   -2.1530    0.2200 o         1 036     -0.960833
     15 O15         4.9970   -1.4420   -2.1470 o         1 036     -0.960833
     16 P16        -5.9680    0.6710   -0.1480 p5        1 036      1.324900
     17 O17        -6.0120   -0.4220   -1.1910 o         1 036     -0.954833
     18 O18        -6.9420    0.4790    0.9940 o         1 036     -0.954833
     19 O19        -5.9410    2.0730   -0.7110 o         1 036     -0.954833
     20 H2          3.0630   -0.4780    1.0180 h1        1 036      0.036700
     21 H3          1.7140    1.5020   -0.9550 hc        1 036      0.019700
     22 H3A         1.7040   -0.2910   -1.1940 hc        1 036      0.019700
     23 H4          0.4930   -0.5980    0.9630 hc        1 036      0.029700
     24 H4A         0.5650    1.1790    1.2710 hc        1 036      0.029700
     25 H5         -0.8060    1.5940   -0.7940 hc        1 036      0.012700
     26 H5A        -0.8460   -0.1750   -1.1370 hc        1 036      0.012700
     27 H6         -2.0530   -0.5680    1.0370 hc        1 036      0.016700
     28 H6A        -2.0130    1.1990    1.3790 hc        1 036      0.016700
     29 H7         -3.3920    1.6430   -0.6930 h1        1 036     -0.009300
     30 H7A        -3.4280   -0.1420   -1.0440 h1        1 036     -0.009300
@<TRIPOS>BOND
     1    1    2 1   
     2    1    8 1   
     3    1    9 1   
     4    2    3 1   
     5    2   10 1   
     6    2   20 1   
     7    3    4 1   
     8    3   21 1   
     9    3   22 1   
    10    4    5 1   
    11    4   23 1   
    12    4   24 1   
    13    5    6 1   
    14    5   25 1   
    15    5   26 1   
    16    6    7 1   
    17    6   27 1   
    18    6   28 1   
    19    7   11 1   
    20    7   29 1   
    21    7   30 1   
    22   10   12 1   
    23   11   16 1   
    24   12   13 1   
    25   12   14 1   
    26   12   15 1   
    27   16   17 1   
    28   16   18 1   
    29   16   19 1   
@<TRIPOS>SUBSTRUCTURE
     1 036         1 TEMP              0 ****  ****    0 ROOT
