@<TRIPOS>MOLECULE
036
   30    29     1     0     0
SMALL
bcc


@<TRIPOS>ATOM
      1 C1          1.1100    1.2130    0.1080 c         1 036      0.898600
      2 C2          1.9300   -0.0280   -0.3430 c3        1 036      0.145100
      3 C3          2.6770   -0.5760    0.9030 c3        1 036     -0.091400
      4 C4          3.7720    0.3350    1.4330 c3        1 036     -0.073400
      5 C5          4.4240   -0.1940    2.7050 c3        1 036     -0.072400
      6 C6          5.5420    0.6900    3.2300 c3        1 036     -0.088400
      7 C7          6.2010    0.1640    4.5130 c3        1 036      0.201400
      8 O8          0.2090    1.1410    1.0060 o         1 036     -0.920800
      9 O9          1.3910    2.3540   -0.3950 o         1 036     -0.920800
     10 O10         1.1240   -1.0210   -0.8760 os        1 036     -0.584200
     11 O11         7.2130    1.0140    4.9300 os        1 036     -0.586200
     12 P12         1.4290   -1.6980   -2.4160 p5        1 036      1.336900
     13 O13         0.2480   -1.3040   -3.2800 o         1 036     -0.960833
     14 O14         2.7530   -1.1540   -2.9030 o         1 036     -0.960833
     15 O15         1.4510   -3.1860   -2.1250 o         1 036     -0.960833
     16 P16         8.0010    0.5100    6.3660 p5        1 036      1.324900
     17 O17         8.6010   -0.8350    6.0270 o         1 036     -0.954833
     18 O18         9.0210    1.6080    6.5790 o         1 036     -0.954833
     19 O19         6.9120    0.4640    7.4120 o         1 036     -0.954833
     20 H2          2.6880    0.2970   -1.1140 h1        1 036      0.036700
     21 H3          3.1200   -1.5720    0.6460 hc        1 036      0.019700
     22 H3A         1.9130   -0.7410    1.7060 hc        1 036      0.019700
     23 H4          3.3320    1.3480    1.6290 hc        1 036      0.029700
     24 H4A         4.5590    0.4640    0.6450 hc        1 036      0.029700
     25 H5          4.8310   -1.2210    2.5080 hc        1 036      0.012700
     26 H5A         3.6390   -0.3020    3.4990 hc        1 036      0.012700
     27 H6          5.1410    1.7170    3.4310 hc        1 036      0.016700
     28 H6A         6.3320    0.7980    2.4430 hc        1 036      0.016700
     29 H7          5.4300    0.0730    5.3300 h1        1 036     -0.009300
     30 H7A         6.6280   -0.8630    4.3290 h1        1 036     -0.009300
@<TRIPOS>BOND
     1    1    2 1   
     2    1    8 1   
     3    1    9 1   
     4    2    3 1   
     5    2   10 1   
     6    2   20 1   
     7    3    4 1   
     8    3   21 1   
     9    3   22 1   
    10    4    5 1   
    11    4   23 1   
    12    4   24 1   
    13    5    6 1   
    14    5   25 1   
    15    5   26 1   
    16    6    7 1   
    17    6   27 1   
    18    6   28 1   
    19    7   11 1   
    20    7   29 1   
    21    7   30 1   
    22   10   12 1   
    23   11   16 1   
    24   12   13 1   
    25   12   14 1   
    26   12   15 1   
    27   16   17 1   
    28   16   18 1   
    29   16   19 1   
@<TRIPOS>SUBSTRUCTURE
     1 036         1 TEMP              0 ****  ****    0 ROOT
