@<TRIPOS>MOLECULE
036
   30    29     1     0     0
SMALL
bcc


@<TRIPOS>ATOM
      1 C1          1.1750    1.2480    0.0290 c         1 036      0.898600
      2 C2          1.9710   -0.0220   -0.3810 c3        1 036      0.145100
      3 C3          2.6820   -0.5630    0.8900 c3        1 036     -0.091400
      4 C4          3.7890    0.3320    1.4210 c3        1 036     -0.073400
      5 C5          4.4060   -0.1870    2.7150 c3        1 036     -0.072400
      6 C6          5.5360    0.6800    3.2420 c3        1 036     -0.088400
      7 C7          6.1600    0.1640    4.5470 c3        1 036      0.201400
      8 O8          0.2570    1.2190    0.9120 o         1 036     -0.920800
      9 O9          1.4950    2.3710   -0.4920 o         1 036     -0.920800
     10 O10         1.1480   -1.0060   -0.9070 os        1 036     -0.584200
     11 O11         7.1840    0.9980    4.9660 os        1 036     -0.586200
     12 P12         1.4630   -1.7230   -2.4270 p5        1 036      1.336900
     13 O13         0.3080   -1.3180   -3.3200 o         1 036     -0.960833
     14 O14         2.8090   -1.2250   -2.9010 o         1 036     -0.960833
     15 O15         1.4400   -3.2050   -2.1040 o         1 036     -0.960833
     16 P16         7.9350    0.5040    6.4250 p5        1 036      1.324900
     17 O17         8.5100   -0.8600    6.1220 o         1 036     -0.954833
     18 O18         8.9750    1.5830    6.6360 o         1 036     -0.954833
     19 O19         6.8260    0.5020    7.4520 o         1 036     -0.954833
     20 H2          2.7500    0.2660   -1.1450 h1        1 036      0.036700
     21 H3          1.8990   -0.6910    1.6820 hc        1 036      0.019700
     22 H3A         3.1030   -1.5750    0.6620 hc        1 036      0.019700
     23 H4          3.3720    1.3590    1.5890 hc        1 036      0.029700
     24 H4A         4.5930    0.4240    0.6440 hc        1 036      0.029700
     25 H5          3.6050   -0.2600    3.4970 hc        1 036      0.012700
     26 H5A         4.7910   -1.2270    2.5460 hc        1 036      0.012700
     27 H6          5.1570    1.7200    3.4160 hc        1 036      0.016700
     28 H6A         6.3420    0.7530    2.4670 hc        1 036      0.016700
     29 H7          6.5660   -0.8760    4.3910 h1        1 036     -0.009300
     30 H7A         5.3720    0.1080    5.3510 h1        1 036     -0.009300
@<TRIPOS>BOND
     1    1    2 1   
     2    1    8 1   
     3    1    9 1   
     4    2    3 1   
     5    2   10 1   
     6    2   20 1   
     7    3    4 1   
     8    3   21 1   
     9    3   22 1   
    10    4    5 1   
    11    4   23 1   
    12    4   24 1   
    13    5    6 1   
    14    5   25 1   
    15    5   26 1   
    16    6    7 1   
    17    6   27 1   
    18    6   28 1   
    19    7   11 1   
    20    7   29 1   
    21    7   30 1   
    22   10   12 1   
    23   11   16 1   
    24   12   13 1   
    25   12   14 1   
    26   12   15 1   
    27   16   17 1   
    28   16   18 1   
    29   16   19 1   
@<TRIPOS>SUBSTRUCTURE
     1 036         1 TEMP              0 ****  ****    0 ROOT
