@<TRIPOS>MOLECULE
036
   30    28     1     0     0
SMALL
bcc


@<TRIPOS>ATOM
      1 C1         -3.2080   -1.0050   -2.2420 c1        1 036      0.318000
      2 C2         -1.7080   -1.0810   -2.0680 c2        1 036      0.084000
      3 C3         -1.3590   -0.8930   -0.6090 c3        1 036     -0.170000
      4 C4         -0.1200   -0.0330   -0.4930 c3        1 036     -0.152000
      5 C5          0.1250    0.3050    0.9610 c3        1 036     -0.151000
      6 C6          1.4670    0.9910    1.1000 c3        1 036     -0.167000
      7 C7          1.6630    1.4290    2.5340 c3        1 036      0.051000
      8 O8         -3.9370   -1.9520   -1.8450 o         1 036     -0.655500
      9 O9         -3.7290    0.0050   -2.7840 o         1 036     -0.655500
     10 O10        -1.2490   -2.3380   -2.5020 os        1 036     -0.746000
     11 O11         3.0060    1.8080    2.7300 os        1 036     -0.748000
     12 P12        -1.5300   -2.7680   -3.9960 p5        1 036      1.570500
     13 O13        -0.3560   -3.5580   -4.5220 o         1 036     -0.960833
     14 O14        -1.7290   -1.5360   -4.8460 o         1 036     -0.960833
     15 O15        -2.7750   -3.6210   -4.0480 o         1 036     -0.960833
     16 P16         3.3800    2.6010    4.0450 p5        1 036      1.558500
     17 O17         4.8810    2.6220    4.2100 o         1 036     -0.954833
     18 O18         2.8660    4.0170    3.9420 o         1 036     -0.954833
     19 O19         2.7520    1.9230    5.2390 o         1 036     -0.954833
     20 H2         -1.2830   -0.3780   -2.5980 h4        1 036      0.076000
     21 H3         -1.1900   -1.7650   -0.1990 hc        1 036      0.059000
     22 H3A        -2.1040   -0.4550   -0.1500 hc        1 036      0.059000
     23 H4          0.6500   -0.5200   -0.8490 hc        1 036      0.069000
     24 H4A        -0.2470    0.7930   -1.0030 hc        1 036      0.069000
     25 H5          0.1230   -0.5170    1.4910 hc        1 036      0.052000
     26 H5A        -0.5800    0.9020    1.2810 hc        1 036      0.052000
     27 H6          2.1790    0.3690    0.8490 hc        1 036      0.056000
     28 H6A         1.4960    1.7730    0.5130 hc        1 036      0.056000
     29 H7          1.0780    2.1910    2.7260 h1        1 036      0.030000
     30 H7A         1.4420    0.6880    3.1350 h1        1 036      0.030000
@<TRIPOS>BOND
     1    1    8 1   
     2    1    9 1   
     3    2    3 1   
     4    2   10 1   
     5    2   20 1   
     6    3    4 1   
     7    3   21 1   
     8    3   22 1   
     9    4    5 1   
    10    4   23 1   
    11    4   24 1   
    12    5    6 1   
    13    5   25 1   
    14    5   26 1   
    15    6    7 1   
    16    6   27 1   
    17    6   28 1   
    18    7   11 1   
    19    7   29 1   
    20    7   30 1   
    21   10   12 1   
    22   11   16 1   
    23   12   13 1   
    24   12   14 1   
    25   12   15 1   
    26   16   17 1   
    27   16   18 1   
    28   16   19 1   
@<TRIPOS>SUBSTRUCTURE
     1 036         1 TEMP              0 ****  ****    0 ROOT
