@<TRIPOS>MOLECULE
037
   23    24     1     0     0
SMALL
bcc


@<TRIPOS>ATOM
      1 C           2.0950    0.1190    0.0480 c         1 037      0.901600
      2 N           0.3520   -1.4800   -0.9130 n3        1 037     -0.803200
      3 O           2.7540   -0.9030    0.3930 o         1 037     -0.840800
      4 CA          0.6980   -0.0820   -0.6250 c3        1 037      0.033500
      5 CB         -0.3970    0.5310    0.2720 c3        1 037     -0.054700
      6 CG         -1.3290   -0.6350    0.6650 c3        1 037     -0.087700
      7 CBE        -1.2660    1.5740   -0.4210 c3        1 037     -0.067400
      8 CBF        -2.7120    1.2600   -0.0600 c3        1 037     -0.077400
      9 CD         -0.8520   -1.8370   -0.1710 c3        1 037      0.166800
     10 CD2        -2.7600   -0.1990    0.3770 c3        1 037     -0.066400
     11 HA          0.7360    0.4530   -1.6150 h1        1 037      0.050700
     12 HB2         0.0840    0.9840    1.1770 hc        1 037      0.074700
     13 HG2        -1.2160   -0.8730    1.7530 hc        1 037      0.041700
     14 HBE        -0.9830    2.6040   -0.0930 hc        1 037      0.039200
     15 HBEA       -1.1300    1.5270   -1.5310 hc        1 037      0.039200
     16 HBF        -3.0540    1.9220    0.7750 hc        1 037      0.020700
     17 HBFA       -3.3920    1.4410   -0.9280 hc        1 037      0.020700
     18 HD2        -1.6340   -2.1290   -0.9260 h1        1 037      0.013700
     19 HD3        -0.6890   -2.7260    0.4980 h1        1 037      0.013700
     20 H1         -3.2170   -0.8270   -0.4300 hc        1 037      0.024200
     21 HD2A       -3.4000   -0.3160    1.2870 hc        1 037      0.024200
     22 OXT         2.4860    1.3080    0.2070 o         1 037     -0.840800
     23 H           1.1250   -2.0600   -0.6210 hn        1 037      0.374800
@<TRIPOS>BOND
     1    1    3 1   
     2    1    4 1   
     3    1   22 1   
     4    2    4 1   
     5    2    9 1   
     6    2   23 1   
     7    4    5 1   
     8    4   11 1   
     9    5    6 1   
    10    5    7 1   
    11    5   12 1   
    12    6    9 1   
    13    6   10 1   
    14    6   13 1   
    15    7    8 1   
    16    7   14 1   
    17    7   15 1   
    18    8   10 1   
    19    8   16 1   
    20    8   17 1   
    21    9   18 1   
    22    9   19 1   
    23   10   20 1   
    24   10   21 1   
@<TRIPOS>SUBSTRUCTURE
     1 037         1 TEMP              0 ****  ****    0 ROOT
