@<TRIPOS>MOLECULE
037
   23    23     1     0     0
SMALL
bcc


@<TRIPOS>ATOM
      1 C          -2.3670   -0.7040   -0.7490 c1        1 037      0.788000
      2 N          -0.4100    0.6450   -1.5610 nh        1 037     -0.367100
      3 O          -2.9100   -1.1150    0.3100 o         1 037     -0.809000
      4 CA         -0.9230   -0.7360   -0.8830 c2        1 037      0.145200
      5 CB         -0.3660   -0.6820    0.3150 c3        1 037     -0.130000
      6 CG         -0.2190    0.6860    0.6050 c3        1 037     -0.087700
      7 CBE         1.1620   -1.2750    0.1690 c3        1 037     -0.067400
      8 CBF         2.0840   -0.3230    0.8830 c3        1 037     -0.077400
      9 CD         -0.4230    1.4570   -0.7180 c3        1 037     -0.010700
     10 CD2         1.2610    0.8660    1.2840 c3        1 037     -0.066400
     11 HA         -0.8010   -1.5600   -1.3970 h4        1 037     -0.039200
     12 HB2        -0.8890   -1.1550    0.9950 hc        1 037      0.074700
     13 HG2        -0.9050    0.9570    1.2470 hc        1 037      0.041700
     14 HBE         1.2150   -2.1620    0.5800 hc        1 037      0.039200
     15 HBEA        1.4080   -1.3310   -0.7760 hc        1 037      0.039200
     16 HBF         2.8050   -0.0440    0.2840 hc        1 037      0.020700
     17 HBFA        2.4590   -0.7540    1.6780 hc        1 037      0.020700
     18 HD2         0.3070    2.0980   -0.8530 h1        1 037      0.013700
     19 HD3        -1.2860    1.9230   -0.7090 h1        1 037      0.013700
     20 H1          1.1780    0.9000    2.2580 hc        1 037      0.024200
     21 HD2A        1.6800    1.6860    0.9570 hc        1 037      0.024200
     22 OXT        -3.0770   -0.2660   -1.6910 o         1 037     -0.809000
     23 H          -0.9850    0.8900   -2.2290 hn        1 037      0.219700
@<TRIPOS>BOND
     1    1    3 2   
     2    1   22 2   
     3    2    4 2   
     4    2    9 1   
     5    2   23 1   
     6    4    5 1   
     7    4   11 1   
     8    5    6 1   
     9    5    7 1   
    10    5   12 1   
    11    6    9 1   
    12    6   10 1   
    13    6   13 1   
    14    7    8 1   
    15    7   14 1   
    16    7   15 1   
    17    8   10 1   
    18    8   16 1   
    19    8   17 1   
    20    9   18 1   
    21    9   19 1   
    22   10   20 1   
    23   10   21 1   
@<TRIPOS>SUBSTRUCTURE
     1 037         1 TEMP              0 ****  ****    0 ROOT
