@<TRIPOS>MOLECULE
039
   46    50     1     0     0
SMALL
bcc


@<TRIPOS>ATOM
      1 CAU         0.0740    0.2890   -0.1440 c3        1 039      0.113700
      2 OAT         1.4580    0.4030    0.1720 os        1 039     -0.329900
      3 CAP         1.8120    0.1330    1.4790 ca        1 039      0.136100
      4 CAQ         0.8850    0.0800    2.5270 ca        1 039     -0.198000
      5 CAR         1.3180   -0.1530    3.8300 ca        1 039     -0.082000
      6 CAJ         2.6730   -0.3300    4.0980 ca        1 039     -0.158000
      7 CAI         3.6060   -0.2800    3.0650 ca        1 039     -0.074000
      8 CAH         3.2010   -0.0470    1.7370 ca        1 039     -0.004400
      9 NAG         4.1710   -0.0320    0.6930 n         1 039     -0.309500
     10 CAF         4.6870   -1.2640    0.2010 c         1 039      0.718100
     11 OAB         4.3040   -2.3110    0.7440 o         1 039     -0.584500
     12 CAE         5.6570   -1.1740   -0.9150 ca        1 039     -0.179600
     13 CAD         6.2610   -2.3020   -1.5040 ca        1 039      0.082400
     14 CL          5.9520   -3.8940   -1.0030 cl        1 039     -0.055400
     15 CAC         7.1660   -2.1500   -2.5560 ca        1 039     -0.158000
     16 CAK         7.4830   -0.8780   -3.0380 ca        1 039     -0.088000
     17 CAL         6.9070    0.2500   -2.4820 ca        1 039     -0.124000
     18 CAM         5.9850    0.1200   -1.4140 ca        1 039      0.199400
     19 NAN         5.4230    1.2830   -0.8840 nc        1 039     -0.634100
     20 CAO         4.5590    1.1870    0.1080 cd        1 039      0.535900
     21 CAS         3.9320    2.4430    0.6670 c3        1 039     -0.115600
     22 S6          4.6670    3.8830   -0.0540 ss        1 039     -0.068400
     23 C6          3.8820    5.1580    0.7180 ca        1 039      0.543600
     24 C5          4.2700    6.4760    0.3510 ca        1 039     -0.164200
     25 N7          5.2090    6.9910   -0.5540 nc        1 039     -0.526100
     26 C8          5.1060    8.3250   -0.4450 cd        1 039      0.411700
     27 N9          4.1400    8.7470    0.4930 na        1 039     -0.378000
     28 C4          3.5810    7.5810    1.0260 ca        1 039      0.432800
     29 N3          2.6070    7.4040    1.9680 nb        1 039     -0.702000
     30 C2          2.3490    6.0980    2.2090 ca        1 039      0.663900
     31 N1          2.9170    4.9890    1.6510 nb        1 039     -0.753000
     32 HAU1        0.0580    0.3890   -1.2600 h1        1 039      0.049033
     33 HAU2       -0.3290   -0.7030    0.1710 h1        1 039      0.049033
     34 HAU3       -0.5010    1.1200    0.3320 h1        1 039      0.049033
     35 HAQ        -0.1870    0.2170    2.3280 ha        1 039      0.143000
     36 HAR         0.5830   -0.1980    4.6480 ha        1 039      0.138000
     37 HAJ         3.0130   -0.5170    5.1270 ha        1 039      0.141000
     38 HAI         4.6730   -0.4440    3.2900 ha        1 039      0.149000
     39 HAC         7.6340   -3.0370   -3.0100 ha        1 039      0.152000
     40 HAK         8.2000   -0.7780   -3.8680 ha        1 039      0.142000
     41 HAL         7.1580    1.2520   -2.8650 ha        1 039      0.160000
     42 HAS1        4.0540    2.4570    1.7810 h1        1 039      0.112200
     43 HAS2        2.8290    2.4100    0.4510 h1        1 039      0.112200
     44 H8          5.7000    9.0510   -1.0140 h5        1 039      0.076800
     45 H9          3.8990    9.6720    0.7330 hn        1 039      0.320700
     46 H2          1.5640    5.8970    2.9690 h5        1 039      0.054100
@<TRIPOS>BOND
     1    1    2 1   
     2    1   32 1   
     3    1   33 1   
     4    1   34 1   
     5    2    3 1   
     6    3    4 ar  
     7    3    8 ar  
     8    4    5 ar  
     9    4   35 1   
    10    5    6 ar  
    11    5   36 1   
    12    6    7 ar  
    13    6   37 1   
    14    7    8 ar  
    15    7   38 1   
    16    8    9 1   
    17    9   10 1   
    18    9   20 1   
    19   10   11 2   
    20   10   12 1   
    21   12   13 ar  
    22   12   18 ar  
    23   13   14 1   
    24   13   15 ar  
    25   15   16 ar  
    26   15   39 1   
    27   16   17 ar  
    28   16   40 1   
    29   17   18 ar  
    30   17   41 1   
    31   18   19 1   
    32   19   20 2   
    33   20   21 1   
    34   21   22 1   
    35   21   42 1   
    36   21   43 1   
    37   22   23 1   
    38   23   24 ar  
    39   23   31 ar  
    40   24   25 1   
    41   24   28 ar  
    42   25   26 2   
    43   26   27 1   
    44   26   44 1   
    45   27   28 1   
    46   27   45 1   
    47   28   29 ar  
    48   29   30 ar  
    49   30   31 ar  
    50   30   46 1   
@<TRIPOS>SUBSTRUCTURE
     1 039         1 TEMP              0 ****  ****    0 ROOT
