@<TRIPOS>MOLECULE
039
   46    50     1     0     0
SMALL
bcc


@<TRIPOS>ATOM
      1 CAU        -0.8660    3.0670   -2.9080 c3        1 039      0.113700
      2 OAT        -0.8910    2.1970   -1.7800 os        1 039     -0.329900
      3 CAP        -0.9900    2.8010   -0.5420 ca        1 039      0.136100
      4 CAQ        -0.7470    4.1650   -0.3350 ca        1 039     -0.198000
      5 CAR        -0.8220    4.6980    0.9490 ca        1 039     -0.082000
      6 CAJ        -1.1350    3.8800    2.0320 ca        1 039     -0.158000
      7 CAI        -1.3790    2.5230    1.8400 ca        1 039     -0.074000
      8 CAH        -1.3120    1.9520    0.5540 ca        1 039     -0.004400
      9 NAG        -1.5980    0.5660    0.3790 n         1 039     -0.309500
     10 CAF        -2.9520    0.1270    0.3810 c         1 039      0.718100
     11 OAB        -3.8350    0.9710    0.5900 o         1 039     -0.584500
     12 CAE        -3.1750   -1.3190    0.1470 ca        1 039     -0.179600
     13 CAD        -4.4550   -1.9070    0.1270 ca        1 039      0.082400
     14 CL         -5.8890   -1.0310    0.3730 cl        1 039     -0.055400
     15 CAC        -4.5990   -3.2760   -0.1010 ca        1 039     -0.158000
     16 CAK        -3.4770   -4.0800   -0.3140 ca        1 039     -0.088000
     17 CAL        -2.2060   -3.5340   -0.3030 ca        1 039     -0.124000
     18 CAM        -2.0360   -2.1460   -0.0730 ca        1 039      0.199400
     19 NAN        -0.7370   -1.6330   -0.0730 nc        1 039     -0.634100
     20 CAO        -0.5540   -0.3440    0.1340 cd        1 039      0.535900
     21 CAS         0.8490    0.2170    0.1100 c3        1 039     -0.115600
     22 S6          2.0410   -1.0860   -0.0240 ss        1 039     -0.068400
     23 C6          3.5190   -0.2770    0.0140 ca        1 039      0.543600
     24 C5          4.6940   -1.0720   -0.0670 ca        1 039     -0.164200
     25 N7          4.9240   -2.4510   -0.1750 nc        1 039     -0.526100
     26 C8          6.2600   -2.5820   -0.2080 cd        1 039      0.411700
     27 N9          6.9560   -1.3570   -0.1290 na        1 039     -0.378000
     28 C4          5.9780   -0.3610   -0.0360 ca        1 039      0.432800
     29 N3          6.0880    0.9970    0.0640 nb        1 039     -0.702000
     30 C2          4.8860    1.6130    0.1330 ca        1 039      0.663900
     31 N1          3.6350    1.0680    0.1130 nb        1 039     -0.753000
     32 HAU1        0.1010    3.6260   -2.9450 h1        1 039      0.049033
     33 HAU2       -0.9470    2.3640   -3.7760 h1        1 039      0.049033
     34 HAU3       -1.7300    3.7730   -2.8880 h1        1 039      0.049033
     35 HAQ        -0.5010    4.8200   -1.1820 ha        1 039      0.143000
     36 HAR        -0.6340    5.7710    1.1040 ha        1 039      0.138000
     37 HAJ        -1.1970    4.3040    3.0450 ha        1 039      0.141000
     38 HAI        -1.6480    1.8930    2.7030 ha        1 039      0.149000
     39 HAC        -5.6030   -3.7290   -0.1140 ha        1 039      0.152000
     40 HAK        -3.6100   -5.1590   -0.4920 ha        1 039      0.142000
     41 HAL        -1.3230   -4.1700   -0.4720 ha        1 039      0.160000
     42 HAS1        0.9310    0.9200   -0.7630 h1        1 039      0.112200
     43 HAS2        1.0270    0.8170    1.0410 h1        1 039      0.112200
     44 H8          6.7970   -3.5360   -0.2900 h5        1 039      0.076800
     45 H9          7.9310   -1.2170   -0.1350 hn        1 039      0.320700
     46 H2          4.9190    2.7200    0.2170 h5        1 039      0.054100
@<TRIPOS>BOND
     1    1    2 1   
     2    1   32 1   
     3    1   33 1   
     4    1   34 1   
     5    2    3 1   
     6    3    4 ar  
     7    3    8 ar  
     8    4    5 ar  
     9    4   35 1   
    10    5    6 ar  
    11    5   36 1   
    12    6    7 ar  
    13    6   37 1   
    14    7    8 ar  
    15    7   38 1   
    16    8    9 1   
    17    9   10 1   
    18    9   20 1   
    19   10   11 2   
    20   10   12 1   
    21   12   13 ar  
    22   12   18 ar  
    23   13   14 1   
    24   13   15 ar  
    25   15   16 ar  
    26   15   39 1   
    27   16   17 ar  
    28   16   40 1   
    29   17   18 ar  
    30   17   41 1   
    31   18   19 1   
    32   19   20 2   
    33   20   21 1   
    34   21   22 1   
    35   21   42 1   
    36   21   43 1   
    37   22   23 1   
    38   23   24 ar  
    39   23   31 ar  
    40   24   25 1   
    41   24   28 ar  
    42   25   26 2   
    43   26   27 1   
    44   26   44 1   
    45   27   28 1   
    46   27   45 1   
    47   28   29 ar  
    48   29   30 ar  
    49   30   31 ar  
    50   30   46 1   
@<TRIPOS>SUBSTRUCTURE
     1 039         1 TEMP              0 ****  ****    0 ROOT
