@<TRIPOS>MOLECULE
039
   46    50     1     0     0
SMALL
bcc


@<TRIPOS>ATOM
      1 CAU         0.0750    0.2830   -0.1480 c3        1 039      0.113700
      2 OAT         1.4590    0.4000    0.1700 os        1 039     -0.329900
      3 CAP         1.8120    0.1320    1.4780 ca        1 039      0.136100
      4 CAQ         0.8840    0.0780    2.5260 ca        1 039     -0.198000
      5 CAR         1.3170   -0.1530    3.8280 ca        1 039     -0.082000
      6 CAJ         2.6720   -0.3280    4.0970 ca        1 039     -0.158000
      7 CAI         3.6050   -0.2780    3.0660 ca        1 039     -0.074000
      8 CAH         3.2010   -0.0470    1.7370 ca        1 039     -0.004400
      9 NAG         4.1720   -0.0310    0.6930 n         1 039     -0.309500
     10 CAF         4.6890   -1.2630    0.2030 c         1 039      0.718100
     11 OAB         4.3080   -2.3100    0.7460 o         1 039     -0.584500
     12 CAE         5.6590   -1.1730   -0.9130 ca        1 039     -0.179600
     13 CAD         6.2650   -2.3010   -1.5020 ca        1 039      0.082400
     14 CL          5.9580   -3.8930   -0.9990 cl        1 039     -0.055400
     15 CAC         7.1690   -2.1480   -2.5530 ca        1 039     -0.158000
     16 CAK         7.4850   -0.8770   -3.0360 ca        1 039     -0.088000
     17 CAL         6.9080    0.2520   -2.4820 ca        1 039     -0.124000
     18 CAM         5.9860    0.1210   -1.4140 ca        1 039      0.199400
     19 NAN         5.4230    1.2840   -0.8840 nc        1 039     -0.634100
     20 CAO         4.5580    1.1870    0.1070 cd        1 039      0.535900
     21 CAS         3.9290    2.4430    0.6650 c3        1 039     -0.115600
     22 S6          4.6660    3.8840   -0.0540 ss        1 039     -0.068400
     23 C6          3.8800    5.1590    0.7170 ca        1 039      0.543600
     24 C5          4.2690    6.4760    0.3520 ca        1 039     -0.164200
     25 N7          5.2100    6.9910   -0.5510 nc        1 039     -0.526100
     26 C8          5.1080    8.3260   -0.4410 cd        1 039      0.411700
     27 N9          4.1400    8.7480    0.4950 na        1 039     -0.378000
     28 C4          3.5790    7.5820    1.0260 ca        1 039      0.432800
     29 N3          2.6030    7.4040    1.9660 nb        1 039     -0.702000
     30 C2          2.3440    6.0980    2.2060 ca        1 039      0.663900
     31 N1          2.9130    4.9890    1.6490 nb        1 039     -0.753000
     32 HAU1        0.0590    0.3810   -1.2630 h1        1 039      0.049033
     33 HAU2       -0.5030    1.1130    0.3280 h1        1 039      0.049033
     34 HAU3       -0.3260   -0.7100    0.1690 h1        1 039      0.049033
     35 HAQ        -0.1880    0.2140    2.3250 ha        1 039      0.143000
     36 HAR         0.5810   -0.1980    4.6460 ha        1 039      0.138000
     37 HAJ         3.0110   -0.5140    5.1270 ha        1 039      0.141000
     38 HAI         4.6720   -0.4410    3.2910 ha        1 039      0.149000
     39 HAC         7.6390   -3.0350   -3.0070 ha        1 039      0.152000
     40 HAK         8.2020   -0.7760   -3.8660 ha        1 039      0.142000
     41 HAL         7.1580    1.2540   -2.8650 ha        1 039      0.160000
     42 HAS1        4.0490    2.4570    1.7800 h1        1 039      0.112200
     43 HAS2        2.8280    2.4100    0.4470 h1        1 039      0.112200
     44 H8          5.7030    9.0520   -1.0090 h5        1 039      0.076800
     45 H9          3.8990    9.6730    0.7360 hn        1 039      0.320700
     46 H2          1.5580    5.8970    2.9640 h5        1 039      0.054100
@<TRIPOS>BOND
     1    1    2 1   
     2    1   32 1   
     3    1   33 1   
     4    1   34 1   
     5    2    3 1   
     6    3    4 ar  
     7    3    8 ar  
     8    4    5 ar  
     9    4   35 1   
    10    5    6 ar  
    11    5   36 1   
    12    6    7 ar  
    13    6   37 1   
    14    7    8 ar  
    15    7   38 1   
    16    8    9 1   
    17    9   10 1   
    18    9   20 1   
    19   10   11 2   
    20   10   12 1   
    21   12   13 ar  
    22   12   18 ar  
    23   13   14 1   
    24   13   15 ar  
    25   15   16 ar  
    26   15   39 1   
    27   16   17 ar  
    28   16   40 1   
    29   17   18 ar  
    30   17   41 1   
    31   18   19 1   
    32   19   20 2   
    33   20   21 1   
    34   21   22 1   
    35   21   42 1   
    36   21   43 1   
    37   22   23 1   
    38   23   24 ar  
    39   23   31 ar  
    40   24   25 1   
    41   24   28 ar  
    42   25   26 2   
    43   26   27 1   
    44   26   44 1   
    45   27   28 1   
    46   27   45 1   
    47   28   29 ar  
    48   29   30 ar  
    49   30   31 ar  
    50   30   46 1   
@<TRIPOS>SUBSTRUCTURE
     1 039         1 TEMP              0 ****  ****    0 ROOT
