@<TRIPOS>MOLECULE
039
   46    38     1     0     0
SMALL
bcc


@<TRIPOS>ATOM
      1 CAU         0.7170   -0.1610    4.1590 c3        1 039     -0.075000
      2 OAT         0.3730   -1.2970    3.3740 os        1 039     -0.213000
      3 CAP        -1.0250   -1.4640    3.1840 c2        1 039      0.086000
      4 CAQ        -1.8720   -1.5380    4.2870 c2        1 039     -0.200000
      5 CAR        -3.2270   -1.7990    4.1070 c1        1 039     -0.083000
      6 CAJ        -3.7370   -1.9850    2.8260 c1        1 039     -0.110500
      7 CAI        -2.8910   -1.9110    1.7230 c1        1 039     -0.110500
      8 CAH        -1.5350   -1.6510    1.9010 c1        1 039      0.003000
      9 NAG        -0.6900   -1.7020    0.8360 n1        1 039     -0.239000
     10 CAF        -0.0750   -2.8620    0.5210 c1        1 039      0.354000
     11 OAB        -0.2480   -3.8510    1.2130 o         1 039     -0.312000
     12 CAE         0.7070   -2.9440   -0.6250 c1        1 039     -0.159000
     13 CAD         1.3740   -4.1510   -0.9440 c2        1 039      0.006000
     14 CL          1.3740   -5.7780   -0.3060 cl        1 039      0.022000
     15 CAC         2.1780   -4.2240   -2.0760 c1        1 039     -0.161000
     16 CAK         2.3260   -3.1120   -2.8940 c1        1 039     -0.110500
     17 CAL         1.6710   -1.9260   -2.5820 c1        1 039     -0.110500
     18 CAM         0.8530   -1.8520   -1.4300 c1        1 039      0.061000
     19 NAN         0.2290   -0.6780   -1.1070 n2        1 039     -0.209000
     20 CAO        -0.5410   -0.5990    0.0220 c1        1 039      0.158000
     21 CAS        -0.2200    0.9110   -0.0610 c3        1 039     -0.280000
     22 S6         -0.8490    1.5740   -1.6060 ss        1 039      0.312000
     23 C6          0.1800    2.9490   -2.1310 c2        1 039     -0.082000
     24 C5          0.3810    4.3160   -1.9640 c1        1 039     -0.157000
     25 N7          0.1830    5.1460   -0.9020 n1        1 039     -0.125000
     26 C8          0.5420    6.4000   -1.2770 c1        1 039     -0.026000
     27 N9          0.9610    6.3490   -2.5650 n2        1 039     -0.229000
     28 C4          0.8610    5.0570   -2.9900 c1        1 039      0.037000
     29 N3          1.1470    4.4620   -4.1860 n1        1 039     -0.162000
     30 C2          0.9490    3.1180   -4.3470 c1        1 039     -0.013000
     31 N1          0.4630    2.3670   -3.3100 n1        1 039     -0.166000
     32 HAU1        1.6940   -0.1180    4.2620 h1        1 039      0.087000
     33 HAU2        0.2970   -0.2360    5.0440 h1        1 039      0.087000
     34 HAU3        0.3990    0.6530    3.7130 h1        1 039      0.087000
     35 HAQ        -1.5130   -1.4070    5.1910 ha        1 039      0.142000
     36 HAR        -3.8250   -1.8510    4.8860 ha        1 039      0.138000
     37 HAJ        -4.6940   -2.1690    2.6990 ha        1 039      0.148000
     38 HAI        -3.2510   -2.0430    0.8190 ha        1 039      0.148000
     39 HAC         2.6410   -5.0610   -2.2960 ha        1 039      0.151000
     40 HAK         2.8940   -3.1630   -3.6930 ha        1 039      0.148000
     41 HAL         1.7760   -1.1420   -3.1600 ha        1 039      0.148000
     42 HAS1        0.7530    1.0410   -0.0210 h1        1 039      0.165500
     43 HAS2       -0.6440    1.3780    0.6930 h1        1 039      0.165500
     44 H8          0.4990    7.2030   -0.7170 DU        1 039      0.239000
     45 H9          1.2610    7.0600   -3.0640 DU        1 039      0.239000
     46 H2          1.1550    2.6920   -5.2070 ha        1 039      0.196000
@<TRIPOS>BOND
     1    1    2 1   
     2    1   32 1   
     3    1   33 1   
     4    1   34 1   
     5    2    3 1   
     6    3    4 1   
     7    3    8 1   
     8    4    5 1   
     9    4   35 1   
    10    5   36 1   
    11    6    7 1   
    12    6   37 1   
    13    7   38 1   
    14    9   10 1   
    15   10   11 1   
    16   12   13 1   
    17   12   18 1   
    18   13   14 1   
    19   13   15 1   
    20   15   39 1   
    21   16   17 1   
    22   16   40 1   
    23   17   41 1   
    24   18   19 1   
    25   19   20 1   
    26   20   21 1   
    27   21   22 1   
    28   21   42 1   
    29   21   43 1   
    30   22   23 1   
    31   23   24 1   
    32   23   31 1   
    33   24   28 1   
    34   25   26 1   
    35   26   27 1   
    36   27   28 1   
    37   29   30 1   
    38   30   46 1   
@<TRIPOS>SUBSTRUCTURE
     1 039         1 TEMP              0 ****  ****    0 ROOT
