@<TRIPOS>MOLECULE
03A
   31    30     1     0     0
SMALL
bcc


@<TRIPOS>ATOM
      1 NAA       730.0480 -508.6830  739.5990 n4        1 03A     -0.071000
      2 NAE      -784.0000  545.4200 -793.0930 n4        1 03A     -0.116000
      3 CAH      -783.4100  544.1140 -793.2980 c1        1 03A      0.132000
      4 CAI       727.6110 -508.7040  740.4830 c2        1 03A      0.210000
      5 CAJ      -782.0250  543.8480 -793.0050 c3        1 03A     -0.322000
      6 CAK      -781.1310  544.9430 -792.4660 c3        1 03A     -0.182000
      7 CAL      -779.7310  544.4290 -792.2380 c3        1 03A     -0.219000
      8 CAM       728.6250 -508.2000  739.4500 c2        1 03A      0.164000
      9 CAN       730.8480 -507.7450  740.4080 cx        1 03A     -0.212000
     10 CAO       730.9350 -507.8870  741.9150 cx        1 03A     -0.174000
     11 CAP       732.1290 -508.2090  741.0740 cx        1 03A     -0.174000
     12 OBS       728.3840 -507.4500  738.5210 o         1 03A     -0.118000
     13 HNAA      730.0380 -509.6090  740.0490 hn        1 03A      0.263500
     14 HAH       726.6140 -508.2240  740.3670 h4        1 03A      0.212000
     15 OBR       727.9370 -509.5450  741.3020 o         1 03A     -0.179000
     16 HAJ      -782.0260  542.9500 -792.3000 hc        1 03A      0.219000
     17 HAJA     -781.5860  543.4100 -793.9650 hc        1 03A      0.219000
     18 HAK      -781.5410  545.3310 -791.4950 hc        1 03A      0.088000
     19 HAKA     -781.0920  545.8000 -793.1910 hc        1 03A      0.088000
     20 HAL      -779.7310  543.5920 -791.4990 hc        1 03A      0.100333
     21 HALA     -779.0850  545.2500 -791.8400 hc        1 03A      0.100333
     22 HALB     -779.2830  544.0610 -793.1920 hc        1 03A      0.100333
     23 HAN       730.8100 -506.7270  739.9530 hx        1 03A      0.192000
     24 HAO       730.3950 -508.7110  742.4230 hc        1 03A      0.156000
     25 HAOA      730.9180 -506.9560  742.5160 hc        1 03A      0.156000
     26 HAP       732.4540 -509.2630  740.9810 hc        1 03A      0.156000
     27 HAPA      732.9930 -507.5140  741.0490 hc        1 03A      0.156000
     28 HNAE     -784.3880  545.7130 -794.0050 hn        1 03A      0.263000
     29 HAA2      730.4890 -508.7650  738.6720 hn        1 03A      0.263500
     30 HAE2     -784.7990  545.2830 -792.4520 hn        1 03A      0.263000
     31 H2       -783.3970  546.1690 -792.7270 hn        1 03A      0.263000
@<TRIPOS>BOND
     1    1    8 1   
     2    1    9 1   
     3    1   13 1   
     4    1   29 1   
     5    2    3 1   
     6    2   28 1   
     7    2   30 1   
     8    2   31 1   
     9    3    5 1   
    10    4    8 1   
    11    4   14 1   
    12    4   15 1   
    13    5    6 1   
    14    5   16 1   
    15    5   17 1   
    16    6    7 1   
    17    6   18 1   
    18    6   19 1   
    19    7   20 1   
    20    7   21 1   
    21    7   22 1   
    22    8   12 1   
    23    9   10 1   
    24    9   11 1   
    25    9   23 1   
    26   10   11 1   
    27   10   24 1   
    28   10   25 1   
    29   11   26 1   
    30   11   27 1   
@<TRIPOS>SUBSTRUCTURE
     1 03A         1 TEMP              0 ****  ****    0 ROOT
