@<TRIPOS>MOLECULE
03A
   29    29     1     0     0
SMALL
bcc


@<TRIPOS>ATOM
      1 NAA         1.8310    0.1690   -0.1200 n         1 03A     -0.519900
      2 NAE        -2.7090    1.9980    0.5690 n3        1 03A     -0.888800
      3 CAH        -1.7600    0.9090    0.5940 c3        1 03A      0.086500
      4 CAI        -0.3200    1.3120    0.2860 c         1 03A      0.463100
      5 CAJ        -2.1310   -0.2390   -0.3600 c3        1 03A     -0.068400
      6 CAK        -3.4310   -0.9010    0.0410 c3        1 03A     -0.075400
      7 CAL        -3.7300   -2.0860   -0.8410 c3        1 03A     -0.095100
      8 CAM         0.7330    0.2860    0.7010 c         1 03A      0.567100
      9 CAN         2.9120   -0.7040    0.1770 cx        1 03A      0.042700
     10 CAO         3.8120   -1.2360   -0.9210 cx        1 03A     -0.148900
     11 CAP         4.3570   -0.2530    0.0730 cx        1 03A     -0.148900
     12 OBS         0.5620   -0.4160    1.7150 o         1 03A     -0.584100
     13 HNAA        1.9690    0.8510   -0.8310 hn        1 03A      0.322500
     14 H2         -2.8440    2.3360   -0.3650 hn        1 03A      0.359300
     15 HAH        -1.7510    0.4960    1.6520 h1        1 03A      0.109700
     16 OBR         0.0020    2.3870   -0.2240 o         1 03A     -0.514100
     17 HAJ        -2.2070    0.1430   -1.4120 hc        1 03A      0.048700
     18 HAJA       -1.3020   -0.9950   -0.3280 hc        1 03A      0.048700
     19 HAK        -3.3650   -1.2320    1.1110 hc        1 03A      0.053200
     20 HAKA       -4.2710   -0.1600   -0.0240 hc        1 03A      0.053200
     21 HAL        -3.8150   -1.7730   -1.9090 hc        1 03A      0.033700
     22 HALA       -2.9200   -2.8520   -0.7640 hc        1 03A      0.033700
     23 HALB       -4.6930   -2.5600   -0.5340 hc        1 03A      0.033700
     24 HAN         2.6460   -1.3940    1.0130 h1        1 03A      0.120700
     25 HAO         4.1220   -2.2950   -0.8650 hc        1 03A      0.076700
     26 HAOA        3.6610   -0.9090   -1.9640 hc        1 03A      0.076700
     27 HAP         4.5900    0.7710   -0.2680 hc        1 03A      0.076700
     28 HAPA        5.0640   -0.5970    0.8480 hc        1 03A      0.076700
     29 HNAE       -2.3930    2.7510    1.1470 hn        1 03A      0.359300
@<TRIPOS>BOND
     1    1    8 1   
     2    1    9 1   
     3    1   13 1   
     4    2    3 1   
     5    2   14 1   
     6    2   29 1   
     7    3    4 1   
     8    3    5 1   
     9    3   15 1   
    10    4    8 1   
    11    4   16 2   
    12    5    6 1   
    13    5   17 1   
    14    5   18 1   
    15    6    7 1   
    16    6   19 1   
    17    6   20 1   
    18    7   21 1   
    19    7   22 1   
    20    7   23 1   
    21    8   12 2   
    22    9   10 1   
    23    9   11 1   
    24    9   24 1   
    25   10   11 1   
    26   10   25 1   
    27   10   26 1   
    28   11   27 1   
    29   11   28 1   
@<TRIPOS>SUBSTRUCTURE
     1 03A         1 TEMP              0 ****  ****    0 ROOT
