@<TRIPOS>MOLECULE
03A
   31    30     1     0     0
SMALL
bcc


@<TRIPOS>ATOM
      1 NAA      -418.4320  -68.8700  138.8220 ny        1 03A     -0.071000
      2 NAE       452.2670   74.5480 -150.0690 nz        1 03A     -0.116000
      3 CAH       451.0840   74.3570 -150.8820 c1        1 03A      0.132000
      4 CAI      -418.7440  -67.4750  140.9850 c2        1 03A      0.210000
      5 CAJ       449.7570   74.4260 -150.3240 c3        1 03A     -0.322000
      6 CAK       449.5580   74.7040 -148.8510 c3        1 03A     -0.182000
      7 CAL       448.0890   74.7400 -148.5060 c3        1 03A     -0.219000
      8 CAM      -418.7300  -67.5310  139.4540 c2        1 03A      0.164000
      9 CAN      -416.9880  -69.0280  138.5640 cx        1 03A     -0.212000
     10 CAO      -416.0630  -69.6030  139.6190 cx        1 03A     -0.174000
     11 CAP      -416.3880  -70.4120  138.4040 cx        1 03A     -0.174000
     12 OBS      -418.9410  -66.5940  138.7050 o         1 03A     -0.118000
     13 HNAA     -418.7550  -69.6140  139.4560 hn        1 03A      0.263500
     14 HAH      -418.8750  -66.4410  141.3710 h4        1 03A      0.212000
     15 OBR      -418.6260  -68.4990  141.6360 o         1 03A     -0.179000
     16 HAJ       449.1980   75.1960 -150.9560 hc        1 03A      0.219000
     17 HAJA      449.2490   73.4470 -150.6190 hc        1 03A      0.219000
     18 HAK       450.0580   73.9070 -148.2380 hc        1 03A      0.088000
     19 HAKA      450.0210   75.6900 -148.5790 hc        1 03A      0.088000
     20 HAL       447.6020   73.7620 -148.7400 hc        1 03A      0.100333
     21 HALA      447.9600   74.9460 -147.4150 hc        1 03A      0.100333
     22 HALB      447.5670   75.5440 -149.0800 hc        1 03A      0.100333
     23 HAN      -416.6290  -68.2000  137.9090 hx        1 03A      0.192000
     24 HAO      -416.4730  -69.9150  140.6010 hc        1 03A      0.156000
     25 HAOA     -415.0610  -69.1410  139.7230 hc        1 03A      0.156000
     26 HAP      -417.0250  -71.3110  138.5100 hc        1 03A      0.156000
     27 HAPA     -415.6280  -70.5450  137.6070 hc        1 03A      0.156000
     28 HNAE      452.7910   75.3320 -150.4940 hn        1 03A      0.263000
     29 HAA2     -418.9300  -68.9520  137.9240 hn        1 03A      0.263500
     30 HAE2      452.1390   74.7320 -149.0660 hn        1 03A      0.263000
     31 H2        452.8430   73.6970 -150.1870 hn        1 03A      0.263000
@<TRIPOS>BOND
     1    1    8 1   
     2    1    9 1   
     3    1   13 1   
     4    1   29 1   
     5    2    3 1   
     6    2   28 1   
     7    2   30 1   
     8    2   31 1   
     9    3    5 1   
    10    4    8 1   
    11    4   14 1   
    12    4   15 1   
    13    5    6 1   
    14    5   16 1   
    15    5   17 1   
    16    6    7 1   
    17    6   18 1   
    18    6   19 1   
    19    7   20 1   
    20    7   21 1   
    21    7   22 1   
    22    8   12 1   
    23    9   10 1   
    24    9   11 1   
    25    9   23 1   
    26   10   11 1   
    27   10   24 1   
    28   10   25 1   
    29   11   26 1   
    30   11   27 1   
@<TRIPOS>SUBSTRUCTURE
     1 03A         1 TEMP              0 ****  ****    0 ROOT
