@<TRIPOS>MOLECULE
03A
   31    30     1     0     0
SMALL
bcc


@<TRIPOS>ATOM
      1 NAA      -351.1320  -45.5320   68.1000 n4        1 03A     -0.071000
      2 NAE       380.4680   49.3550  -75.6850 n4        1 03A     -0.116000
      3 CAH       379.5360   48.2720  -75.4480 c1        1 03A      0.132000
      4 CAI      -351.5100  -42.9670   68.0540 c2        1 03A      0.210000
      5 CAJ       378.4190   48.4110  -74.5500 c3        1 03A     -0.322000
      6 CAK       378.1820   49.7120  -73.8160 c3        1 03A     -0.182000
      7 CAL       376.9580   49.6170  -72.9380 c3        1 03A     -0.219000
      8 CAM      -350.9920  -44.2270   67.3520 c2        1 03A      0.164000
      9 CAN      -349.9200  -45.8290   68.8860 cx        1 03A     -0.212000
     10 CAO      -349.7760  -45.3450   70.3150 cx        1 03A     -0.174000
     11 CAP      -349.9820  -46.8020   70.0480 cx        1 03A     -0.174000
     12 OBS      -350.4830  -44.2690   66.2460 o         1 03A     -0.118000
     13 HNAA     -351.9460  -45.4690   68.7260 hn        1 03A      0.263500
     14 HAH      -351.2780  -42.0400   67.4870 h4        1 03A      0.212000
     15 OBR      -352.1070  -43.0580   69.1120 o         1 03A     -0.179000
     16 HAJ       377.4970   48.1210  -75.1590 hc        1 03A      0.219000
     17 HAJA      378.5100   47.5450  -73.8100 hc        1 03A      0.219000
     18 HAK       379.0710   49.9610  -73.1770 hc        1 03A      0.088000
     19 HAKA      378.0390   50.5480  -74.5510 hc        1 03A      0.088000
     20 HAL       376.7980   50.5850  -72.4030 hc        1 03A      0.100333
     21 HALA      376.0480   49.3970  -73.5470 hc        1 03A      0.100333
     22 HALB      377.0790   48.8100  -72.1750 hc        1 03A      0.100333
     23 HAN      -349.0280  -45.8380   68.2150 hx        1 03A      0.192000
     24 HAO      -350.5930  -44.7620   70.7850 hc        1 03A      0.156000
     25 HAOA     -348.7790  -44.9760   70.6300 hc        1 03A      0.156000
     26 HAP      -349.1360  -47.5110   70.1590 hc        1 03A      0.156000
     27 HAPA     -350.9440  -47.2710   70.3300 hc        1 03A      0.156000
     28 HNAE      380.3120   50.2430  -75.1890 hn        1 03A      0.263000
     29 HAA2     -351.2790  -46.3030   67.4330 hn        1 03A      0.263500
     30 HAE2      381.4060   48.9930  -75.4450 hn        1 03A      0.263000
     31 H2        380.4600   49.5310  -76.7040 hn        1 03A      0.263000
@<TRIPOS>BOND
     1    1    8 1   
     2    1    9 1   
     3    1   13 1   
     4    1   29 1   
     5    2    3 1   
     6    2   28 1   
     7    2   30 1   
     8    2   31 1   
     9    3    5 1   
    10    4    8 1   
    11    4   14 1   
    12    4   15 1   
    13    5    6 1   
    14    5   16 1   
    15    5   17 1   
    16    6    7 1   
    17    6   18 1   
    18    6   19 1   
    19    7   20 1   
    20    7   21 1   
    21    7   22 1   
    22    8   12 1   
    23    9   10 1   
    24    9   11 1   
    25    9   23 1   
    26   10   11 1   
    27   10   24 1   
    28   10   25 1   
    29   11   26 1   
    30   11   27 1   
@<TRIPOS>SUBSTRUCTURE
     1 03A         1 TEMP              0 ****  ****    0 ROOT
