@<TRIPOS>MOLECULE
03C
   58    61     1     0     0
SMALL
bcc


@<TRIPOS>ATOM
      1 N1         -0.1300   -0.0560    0.0750 na        1 03C      0.229300
      2 C2         -0.9070   -0.0530   -1.1310 ca        1 03C     -0.080200
      3 C3          1.2800    0.0090    0.0900 cc        1 03C     -0.091700
      4 N4         -0.6110   -0.0520    1.3170 nc        1 03C     -0.418800
      5 C5         -1.8060   -1.1030   -1.4140 ca        1 03C     -0.015300
      6 C6         -0.7680    1.0380   -2.0180 ca        1 03C     -0.150000
      7 C7          1.6850    0.0640    1.4560 cd        1 03C     -0.250900
      8 N8          2.1370   -0.0220   -1.0700 n4        1 03C     -0.683000
      9 C9          0.4440    0.0110    2.1800 cd        1 03C      0.354200
     10 C10        -2.5280   -1.0460   -2.6170 ca        1 03C     -0.117000
     11 C11        -2.0230   -2.2360   -0.4860 c3        1 03C     -0.074800
     12 C12        -1.4980    1.0610   -3.1980 ca        1 03C     -0.115000
     13 C13         3.0750    0.1180    1.9110 c         1 03C      0.642300
     14 C14        -2.3780    0.0170   -3.5000 ca        1 03C     -0.083000
     15 C15         3.3560    0.3170    3.3360 ca        1 03C     -0.182600
     16 O16         3.9780   -0.0240    1.0610 o         1 03C     -0.590100
     17 C17         4.4670   -0.3300    3.8960 ca        1 03C     -0.062000
     18 C18         2.5680    1.1640    4.1280 ca        1 03C     -0.095000
     19 C19         4.7780   -0.1610    5.2500 ca        1 03C     -0.073300
     20 C20         2.8850    1.3430    5.4720 ca        1 03C     -0.130000
     21 C21         5.9590   -0.8680    5.8340 c3        1 03C     -0.024400
     22 C22         3.9770    0.6800    6.0330 ca        1 03C     -0.076000
     23 C23         6.9970    0.1230    6.3500 c3        1 03C     -0.089400
     24 C24         5.5400   -1.8160    6.9520 c3        1 03C     -0.089400
     25 C25         8.1810   -0.6210    6.9730 c3        1 03C      0.223800
     26 C26         6.7660   -2.5030    7.5580 c3        1 03C      0.223800
     27 N27         7.8000   -1.5890    7.9680 n3        1 03C     -0.820500
     28 S28         8.5040   -1.6610    9.4370 s6        1 03C      1.462900
     29 O29         8.3620   -2.9570    9.9690 o         1 03C     -0.644300
     30 O30         9.8020   -1.1180    9.3700 o         1 03C     -0.644300
     31 C31         7.5510   -0.6080   10.3780 c3        1 03C     -0.365300
     32 H6         -0.1250    1.8960   -1.7620 ha        1 03C      0.139000
     33 HN8         2.0690   -0.9380   -1.5320 hn        1 03C      0.481800
     34 HN8A        1.8690    0.7140   -1.7350 hn        1 03C      0.481800
     35 H9          0.2980    0.0060    3.2670 h4        1 03C      0.089100
     36 H10        -3.2360   -1.8590   -2.8520 ha        1 03C      0.166000
     37 H11        -2.6280   -3.0410   -0.9720 hc        1 03C      0.067700
     38 H11A       -1.0530   -2.6840   -0.1550 hc        1 03C      0.067700
     39 H11B       -2.5780   -1.8860    0.4230 hc        1 03C      0.067700
     40 H12        -1.3980    1.9150   -3.8880 ha        1 03C      0.162000
     41 H14        -2.9610    0.0440   -4.4360 ha        1 03C      0.165000
     42 H17         5.0960   -0.9710    3.2570 ha        1 03C      0.154000
     43 H18         1.7200    1.7100    3.6880 ha        1 03C      0.137000
     44 H20         2.2730    2.0140    6.0950 ha        1 03C      0.153000
     45 H21         6.4490   -1.4870    5.0260 hc        1 03C      0.062700
     46 H22         4.2150    0.8250    7.0990 ha        1 03C      0.153000
     47 H23         7.3790    0.7530    5.5070 hc        1 03C      0.052700
     48 H23A        6.5280    0.8060    7.1050 hc        1 03C      0.052700
     49 H24         4.9840   -1.2490    7.7430 hc        1 03C      0.052700
     50 H24A        4.8550   -2.6050    6.5500 hc        1 03C      0.052700
     51 H25         8.8830    0.1280    7.4430 h1        1 03C      0.061700
     52 H25A        8.7440   -1.1460    6.1460 h1        1 03C      0.061700
     53 H26         6.4440   -3.1160    8.4500 h1        1 03C      0.061700
     54 H26A        7.1890   -3.2140    6.7880 h1        1 03C      0.061700
     55 H31         6.4870   -0.9330   10.4720 h1        1 03C      0.113700
     56 H31A        7.5420    0.4430   10.0020 h1        1 03C      0.113700
     57 H31B        7.9530   -0.5580   11.4240 h1        1 03C      0.113700
     58 H83         3.1180    0.1240   -0.7390 hn        1 03C      0.481800
@<TRIPOS>BOND
     1    1    2 1   
     2    1    3 1   
     3    1    4 1   
     4    2    5 ar  
     5    2    6 ar  
     6    3    7 2   
     7    3    8 1   
     8    4    9 2   
     9    5   10 ar  
    10    5   11 1   
    11    6   12 ar  
    12    6   32 1   
    13    7    9 1   
    14    7   13 1   
    15    8   33 1   
    16    8   34 1   
    17    8   58 1   
    18    9   35 1   
    19   10   14 ar  
    20   10   36 1   
    21   11   37 1   
    22   11   38 1   
    23   11   39 1   
    24   12   14 ar  
    25   12   40 1   
    26   13   15 1   
    27   13   16 2   
    28   14   41 1   
    29   15   17 ar  
    30   15   18 ar  
    31   17   19 ar  
    32   17   42 1   
    33   18   20 ar  
    34   18   43 1   
    35   19   21 1   
    36   19   22 ar  
    37   20   22 ar  
    38   20   44 1   
    39   21   23 1   
    40   21   24 1   
    41   21   45 1   
    42   22   46 1   
    43   23   25 1   
    44   23   47 1   
    45   23   48 1   
    46   24   26 1   
    47   24   49 1   
    48   24   50 1   
    49   25   27 1   
    50   25   51 1   
    51   25   52 1   
    52   26   27 1   
    53   26   53 1   
    54   26   54 1   
    55   27   28 1   
    56   28   29 2   
    57   28   30 2   
    58   28   31 1   
    59   31   55 1   
    60   31   56 1   
    61   31   57 1   
@<TRIPOS>SUBSTRUCTURE
     1 03C         1 TEMP              0 ****  ****    0 ROOT
