@<TRIPOS>MOLECULE
03C
   57    60     1     0     0
SMALL
bcc


@<TRIPOS>ATOM
      1 N1         -0.0070   -0.1260    0.0810 na        1 03C      0.107300
      2 C2         -0.8750   -0.1240   -1.0490 ca        1 03C      0.002800
      3 C3          1.3880    0.1270    0.0180 cc        1 03C      0.232300
      4 N4         -0.4320   -0.2220    1.3690 nc        1 03C     -0.506800
      5 C5         -1.7800   -1.1880   -1.2720 ca        1 03C     -0.046300
      6 C6         -0.8230    0.9560   -1.9550 ca        1 03C     -0.138000
      7 C7          1.8440    0.1530    1.3780 cd        1 03C     -0.433900
      8 N8          2.1220    0.3540   -1.1150 nv        1 03C     -0.824200
      9 C9          0.6450   -0.0690    2.1600 cd        1 03C      0.370200
     10 C10        -2.5970   -1.1450   -2.4090 ca        1 03C     -0.129000
     11 C11        -1.8950   -2.3350   -0.3410 c3        1 03C     -0.057800
     12 C12        -1.6430    0.9650   -3.0790 ca        1 03C     -0.129000
     13 C13         3.2110    0.3090    1.7970 c         1 03C      0.638300
     14 C14        -2.5310   -0.0860   -3.3080 ca        1 03C     -0.120000
     15 C15         3.4740    0.4560    3.2500 ca        1 03C     -0.144600
     16 O16         4.1540    0.3040    0.9810 o         1 03C     -0.594100
     17 C17         4.5520   -0.2330    3.8170 ca        1 03C     -0.081000
     18 C18         2.6860    1.2930    4.0460 ca        1 03C     -0.100000
     19 C19         4.8340   -0.1080    5.1820 ca        1 03C     -0.089300
     20 C20         2.9720    1.4270    5.4040 ca        1 03C     -0.139000
     21 C21         5.9850   -0.8590    5.7720 c3        1 03C     -0.016400
     22 C22         4.0350    0.7280    5.9710 ca        1 03C     -0.110000
     23 C23         7.0320    0.0940    6.3380 c3        1 03C     -0.091400
     24 C24         5.5160   -1.8280    6.8510 c3        1 03C     -0.091400
     25 C25         8.1780   -0.6860    6.9850 c3        1 03C      0.220800
     26 C26         6.7080   -2.5500    7.4840 c3        1 03C      0.220800
     27 N27         7.7400   -1.6600    7.9540 n3        1 03C     -0.818500
     28 S28         8.2930   -1.6880    9.4790 s6        1 03C      1.459900
     29 O29         8.1140   -2.9690   10.0420 o         1 03C     -0.651300
     30 O30         9.5920   -1.1390    9.5400 o         1 03C     -0.651300
     31 C31         7.2480   -0.6180   10.3000 c3        1 03C     -0.362300
     32 H6         -0.1450    1.8060   -1.7740 ha        1 03C      0.151000
     33 HN8         1.7490    0.0600   -1.9880 hn        1 03C      0.442800
     34 HN8A        3.1120    0.2940   -0.9900 hn        1 03C      0.442800
     35 H9          0.5780   -0.1260    3.2490 h4        1 03C      0.050100
     36 H10        -3.3050   -1.9700   -2.5890 ha        1 03C      0.140000
     37 H11        -0.8880   -2.7500   -0.0870 hc        1 03C      0.055033
     38 H11A       -2.5080   -3.1550   -0.7910 hc        1 03C      0.055033
     39 H11B       -2.3890   -2.0100    0.6100 hc        1 03C      0.055033
     40 H12        -1.5930    1.8100   -3.7820 ha        1 03C      0.140000
     41 H14        -3.1820   -0.0740   -4.1950 ha        1 03C      0.138000
     42 H17         5.1800   -0.8680    3.1720 ha        1 03C      0.148000
     43 H18         1.8500    1.8520    3.5970 ha        1 03C      0.144000
     44 H20         2.3560    2.0900    6.0300 ha        1 03C      0.136000
     45 H21         6.4790   -1.4660    4.9580 hc        1 03C      0.059700
     46 H22         4.2500    0.8370    7.0450 ha        1 03C      0.131000
     47 H23         6.5570    0.7780    7.0870 hc        1 03C      0.052950
     48 H23A        7.4540    0.7270    5.5150 hc        1 03C      0.052950
     49 H24         4.9390   -1.2740    7.6350 hc        1 03C      0.052950
     50 H24A        4.8350   -2.5960    6.4040 hc        1 03C      0.052950
     51 H25         8.7520   -1.2180    6.1720 h1        1 03C      0.059200
     52 H25A        8.8840    0.0360    7.4880 h1        1 03C      0.059200
     53 H26         7.1540   -3.2450    6.7130 h1        1 03C      0.059200
     54 H26A        6.3480   -3.1800    8.3480 h1        1 03C      0.059200
     55 H31         7.5440   -0.5410   11.3770 h1        1 03C      0.110700
     56 H31A        6.1820   -0.9480   10.2920 h1        1 03C      0.110700
     57 H31B        7.2700    0.4220    9.8950 h1        1 03C      0.110700
@<TRIPOS>BOND
     1    1    2 1   
     2    1    3 1   
     3    1    4 1   
     4    2    5 ar  
     5    2    6 ar  
     6    3    7 2   
     7    3    8 1   
     8    4    9 2   
     9    5   10 ar  
    10    5   11 1   
    11    6   12 ar  
    12    6   32 1   
    13    7    9 1   
    14    7   13 1   
    15    8   33 1   
    16    8   34 1   
    17    9   35 1   
    18   10   14 ar  
    19   10   36 1   
    20   11   37 1   
    21   11   38 1   
    22   11   39 1   
    23   12   14 ar  
    24   12   40 1   
    25   13   15 1   
    26   13   16 2   
    27   14   41 1   
    28   15   17 ar  
    29   15   18 ar  
    30   17   19 ar  
    31   17   42 1   
    32   18   20 ar  
    33   18   43 1   
    34   19   21 1   
    35   19   22 ar  
    36   20   22 ar  
    37   20   44 1   
    38   21   23 1   
    39   21   24 1   
    40   21   45 1   
    41   22   46 1   
    42   23   25 1   
    43   23   47 1   
    44   23   48 1   
    45   24   26 1   
    46   24   49 1   
    47   24   50 1   
    48   25   27 1   
    49   25   51 1   
    50   25   52 1   
    51   26   27 1   
    52   26   53 1   
    53   26   54 1   
    54   27   28 1   
    55   28   29 2   
    56   28   30 2   
    57   28   31 1   
    58   31   55 1   
    59   31   56 1   
    60   31   57 1   
@<TRIPOS>SUBSTRUCTURE
     1 03C         1 TEMP              0 ****  ****    0 ROOT
