@<TRIPOS>MOLECULE
03C
   57    60     1     0     0
SMALL
bcc


@<TRIPOS>ATOM
      1 N1         -5.0180    0.2980   -0.0390 na        1 03C      0.107300
      2 C2         -6.4350    0.2480    0.1020 ca        1 03C      0.002800
      3 C3         -4.1700   -0.8410   -0.0160 cc        1 03C      0.232300
      4 N4         -4.3230    1.4210   -0.3600 nc        1 03C     -0.506800
      5 C5         -7.1050    1.1000    1.0110 ca        1 03C     -0.046300
      6 C6         -7.1720   -0.6700   -0.6760 ca        1 03C     -0.138000
      7 C7         -2.8540   -0.3560   -0.3180 cd        1 03C     -0.433900
      8 N8         -4.5570   -2.1370    0.1950 nh        1 03C     -0.824200
      9 C9         -3.0360    1.0660   -0.5220 cd        1 03C      0.370200
     10 C10        -8.4970    0.9950    1.1240 ca        1 03C     -0.129000
     11 C11        -6.3850    2.0990    1.8340 c3        1 03C     -0.057800
     12 C12        -8.5530   -0.7540   -0.5340 ca        1 03C     -0.129000
     13 C13        -1.6560   -1.1510   -0.3340 c         1 03C      0.638300
     14 C14        -9.2180    0.0780    0.3650 ca        1 03C     -0.120000
     15 C15        -0.4070   -0.5060   -0.8070 ca        1 03C     -0.144600
     16 O16        -1.6480   -2.3370    0.0510 o         1 03C     -0.594100
     17 C17         0.7840   -0.7420   -0.1110 ca        1 03C     -0.081000
     18 C18        -0.3980    0.3010   -1.9490 ca        1 03C     -0.100000
     19 C19         1.9820   -0.1570   -0.5370 ca        1 03C     -0.089300
     20 C20         0.7960    0.8760   -2.3820 ca        1 03C     -0.139000
     21 C21         3.2430   -0.4130    0.2240 c3        1 03C     -0.016400
     22 C22         1.9780    0.6540   -1.6780 ca        1 03C     -0.110000
     23 C23         4.2740   -1.1270   -0.6430 c3        1 03C     -0.091400
     24 C24         3.8260    0.8810    0.7790 c3        1 03C     -0.091400
     25 C25         5.5780   -1.3360    0.1300 c3        1 03C      0.220800
     26 C26         5.1440    0.6120    1.5080 c3        1 03C      0.220800
     27 N27         6.0990   -0.1300    0.7240 n3        1 03C     -0.818500
     28 S28         7.6080    0.4000    0.4490 s6        1 03C      1.459900
     29 O29         8.0200    1.2640    1.4860 o         1 03C     -0.651300
     30 O30         8.4600   -0.6810    0.1410 o         1 03C     -0.651300
     31 C31         7.4470    1.3410   -0.9660 c3        1 03C     -0.362300
     32 H6         -6.6630   -1.3160   -1.4090 ha        1 03C      0.151000
     33 HN8        -5.4310   -2.3040    0.6360 hn        1 03C      0.442800
     34 HN8A       -3.8080   -2.7690    0.3930 hn        1 03C      0.442800
     35 H9         -2.2580    1.7940   -0.7660 h4        1 03C      0.050100
     36 H10        -9.0270    1.6550    1.8280 ha        1 03C      0.140000
     37 H11        -6.0240    2.9400    1.1890 hc        1 03C      0.055033
     38 H11A       -7.0550    2.5250    2.6220 hc        1 03C      0.055033
     39 H11B       -5.4990    1.6410    2.3390 hc        1 03C      0.055033
     40 H12        -9.1190   -1.4750   -1.1430 ha        1 03C      0.140000
     41 H14       -10.3110    0.0130    0.4720 ha        1 03C      0.138000
     42 H17         0.7670   -1.4010    0.7710 ha        1 03C      0.148000
     43 H18        -1.3310    0.4710   -2.5100 ha        1 03C      0.144000
     44 H20         0.8050    1.5070   -3.2830 ha        1 03C      0.136000
     45 H21         3.0090   -1.0860    1.1010 hc        1 03C      0.059700
     46 H22         2.9150    1.1160   -2.0250 ha        1 03C      0.131000
     47 H23         3.8820   -2.1290   -0.9540 hc        1 03C      0.052950
     48 H23A        4.4660   -0.5310   -1.5720 hc        1 03C      0.052950
     49 H24         3.9880    1.6130   -0.0550 hc        1 03C      0.052950
     50 H24A        3.1080    1.3430    1.5040 hc        1 03C      0.052950
     51 H25         5.3910   -2.0900    0.9500 h1        1 03C      0.059200
     52 H25A        6.3580   -1.7680   -0.5620 h1        1 03C      0.059200
     53 H26         5.6080    1.5930    1.8160 h1        1 03C      0.059200
     54 H26A        4.9180    0.0280    2.4490 h1        1 03C      0.059200
     55 H31         6.7670    2.2180   -0.8390 h1        1 03C      0.110700
     56 H31A        8.4410    1.7570   -1.2670 h1        1 03C      0.110700
     57 H31B        7.0710    0.7620   -1.8430 h1        1 03C      0.110700
@<TRIPOS>BOND
     1    1    2 1   
     2    1    3 1   
     3    1    4 1   
     4    2    5 ar  
     5    2    6 ar  
     6    3    7 2   
     7    3    8 1   
     8    4    9 2   
     9    5   10 ar  
    10    5   11 1   
    11    6   12 ar  
    12    6   32 1   
    13    7    9 1   
    14    7   13 1   
    15    8   33 1   
    16    8   34 1   
    17    9   35 1   
    18   10   14 ar  
    19   10   36 1   
    20   11   37 1   
    21   11   38 1   
    22   11   39 1   
    23   12   14 ar  
    24   12   40 1   
    25   13   15 1   
    26   13   16 2   
    27   14   41 1   
    28   15   17 ar  
    29   15   18 ar  
    30   17   19 ar  
    31   17   42 1   
    32   18   20 ar  
    33   18   43 1   
    34   19   21 1   
    35   19   22 ar  
    36   20   22 ar  
    37   20   44 1   
    38   21   23 1   
    39   21   24 1   
    40   21   45 1   
    41   22   46 1   
    42   23   25 1   
    43   23   47 1   
    44   23   48 1   
    45   24   26 1   
    46   24   49 1   
    47   24   50 1   
    48   25   27 1   
    49   25   51 1   
    50   25   52 1   
    51   26   27 1   
    52   26   53 1   
    53   26   54 1   
    54   27   28 1   
    55   28   29 2   
    56   28   30 2   
    57   28   31 1   
    58   31   55 1   
    59   31   56 1   
    60   31   57 1   
@<TRIPOS>SUBSTRUCTURE
     1 03C         1 TEMP              0 ****  ****    0 ROOT
