@<TRIPOS>MOLECULE
03C
   57    60     1     0     0
SMALL
bcc


@<TRIPOS>ATOM
      1 N1         -0.0060   -0.1240    0.0800 na        1 03C      0.107300
      2 C2         -0.8740   -0.1230   -1.0500 ca        1 03C      0.002800
      3 C3          1.3900    0.1270    0.0170 cc        1 03C      0.232300
      4 N4         -0.4310   -0.2180    1.3680 nc        1 03C     -0.506800
      5 C5         -1.7800   -1.1880   -1.2710 ca        1 03C     -0.046300
      6 C6         -0.8210    0.9550   -1.9580 ca        1 03C     -0.138000
      7 C7          1.8450    0.1550    1.3770 cd        1 03C     -0.433900
      8 N8          2.1240    0.3520   -1.1160 nh        1 03C     -0.824200
      9 C9          0.6460   -0.0660    2.1590 cd        1 03C      0.370200
     10 C10        -2.5960   -1.1460   -2.4090 ca        1 03C     -0.129000
     11 C11        -1.8960   -2.3320   -0.3380 c3        1 03C     -0.057800
     12 C12        -1.6410    0.9620   -3.0820 ca        1 03C     -0.129000
     13 C13         3.2120    0.3090    1.7970 c         1 03C      0.638300
     14 C14        -2.5290   -0.0880   -3.3090 ca        1 03C     -0.120000
     15 C15         3.4740    0.4570    3.2490 ca        1 03C     -0.144600
     16 O16         4.1550    0.3030    0.9810 o         1 03C     -0.594100
     17 C17         4.5510   -0.2340    3.8170 ca        1 03C     -0.081000
     18 C18         2.6880    1.2960    4.0450 ca        1 03C     -0.100000
     19 C19         4.8330   -0.1080    5.1820 ca        1 03C     -0.089300
     20 C20         2.9740    1.4310    5.4020 ca        1 03C     -0.139000
     21 C21         5.9830   -0.8610    5.7730 c3        1 03C     -0.016400
     22 C22         4.0360    0.7300    5.9700 ca        1 03C     -0.110000
     23 C23         7.0320    0.0910    6.3370 c3        1 03C     -0.091400
     24 C24         5.5130   -1.8270    6.8540 c3        1 03C     -0.091400
     25 C25         8.1770   -0.6900    6.9850 c3        1 03C      0.220800
     26 C26         6.7030   -2.5500    7.4870 c3        1 03C      0.220800
     27 N27         7.7380   -1.6620    7.9550 n3        1 03C     -0.818500
     28 S28         8.2920   -1.6890    9.4800 s6        1 03C      1.459900
     29 O29         8.1080   -2.9680   10.0460 o         1 03C     -0.651300
     30 O30         9.5930   -1.1450    9.5390 o         1 03C     -0.651300
     31 C31         7.2520   -0.6130   10.3000 c3        1 03C     -0.362300
     32 H6         -0.1420    1.8040   -1.7780 ha        1 03C      0.151000
     33 HN8         1.7510    0.0570   -1.9880 hn        1 03C      0.442800
     34 HN8A        3.1140    0.2910   -0.9900 hn        1 03C      0.442800
     35 H9          0.5790   -0.1210    3.2490 h4        1 03C      0.050100
     36 H10        -3.3050   -1.9700   -2.5880 ha        1 03C      0.140000
     37 H11        -2.5090   -3.1530   -0.7870 hc        1 03C      0.055033
     38 H11A       -2.3900   -2.0060    0.6120 hc        1 03C      0.055033
     39 H11B       -0.8890   -2.7480   -0.0840 hc        1 03C      0.055033
     40 H12        -1.5900    1.8060   -3.7860 ha        1 03C      0.140000
     41 H14        -3.1800   -0.0770   -4.1960 ha        1 03C      0.138000
     42 H17         5.1780   -0.8700    3.1720 ha        1 03C      0.148000
     43 H18         1.8530    1.8560    3.5950 ha        1 03C      0.144000
     44 H20         2.3590    2.0950    6.0280 ha        1 03C      0.136000
     45 H21         6.4750   -1.4700    4.9590 hc        1 03C      0.059700
     46 H22         4.2510    0.8400    7.0440 ha        1 03C      0.131000
     47 H23         7.4550    0.7220    5.5130 hc        1 03C      0.052950
     48 H23A        6.5590    0.7770    7.0850 hc        1 03C      0.052950
     49 H24         4.9370   -1.2700    7.6370 hc        1 03C      0.052950
     50 H24A        4.8290   -2.5940    6.4080 hc        1 03C      0.052950
     51 H25         8.8850    0.0310    7.4860 h1        1 03C      0.059200
     52 H25A        8.7500   -1.2250    6.1710 h1        1 03C      0.059200
     53 H26         6.3420   -3.1780    8.3520 h1        1 03C      0.059200
     54 H26A        7.1470   -3.2480    6.7180 h1        1 03C      0.059200
     55 H31         7.5510   -0.5330   11.3760 h1        1 03C      0.110700
     56 H31A        7.2760    0.4260    9.8910 h1        1 03C      0.110700
     57 H31B        6.1850   -0.9400   10.2950 h1        1 03C      0.110700
@<TRIPOS>BOND
     1    1    2 1   
     2    1    3 1   
     3    1    4 1   
     4    2    5 ar  
     5    2    6 ar  
     6    3    7 2   
     7    3    8 1   
     8    4    9 2   
     9    5   10 ar  
    10    5   11 1   
    11    6   12 ar  
    12    6   32 1   
    13    7    9 1   
    14    7   13 1   
    15    8   33 1   
    16    8   34 1   
    17    9   35 1   
    18   10   14 ar  
    19   10   36 1   
    20   11   37 1   
    21   11   38 1   
    22   11   39 1   
    23   12   14 ar  
    24   12   40 1   
    25   13   15 1   
    26   13   16 2   
    27   14   41 1   
    28   15   17 ar  
    29   15   18 ar  
    30   17   19 ar  
    31   17   42 1   
    32   18   20 ar  
    33   18   43 1   
    34   19   21 1   
    35   19   22 ar  
    36   20   22 ar  
    37   20   44 1   
    38   21   23 1   
    39   21   24 1   
    40   21   45 1   
    41   22   46 1   
    42   23   25 1   
    43   23   47 1   
    44   23   48 1   
    45   24   26 1   
    46   24   49 1   
    47   24   50 1   
    48   25   27 1   
    49   25   51 1   
    50   25   52 1   
    51   26   27 1   
    52   26   53 1   
    53   26   54 1   
    54   27   28 1   
    55   28   29 2   
    56   28   30 2   
    57   28   31 1   
    58   31   55 1   
    59   31   56 1   
    60   31   57 1   
@<TRIPOS>SUBSTRUCTURE
     1 03C         1 TEMP              0 ****  ****    0 ROOT
