@<TRIPOS>MOLECULE
03C
   57    51     1     0     0
SMALL
bcc


@<TRIPOS>ATOM
      1 N1         -2.4290    3.8400   -1.5140 n3        1 03C     -0.134000
      2 C2         -2.3880    5.1590   -1.1400 c1        1 03C      0.037000
      3 C3         -1.3870    3.1200   -2.0050 c1        1 03C      0.177000
      4 N4         -3.4710    2.9810   -1.2960 n2        1 03C     -0.072000
      5 C5         -3.4490    6.0260   -1.3690 c1        1 03C     -0.043000
      6 C6         -2.0130    4.8380    0.1690 c1        1 03C     -0.108000
      7 C7         -1.7810    1.8140   -2.0910 c1        1 03C     -0.351000
      8 N8         -0.0700    3.6150   -2.2600 n2        1 03C     -0.336000
      9 C9         -3.0700    1.7340   -1.6520 c1        1 03C     -0.097000
     10 C10        -4.1440    6.5790   -0.2870 c1        1 03C     -0.134000
     11 C11        -3.7800    6.4690   -2.8090 c3        1 03C     -0.189000
     12 C12        -2.6980    5.3840    1.2430 c1        1 03C     -0.124250
     13 C13        -0.9310    0.6740   -2.5240 c1        1 03C      0.357000
     14 C14        -3.7670    6.2570    1.0220 c1        1 03C     -0.124250
     15 C15        -0.7050   -0.5370   -1.5650 c2        1 03C     -0.124000
     16 O16        -0.4670    0.6460   -3.6920 o         1 03C     -0.357000
     17 C17         0.5310   -0.8890   -1.0400 c2        1 03C     -0.081000
     18 C18        -1.8000   -1.3800   -1.3860 c1        1 03C     -0.100000
     19 C19         0.6740   -2.0870   -0.3320 c1        1 03C     -0.082000
     20 C20        -1.6530   -2.5760   -0.6780 c1        1 03C     -0.124250
     21 C21         2.0690   -2.4800    0.2880 c3        1 03C     -0.063000
     22 C22        -0.4200   -2.9250   -0.1550 c1        1 03C     -0.124250
     23 C23         1.9810   -2.3710    1.7640 c3        1 03C     -0.170000
     24 C24         2.4120   -3.8390   -0.1510 c3        1 03C     -0.170000
     25 C25         3.1980   -2.9050    2.4500 c3        1 03C     -0.016000
     26 C26         3.6390   -4.3760    0.5490 c3        1 03C     -0.016000
     27 N27         3.5450   -4.2630    2.0070 n3        1 03C     -0.838000
     28 S28         4.4830   -5.2480    2.9880 s4        1 03C      2.031800
     29 O29         5.0900   -4.5020    4.0370 o         1 03C     -0.538900
     30 O30         5.6210   -5.7260    2.2990 o         1 03C     -0.538900
     31 C31         3.5020   -6.5940    3.6310 c2        1 03C     -0.941000
     32 H6         -1.2640    4.2270    0.3260 ha        1 03C      0.151000
     33 HN8         0.1260    4.4840   -2.1030 hn        1 03C      0.239500
     34 HN8A        0.5690    3.0560   -2.6370 hn        1 03C      0.239500
     35 H9         -3.6080    0.9260   -1.6030 DU        1 03C      0.187000
     36 H10        -4.9100    7.2060   -0.4500 ha        1 03C      0.140000
     37 H11        -3.5080    7.3770   -2.9310 hc        1 03C      0.095333
     38 H11A       -4.7340    6.3930   -2.9630 hc        1 03C      0.095333
     39 H11B       -3.2900    5.8850   -3.4570 hc        1 03C      0.095333
     40 H12        -2.4360    5.1590    2.1480 ha        1 03C      0.136250
     41 H14        -4.2580    6.6490    1.7940 ha        1 03C      0.136250
     42 H17         1.2930   -0.3470   -1.2150 ha        1 03C      0.148000
     43 H18        -2.6700   -1.1360   -1.7540 ha        1 03C      0.144000
     44 H20        -2.4510   -3.1910   -0.5480 ha        1 03C      0.136250
     45 H21         2.7500   -1.8620   -0.0360 hc        1 03C      0.099000
     46 H22        -0.3160   -3.7860    0.3510 ha        1 03C      0.136250
     47 H23         1.8660   -1.3790    2.0150 hc        1 03C      0.092500
     48 H23A        1.1930   -2.8710    2.0760 hc        1 03C      0.092500
     49 H24         1.6600   -4.4280    0.0320 hc        1 03C      0.092500
     50 H24A        2.5720   -3.8270   -1.0760 hc        1 03C      0.092500
     51 H25         3.9200   -2.3370    2.2710 h1        1 03C      0.098500
     52 H25A        3.0390   -2.9190    3.4110 h1        1 03C      0.098500
     53 H26         3.7550   -5.3060    0.3120 h1        1 03C      0.098500
     54 H26A        4.4050   -3.8820    0.2480 h1        1 03C      0.098500
     55 H31         3.4140   -7.2880    2.9490 ha        1 03C      0.150000
     56 H31A        3.9620   -6.9860    4.4580 ha        1 03C      0.150000
     57 H31B        2.5990   -6.2560    3.8810 ha        1 03C      0.150000
@<TRIPOS>BOND
     1    1    2 1   
     2    1    3 1   
     3    1    4 1   
     4    2    6 1   
     5    3    7 1   
     6    4    9 1   
     7    5   10 1   
     8    5   11 1   
     9    6   32 1   
    10    7    9 1   
    11    8   33 1   
    12    8   34 1   
    13   10   36 1   
    14   11   37 1   
    15   11   38 1   
    16   11   39 1   
    17   12   14 1   
    18   12   40 1   
    19   13   15 1   
    20   13   16 1   
    21   14   41 1   
    22   15   17 1   
    23   15   18 1   
    24   17   19 1   
    25   17   42 1   
    26   18   43 1   
    27   19   21 1   
    28   20   22 1   
    29   20   44 1   
    30   21   23 1   
    31   21   24 1   
    32   21   45 1   
    33   22   46 1   
    34   23   25 1   
    35   23   47 1   
    36   23   48 1   
    37   24   26 1   
    38   24   49 1   
    39   24   50 1   
    40   25   27 1   
    41   25   51 1   
    42   25   52 1   
    43   26   27 1   
    44   26   53 1   
    45   26   54 1   
    46   27   28 1   
    47   28   29 1   
    48   28   30 1   
    49   31   55 1   
    50   31   56 1   
    51   31   57 1   
@<TRIPOS>SUBSTRUCTURE
     1 03C         1 TEMP              0 ****  ****    0 ROOT
