@<TRIPOS>MOLECULE
03D
   86   122     1     0     0
SMALL
bcc


@<TRIPOS>ATOM
      1 C1          1.5300    0.0000    0.0000 DU        1 03D     -0.509000
      2 C2          2.0400    0.0000    1.4430 DU        1 03D     -0.196000
      3 C3          3.5650   -0.1250    1.4450 c3        1 03D     -0.493000
      4 C4          4.0760   -0.0030    2.8570 ca        1 03D     -0.142000
      5 C5          4.2140   -1.1320    3.6430 ca        1 03D      0.196500
      6 C6          4.6840   -1.0190    4.9380 ca        1 03D      0.112000
      7 C7          5.0170    0.2220    5.4480 ca        1 03D      0.397000
      8 C8          4.8790    1.3510    4.6620 ca        1 03D      0.112000
      9 C9          4.4140    1.2380    3.3650 ca        1 03D      0.196500
     10 O10         2.0080   -1.1650   -0.6740 oh        1 03D     -0.358000
     11 O11         1.4700   -1.1040    2.1490 oh        1 03D     -0.410000
     12 C12        -2.0060    0.3760   -1.4080 c2        1 03D      0.118000
     13 C13        -0.5100    0.2030   -1.4290 DU        1 03D     -0.082000
     14 C14         0.0000    0.0000    0.0000 DU        1 03D     -0.527000
     15 C15        -0.4800   -0.7340   -3.7440 DU        1 03D      0.080000
     16 C16        -1.5310   -1.6190   -4.4150 DU        1 03D      0.105000
     17 C17        -0.0530   -1.7780   -4.7780 cx        1 03D      0.107000
     18 C18        -0.1480   -1.0180   -2.2770 DU        1 03D     -0.447000
     19 C20        -4.8990   -0.3090   -2.7900 DU        1 03D     -0.070000
     20 C21        -4.1000    0.9650   -2.5060 DU        1 03D     -0.424000
     21 C22        -4.4290    2.0200   -3.5640 DU        1 03D     -0.271000
     22 C23        -3.7270    3.3320   -3.2100 DU        1 03D     -0.253000
     23 C24        -3.9530    4.3500   -4.3300 DU        1 03D     -0.086000
     24 C25        -3.2510    5.6630   -3.9760 DU        1 03D      0.142000
     25 C26        -3.8240    6.2100   -2.6670 DU        1 03D     -0.039000
     26 C27        -3.5980    5.1920   -1.5460 DU        1 03D     -0.121000
     27 C28        -4.2990    3.8800   -1.9010 c3        1 03D      0.049000
     28 N29        -2.6680    0.6610   -2.5470 ny        1 03D      0.753000
     29 C31        -4.5650   -1.3670   -1.7370 DU        1 03D     -0.011000
     30 C32        -5.3640   -2.6400   -2.0210 DU        1 03D     -0.196000
     31 C33        -4.9380   -3.7390   -1.0450 DU        1 03D      0.187000
     32 C34        -5.8230   -4.9710   -1.2470 c3        1 03D     -0.098000
     33 C35        -3.4780   -4.1120   -1.3020 c3        1 03D      0.129000
     34 O36        -4.9040   -0.8720   -0.4400 oh        1 03D     -0.302000
     35 H1          0.6630   -0.1330   -0.6350 DU        1 03D      0.199000
     36 H2          1.0300   -0.0220    1.0520 DU        1 03D      0.369000
     37 H3          2.9100    0.2730    0.6780 DU        1 03D      0.208000
     38 H3A         2.6520    0.4060    1.6890 DU        1 03D      0.208000
     39 H5          4.1430   -0.5490    2.7320 ha        1 03D      0.058000
     40 H6          4.4800   -1.0290    3.8740 ha        1 03D     -0.414000
     41 H7          4.6760   -0.5250    4.7410 ha        1 03D     -0.110000
     42 H8          4.8510    0.3070    4.9490 ha        1 03D     -0.414000
     43 H9          4.7250    0.9410    4.3590 ha        1 03D      0.058000
     44 HO10        2.4060   -0.7210    0.0560 DU        1 03D      0.315000
     45 HO11        2.0910   -0.4060    2.2760 ho        1 03D      0.295000
     46 H13         0.5080   -0.1540   -1.3310 ha        1 03D      0.358000
     47 H14         0.3440   -0.2680    0.9920 ha        1 03D      0.254000
     48 H14A       -0.0240    0.5490   -0.9330 DU        1 03D      0.183000
     49 H15        -0.4520   -0.3740   -2.7230 DU        1 03D      0.021000
     50 H16        -1.2770   -1.4740   -3.3720 DU        1 03D      0.105000
     51 H16A       -1.0060   -0.6840   -4.2610 DU        1 03D      0.105000
     52 H17        -1.0720   -1.4630   -4.9670 DU        1 03D     -0.048500
     53 H17A       -0.9750   -2.0840   -4.2990 DU        1 03D     -0.048500
     54 H18         0.0840   -1.6710   -3.1100 DU        1 03D      0.058500
     55 H18A       -0.0300   -1.1310   -3.3480 DU        1 03D      0.058500
     56 H20        -5.8950    0.0670   -2.9940 ha        1 03D      0.071000
     57 H21        -3.1090    0.5320   -2.4410 hx        1 03D     -0.454000
     58 H22        -5.0390    1.1850   -3.2410 DU        1 03D      0.222000
     59 H22A       -4.3950    1.6800   -2.5350 DU        1 03D      0.222000
     60 H23        -3.9080    2.4990   -3.8780 DU        1 03D      0.008000
     61 H24        -4.5610    3.5010   -4.0420 DU        1 03D      0.235500
     62 H24A       -3.3020    3.7500   -3.7070 DU        1 03D      0.235500
     63 H25        -3.3980    4.8060   -4.6230 DU        1 03D      0.053000
     64 H25A       -4.1420    5.0930   -4.2120 DU        1 03D      0.053000
     65 H26        -3.6180    6.2990   -3.7270 DU        1 03D      0.072500
     66 H26A       -2.9990    5.8440   -3.2650 DU        1 03D      0.072500
     67 H27        -3.4590    6.1740   -1.9830 DU        1 03D      0.078000
     68 H27A       -4.2490    5.7940   -2.1700 DU        1 03D      0.078000
     69 H28        -3.4090    4.4500   -1.6640 DU        1 03D      0.059000
     70 H28A       -4.1530    4.7360   -1.2540 DU        1 03D      0.059000
     71 HN29       -3.2860    1.4390   -2.4260 hn        1 03D      0.113000
     72 H31        -4.4630   -0.2980   -1.5880 DU        1 03D      0.501000
     73 H32        -4.6890   -1.8210   -2.2410 DU        1 03D     -0.151500
     74 H32A       -4.4270   -2.1110   -1.8960 DU        1 03D     -0.151500
     75 H33        -5.6870   -3.0840   -1.4730 DU        1 03D      0.115000
     76 H34        -5.5690   -4.1870   -1.9490 DU        1 03D      0.177000
     77 H34A       -5.4320   -4.1700   -0.6310 DU        1 03D      0.177000
     78 H34B       -5.5000   -5.7610   -0.5790 hc        1 03D      0.108000
     79 H35        -4.5410   -4.3010   -1.2170 DU        1 03D     -0.256500
     80 H35A       -4.3720   -4.5860   -1.6880 DU        1 03D     -0.256500
     81 H35B       -3.3320   -5.0750   -1.7770 hc        1 03D      0.066000
     82 HO36       -4.3560   -1.6390   -0.4580 ho        1 03D      0.302000
     83 O30        -4.5610   -0.8040   -4.0870 oh        1 03D     -0.459000
     84 HO30       -4.8640   -0.8360   -3.1950 DU        1 03D      0.329000
     85 H292       -3.0750    0.3660   -3.4120 hn        1 03D      0.113000
     86 O19        -2.6160    0.2580   -0.3650 o         1 03D     -0.255000
@<TRIPOS>BOND
     1    1    2 1   
     2    1   10 1   
     3    1   14 1   
     4    1   35 1   
     5    1   36 1   
     6    1   44 1   
     7    2    3 1   
     8    2   11 1   
     9    2   36 1   
    10    2   37 1   
    11    2   38 1   
    12    3    4 1   
    13    3   37 1   
    14    3   38 1   
    15    4    5 1   
    16    4    9 1   
    17    5    6 1   
    18    5   39 1   
    19    6    7 1   
    20    6   40 1   
    21    7    8 1   
    22    7   41 1   
    23    8    9 1   
    24    8   42 1   
    25    9   43 1   
    26   10   44 1   
    27   11   45 1   
    28   12   13 1   
    29   12   28 1   
    30   12   86 1   
    31   13   14 1   
    32   13   18 1   
    33   13   46 1   
    34   13   48 1   
    35   14   35 1   
    36   14   47 1   
    37   14   48 1   
    38   15   16 1   
    39   15   17 1   
    40   15   18 1   
    41   15   49 1   
    42   15   50 1   
    43   15   51 1   
    44   16   17 1   
    45   16   50 1   
    46   16   51 1   
    47   16   52 1   
    48   16   53 1   
    49   17   52 1   
    50   17   53 1   
    51   18   49 1   
    52   18   54 1   
    53   18   55 1   
    54   19   20 1   
    55   19   29 1   
    56   19   56 1   
    57   19   72 1   
    58   19   83 1   
    59   19   84 1   
    60   20   21 1   
    61   20   28 1   
    62   20   57 1   
    63   20   58 1   
    64   20   59 1   
    65   21   22 1   
    66   21   58 1   
    67   21   59 1   
    68   21   60 1   
    69   22   23 1   
    70   22   27 1   
    71   22   60 1   
    72   22   61 1   
    73   22   62 1   
    74   23   24 1   
    75   23   61 1   
    76   23   62 1   
    77   23   63 1   
    78   23   64 1   
    79   24   25 1   
    80   24   63 1   
    81   24   64 1   
    82   24   65 1   
    83   24   66 1   
    84   25   26 1   
    85   25   65 1   
    86   25   66 1   
    87   25   67 1   
    88   25   68 1   
    89   26   27 1   
    90   26   67 1   
    91   26   68 1   
    92   26   69 1   
    93   26   70 1   
    94   27   69 1   
    95   27   70 1   
    96   28   71 1   
    97   28   85 1   
    98   29   30 1   
    99   29   34 1   
   100   29   72 1   
   101   29   73 1   
   102   29   74 1   
   103   30   31 1   
   104   30   73 1   
   105   30   74 1   
   106   30   75 1   
   107   31   32 1   
   108   31   33 1   
   109   31   75 1   
   110   31   76 1   
   111   31   77 1   
   112   32   76 1   
   113   32   77 1   
   114   32   78 1   
   115   33   79 1   
   116   33   80 1   
   117   33   81 1   
   118   34   82 1   
   119   54   55 1   
   120   73   74 1   
   121   79   80 1   
   122   83   84 1   
@<TRIPOS>SUBSTRUCTURE
     1 03D         1 TEMP              0 ****  ****    0 ROOT
