@<TRIPOS>MOLECULE
03D
   85    87     1     0     0
SMALL
bcc


@<TRIPOS>ATOM
      1 C1          3.0720   -0.4700   -1.6360 c3        1 03D      0.104100
      2 C2          4.3650    0.0940   -1.0010 c3        1 03D      0.105100
      3 C3          4.4720    1.5970   -1.2440 c3        1 03D     -0.060100
      4 C4          5.3720    2.2870   -0.2800 ca        1 03D     -0.086300
      5 C5          6.6390    1.7690    0.0140 ca        1 03D     -0.124500
      6 C6          7.4840    2.4390    0.8960 ca        1 03D     -0.130500
      7 C7          7.0730    3.6320    1.4920 ca        1 03D     -0.129000
      8 C8          5.8120    4.1520    1.2030 ca        1 03D     -0.130500
      9 C9          4.9640    3.4840    0.3220 ca        1 03D     -0.124500
     10 O10         3.3760   -1.6770   -2.3180 oh        1 03D     -0.604800
     11 O11         5.4820   -0.6120   -1.5160 oh        1 03D     -0.600800
     12 C12        -0.4140   -0.4050   -0.0160 c         1 03D      0.657100
     13 C13         0.5830   -0.6550   -1.1520 c3        1 03D     -0.120700
     14 C14         1.9940   -0.6600   -0.5760 c3        1 03D     -0.103400
     15 C15        -0.7550   -1.8190   -2.9470 cx        1 03D     -0.129700
     16 C16        -2.1120   -2.4550   -2.7870 cx        1 03D     -0.136400
     17 C17        -1.1250   -3.0390   -3.7510 cx        1 03D     -0.136400
     18 C18         0.2820   -1.9590   -1.8790 c3        1 03D     -0.064400
     19 C20        -4.0040   -0.8980    0.5400 c3        1 03D      0.096100
     20 C21        -2.7750    0.0540    0.5810 c3        1 03D      0.070700
     21 C22        -3.3010    1.4840    0.3670 c3        1 03D     -0.093400
     22 C23        -2.2420    2.5690    0.4510 c3        1 03D     -0.058700
     23 C24        -2.8640    3.9070    0.0640 c3        1 03D     -0.079400
     24 C25        -1.8590    5.0350    0.1620 c3        1 03D     -0.073900
     25 C26        -1.2530    5.1110    1.5490 c3        1 03D     -0.078400
     26 C27        -0.6340    3.7870    1.9460 c3        1 03D     -0.073900
     27 C28        -1.6300    2.6500    1.8430 c3        1 03D     -0.079400
     28 N29        -1.7500   -0.3360   -0.3580 n         1 03D     -0.565900
     29 O30        -4.5550   -0.9920   -0.7600 oh        1 03D     -0.594800
     30 C31        -3.6620   -2.2860    1.1150 c3        1 03D      0.106100
     31 C32        -4.8750   -3.2090    1.0390 c3        1 03D     -0.111400
     32 C33        -4.5070   -4.6550    1.3370 c3        1 03D     -0.070700
     33 C34        -5.7280   -5.4240    1.7970 c3        1 03D     -0.089600
     34 C35        -3.8940   -5.3260    0.1250 c3        1 03D     -0.089600
     35 O36        -3.1840   -2.1630    2.4430 oh        1 03D     -0.578800
     36 H1          2.7080    0.2110   -2.4570 h1        1 03D      0.073700
     37 H2          4.3960   -0.1280    0.1040 h1        1 03D      0.092700
     38 H3          4.8540    1.7730   -2.2870 hc        1 03D      0.054700
     39 H3A         3.4420    2.0410   -1.1810 hc        1 03D      0.054700
     40 H5          6.9570    0.8230   -0.4520 ha        1 03D      0.140500
     41 H6          8.4770    2.0250    1.1230 ha        1 03D      0.131000
     42 H7          7.7410    4.1600    2.1880 ha        1 03D      0.130000
     43 H8          5.4830    5.0910    1.6730 ha        1 03D      0.131000
     44 H9          3.9690    3.8990    0.1010 ha        1 03D      0.140500
     45 HO10        3.8330   -2.2570   -1.6930 ho        1 03D      0.414000
     46 HO11        5.4480   -0.5500   -2.4790 ho        1 03D      0.410000
     47 H13         0.4950    0.2060   -1.8740 hc        1 03D      0.063700
     48 H14         2.1670   -1.6230   -0.0280 hc        1 03D      0.071700
     49 H14A        2.0770    0.1710    0.1760 hc        1 03D      0.071700
     50 H15        -0.7010   -0.8510   -3.4850 hc        1 03D      0.078700
     51 H16        -2.3380   -3.0070   -1.8540 hc        1 03D      0.072450
     52 H16A       -2.9990   -1.9280   -3.1840 hc        1 03D      0.072450
     53 H17        -1.3020   -2.9300   -4.8350 hc        1 03D      0.072450
     54 H17A       -0.6430   -4.0020   -3.5060 hc        1 03D      0.072450
     55 H18         1.2340   -2.3180   -2.3650 hc        1 03D      0.068700
     56 H18A       -0.0250   -2.7400   -1.1340 hc        1 03D      0.068700
     57 H20        -4.8270   -0.4320    1.1540 h1        1 03D      0.075700
     58 H21        -2.3350   -0.0280    1.6230 h1        1 03D      0.109700
     59 H22A       -4.0800    1.6780    1.1510 hc        1 03D      0.049200
     60 H23        -1.4170    2.3440   -0.2820 hc        1 03D      0.043700
     61 H24        -3.2590    3.8460   -0.9830 hc        1 03D      0.045200
     62 H24A       -3.7330    4.1200    0.7410 hc        1 03D      0.045200
     63 H25        -1.0440    4.8770   -0.5930 hc        1 03D      0.038200
     64 H25A       -2.3620    6.0060   -0.0840 hc        1 03D      0.038200
     65 H26        -0.4730    5.9150    1.5750 hc        1 03D      0.037700
     66 H26A       -2.0490    5.3890    2.2890 hc        1 03D      0.037700
     67 H27         0.2450    3.5730    1.2830 hc        1 03D      0.038200
     68 H27A       -0.2530    3.8510    2.9980 hc        1 03D      0.038200
     69 H28        -2.4450    2.7950    2.6000 hc        1 03D      0.045200
     70 H28A       -1.1090    1.6820    2.0760 hc        1 03D      0.045200
     71 HN29       -2.0000   -0.3450   -1.3200 hn        1 03D      0.310500
     72 HO30       -3.9890   -1.5800   -1.2780 ho        1 03D      0.401000
     73 H31        -2.7920   -2.7310    0.5530 h1        1 03D      0.083700
     74 H32        -5.6440   -2.8580    1.7770 hc        1 03D      0.052700
     75 H32A       -5.3320   -3.1320    0.0180 hc        1 03D      0.052700
     76 H33        -3.7470   -4.6550    2.1710 hc        1 03D      0.064700
     77 H34        -6.5270   -5.3950    1.0170 hc        1 03D      0.033700
     78 H34A       -5.4610   -6.4910    1.9900 hc        1 03D      0.033700
     79 H34B       -6.1360   -4.9850    2.7390 hc        1 03D      0.033700
     80 H35        -3.5670   -6.3610    0.3830 hc        1 03D      0.033700
     81 H35A       -4.6360   -5.3870   -0.7080 hc        1 03D      0.033700
     82 H35B       -3.0060   -4.7530   -0.2350 hc        1 03D      0.033700
     83 HO36       -3.9210   -1.8650    2.9900 ho        1 03D      0.396000
     84 O19        -0.0380   -0.2760    1.1660 o         1 03D     -0.605100
     85 H22        -3.8110    1.5360   -0.6320 hc        1 03D      0.049200
@<TRIPOS>BOND
     1    1    2 1   
     2    1   10 1   
     3    1   14 1   
     4    1   36 1   
     5    2    3 1   
     6    2   11 1   
     7    2   37 1   
     8    3    4 1   
     9    3   38 1   
    10    3   39 1   
    11    4    5 ar  
    12    4    9 ar  
    13    5    6 ar  
    14    5   40 1   
    15    6    7 ar  
    16    6   41 1   
    17    7    8 ar  
    18    7   42 1   
    19    8    9 ar  
    20    8   43 1   
    21    9   44 1   
    22   10   45 1   
    23   11   46 1   
    24   12   13 1   
    25   12   28 1   
    26   12   84 2   
    27   13   14 1   
    28   13   18 1   
    29   13   47 1   
    30   14   48 1   
    31   14   49 1   
    32   15   16 1   
    33   15   17 1   
    34   15   18 1   
    35   15   50 1   
    36   16   17 1   
    37   16   51 1   
    38   16   52 1   
    39   17   53 1   
    40   17   54 1   
    41   18   55 1   
    42   18   56 1   
    43   19   20 1   
    44   19   29 1   
    45   19   30 1   
    46   19   57 1   
    47   20   21 1   
    48   20   28 1   
    49   20   58 1   
    50   21   22 1   
    51   21   59 1   
    52   21   85 1   
    53   22   23 1   
    54   22   27 1   
    55   22   60 1   
    56   23   24 1   
    57   23   61 1   
    58   23   62 1   
    59   24   25 1   
    60   24   63 1   
    61   24   64 1   
    62   25   26 1   
    63   25   65 1   
    64   25   66 1   
    65   26   27 1   
    66   26   67 1   
    67   26   68 1   
    68   27   69 1   
    69   27   70 1   
    70   28   71 1   
    71   29   72 1   
    72   30   31 1   
    73   30   35 1   
    74   30   73 1   
    75   31   32 1   
    76   31   74 1   
    77   31   75 1   
    78   32   33 1   
    79   32   34 1   
    80   32   76 1   
    81   33   77 1   
    82   33   78 1   
    83   33   79 1   
    84   34   80 1   
    85   34   81 1   
    86   34   82 1   
    87   35   83 1   
@<TRIPOS>SUBSTRUCTURE
     1 03D         1 TEMP              0 ****  ****    0 ROOT
