@<TRIPOS>MOLECULE
03E
   25    25     1     0     0
SMALL
bcc


@<TRIPOS>ATOM
      1 O          -2.1810    0.2290    1.5460 o         1 03E     -0.840300
      2 CAO         2.5620    0.5490   -0.4460 c3        1 03E     -0.061900
      3 CAP         2.5280   -0.5280    0.6160 c3        1 03E     -0.061900
      4 CAQ         1.5350    1.6450   -0.2620 c3        1 03E     -0.059400
      5 CAR         1.5450   -1.6330    0.2870 c3        1 03E     -0.059400
      6 CAS         0.2190    1.2390    0.3630 c3        1 03E     -0.051900
      7 CAT         0.1060   -1.2760    0.5770 c3        1 03E     -0.051900
      8 N          -0.3320   -0.1790   -1.6130 n3        1 03E     -0.879800
      9 C          -1.9640    0.0560    0.3160 c         1 03E      0.889600
     10 CA         -0.4510   -0.0440   -0.1570 c3        1 03E      0.031200
     11 HAO         3.5830    1.0200   -0.4530 hc        1 03E      0.022700
     12 HAOA        2.4160    0.0750   -1.4540 hc        1 03E      0.022700
     13 HAP         3.5550   -0.9780    0.7050 hc        1 03E      0.022700
     14 HAQ         1.9810    2.4530    0.3810 hc        1 03E      0.016450
     15 HAQA        1.3360    2.1060   -1.2670 hc        1 03E      0.016450
     16 HAR         1.6550   -1.9210   -0.7910 hc        1 03E      0.016450
     17 HAS         0.3430    1.1200    1.4720 hc        1 03E      0.041950
     18 HASA       -0.5040    2.0870    0.2130 hc        1 03E      0.041950
     19 HAT        -0.5350   -2.1600    0.3140 hc        1 03E      0.041950
     20 HATA       -0.0270   -1.0870    1.6760 hc        1 03E      0.041950
     21 HN         -0.9440   -0.9300   -1.8870 hn        1 03E      0.330800
     22 OXT        -2.8640   -0.0440   -0.5660 o         1 03E     -0.840300
     23 H12         2.2770   -0.0790    1.6120 hc        1 03E      0.022700
     24 H13         1.8120   -2.5380    0.8990 hc        1 03E      0.016450
     25 H2         -0.7150    0.6570   -2.0190 hn        1 03E      0.330800
@<TRIPOS>BOND
     1    1    9 1   
     2    2    3 1   
     3    2    4 1   
     4    2   11 1   
     5    2   12 1   
     6    3    5 1   
     7    3   13 1   
     8    3   23 1   
     9    4    6 1   
    10    4   14 1   
    11    4   15 1   
    12    5    7 1   
    13    5   16 1   
    14    5   24 1   
    15    6   10 1   
    16    6   17 1   
    17    6   18 1   
    18    7   10 1   
    19    7   19 1   
    20    7   20 1   
    21    8   10 1   
    22    8   21 1   
    23    8   25 1   
    24    9   10 1   
    25    9   22 1   
@<TRIPOS>SUBSTRUCTURE
     1 03E         1 TEMP              0 ****  ****    0 ROOT
