@<TRIPOS>MOLECULE
03E
   25    24     1     0     0
SMALL
bcc


@<TRIPOS>ATOM
      1 O          -2.3970    0.2530   -2.2190 o         1 03E     -0.809000
      2 CAO         0.1280    0.2530    2.2140 c3        1 03E     -0.066400
      3 CAP         1.2390    1.0110    1.5210 c3        1 03E     -0.066400
      4 CAQ        -0.3510   -0.9020    1.3600 c3        1 03E     -0.075400
      5 CAR         0.8500    1.3570    0.0970 c3        1 03E     -0.075400
      6 CAS        -1.1760   -0.4030    0.1890 c3        1 03E     -0.125700
      7 CAT         0.9940    0.1500   -0.8100 c3        1 03E     -0.125700
      8 N          -0.2170   -1.7960   -1.6980 nh        1 03E     -0.472100
      9 C          -1.1350    0.2530   -2.2190 c1        1 03E      0.776000
     10 CA         -0.3720   -0.4710   -1.1130 c2        1 03E      0.129300
     11 HAO         0.4580   -0.0920    3.0650 hc        1 03E      0.016450
     12 HAOA       -0.6180    0.8590    2.3820 hc        1 03E      0.016450
     13 HAP         2.0450    0.4600    1.5090 hc        1 03E      0.016450
     14 HAQ        -0.8970   -1.5000    1.9050 hc        1 03E      0.039700
     15 HAQA        0.4220   -1.3940    1.0220 hc        1 03E      0.039700
     16 HAR         1.4270    2.0730   -0.2280 hc        1 03E      0.039700
     17 HAS        -1.4400    0.5220    0.3540 hc        1 03E      0.035700
     18 HASA       -1.9760   -0.9550    0.1010 hc        1 03E      0.035700
     19 HAT         1.5590   -0.5150   -0.3720 hc        1 03E      0.035700
     20 HATA        1.4140    0.4260   -1.6470 hc        1 03E      0.035700
     21 HN         -1.0400   -2.1540   -1.8630 hn        1 03E      0.175700
     22 OXT        -0.5050    0.8010   -3.1650 o         1 03E     -0.809000
     23 H12         1.4200    1.8350    2.0130 hc        1 03E      0.016450
     24 H13        -0.0780    1.6600    0.0820 hc        1 03E      0.039700
     25 H2          0.2480   -1.7310   -2.4800 hn        1 03E      0.175700
@<TRIPOS>BOND
     1    1    9 2   
     2    2    3 1   
     3    2    4 1   
     4    2   11 1   
     5    2   12 1   
     6    3    5 1   
     7    3   13 1   
     8    3   23 1   
     9    4    6 1   
    10    4   14 1   
    11    4   15 1   
    12    5    7 1   
    13    5   16 1   
    14    5   24 1   
    15    6   10 1   
    16    6   17 1   
    17    6   18 1   
    18    7   10 1   
    19    7   19 1   
    20    7   20 1   
    21    8   10 2   
    22    8   21 1   
    23    8   25 1   
    24    9   22 2   
@<TRIPOS>SUBSTRUCTURE
     1 03E         1 TEMP              0 ****  ****    0 ROOT
