@<TRIPOS>MOLECULE
03G
   48    49     1     0     0
SMALL
bcc


@<TRIPOS>ATOM
      1 C1          0.4380   -1.4850    0.9230 ca        1 03G      0.025400
      2 C2          1.7990   -1.2030    0.7830 ca        1 03G     -0.100000
      3 C3          2.4290   -0.3190    1.6550 ca        1 03G     -0.128500
      4 C4          1.6920    0.2960    2.6840 ca        1 03G      0.004600
      5 C5          0.3130    0.0070    2.8210 ca        1 03G     -0.128500
      6 C6         -0.3030   -0.8760    1.9440 ca        1 03G     -0.100000
      7 N1          2.2650    1.2080    3.6090 n         1 03G     -0.390100
      8 C7          3.5750    1.5580    3.6730 c         1 03G      0.613100
      9 CL1        -0.3200   -2.5610   -0.1400 cl        1 03G     -0.042400
     10 C8          3.9060    2.5830    4.7890 c         1 03G      0.442100
     11 N2          5.3640    2.8720    4.9550 n4        1 03G     -0.670800
     12 C9          5.9930    2.0090    6.0380 c3        1 03G      0.139500
     13 C10         5.6040    2.5020    7.4300 c3        1 03G     -0.102400
     14 C11         6.2420    1.6120    8.5230 c3        1 03G      0.210200
     15 N3          7.6790    1.4580    8.3040 n3        1 03G     -0.832200
     16 C12         8.1650    1.1100    6.9700 c3        1 03G      0.210200
     17 C13         7.5130    2.0000    5.8850 c3        1 03G     -0.102400
     18 C14         6.0230    2.3520    9.8630 c3        1 03G     -0.114600
     19 C15         5.4470    0.2990    8.6190 c3        1 03G     -0.114600
     20 C16         7.9900   -0.3650    6.5710 c3        1 03G     -0.114600
     21 C17         9.6830    1.3990    6.9070 c3        1 03G     -0.114600
     22 O1          3.1110    3.1670    5.5080 o         1 03G     -0.398100
     23 O2          4.5210    1.1720    2.9640 o         1 03G     -0.563100
     24 H1          2.3860   -1.6790   -0.0210 ha        1 03G      0.168500
     25 H2          3.5040   -0.1160    1.5170 ha        1 03G      0.159000
     26 H3         -0.2900    0.4750    3.6150 ha        1 03G      0.159000
     27 H4         -1.3780   -1.0940    2.0570 ha        1 03G      0.168500
     28 H5          1.6250    1.6320    4.2530 hn        1 03G      0.353500
     29 H6          5.8410    2.6690    4.0620 hn        1 03G      0.472800
     30 H7          5.5920    0.9640    5.8680 hx        1 03G      0.109700
     31 H8          4.4910    2.4820    7.5600 hc        1 03G      0.073200
     32 H9          5.9570    3.5580    7.5770 hc        1 03G      0.073200
     33 H10         8.0700    0.8390    8.9880 hn        1 03G      0.396800
     34 H11         7.8080    1.5960    4.8810 hc        1 03G      0.073200
     35 H12         7.9170    3.0430    5.9850 hc        1 03G      0.073200
     36 H13         6.5920    3.3110    9.8890 hc        1 03G      0.051783
     37 H14         6.3590    1.7120   10.7140 hc        1 03G      0.051783
     38 H15         4.9360    2.5710    9.9870 hc        1 03G      0.051783
     39 H16         5.9150   -0.3820    9.3710 hc        1 03G      0.051783
     40 H17         4.4030    0.5160    8.9510 hc        1 03G      0.051783
     41 H18         5.4010   -0.2340    7.6420 hc        1 03G      0.051783
     42 H19         6.9190   -0.6300    6.4140 hc        1 03G      0.051783
     43 H20         8.5430   -0.5660    5.6210 hc        1 03G      0.051783
     44 H21         8.4070   -1.0330    7.3630 hc        1 03G      0.051783
     45 H22        10.2340    0.7050    7.5870 hc        1 03G      0.051783
     46 H23         9.9050    2.4490    7.2120 hc        1 03G      0.051783
     47 H24        10.0440    1.2390    5.8640 hc        1 03G      0.051783
     48 H221        5.4990    3.8600    5.2000 hn        1 03G      0.472800
@<TRIPOS>BOND
     1    1    2 ar  
     2    1    6 ar  
     3    1    9 1   
     4    2    3 ar  
     5    2   24 1   
     6    3    4 ar  
     7    3   25 1   
     8    4    5 ar  
     9    4    7 1   
    10    5    6 ar  
    11    5   26 1   
    12    6   27 1   
    13    7    8 1   
    14    7   28 1   
    15    8   10 1   
    16    8   23 2   
    17   10   11 1   
    18   10   22 2   
    19   11   12 1   
    20   11   29 1   
    21   11   48 1   
    22   12   13 1   
    23   12   17 1   
    24   12   30 1   
    25   13   14 1   
    26   13   31 1   
    27   13   32 1   
    28   14   15 1   
    29   14   18 1   
    30   14   19 1   
    31   15   16 1   
    32   15   33 1   
    33   16   17 1   
    34   16   20 1   
    35   16   21 1   
    36   17   34 1   
    37   17   35 1   
    38   18   36 1   
    39   18   37 1   
    40   18   38 1   
    41   19   39 1   
    42   19   40 1   
    43   19   41 1   
    44   20   42 1   
    45   20   43 1   
    46   20   44 1   
    47   21   45 1   
    48   21   46 1   
    49   21   47 1   
@<TRIPOS>SUBSTRUCTURE
     1 03G         1 TEMP              0 ****  ****    0 ROOT
