@<TRIPOS>MOLECULE
03G
   48    49     1     0     0
SMALL
bcc


@<TRIPOS>ATOM
      1 C1          0.4440   -1.4840    0.8790 ca        1 03G      0.025400
      2 C2          1.8330   -1.3340    0.8710 ca        1 03G     -0.100500
      3 C3          2.4550   -0.4730    1.7710 ca        1 03G     -0.128500
      4 C4          1.6820    0.2540    2.6950 ca        1 03G      0.003600
      5 C5          0.2750    0.1000    2.6990 ca        1 03G     -0.128500
      6 C6         -0.3320   -0.7640    1.7970 ca        1 03G     -0.100500
      7 N1          2.2480    1.1390    3.6500 ns        1 03G     -0.390100
      8 C7          3.5460    1.5300    3.6960 c         1 03G      0.613100
      9 Cl1        -0.3030   -2.5320   -0.2170 cl        1 03G     -0.042400
     10 C8          3.8660    2.5460    4.8230 c         1 03G      0.442100
     11 N2          5.3180    2.8660    4.9800 ny        1 03G     -0.670800
     12 C9          5.9750    2.0110    6.0520 c3        1 03G      0.139500
     13 C10         5.5900    2.4880    7.4490 c3        1 03G     -0.102400
     14 C11         6.2560    1.6060    8.5310 c3        1 03G      0.210200
     15 N3          7.6940    1.4830    8.2980 n7        1 03G     -0.832200
     16 C12         8.1750    1.1530    6.9580 c3        1 03G      0.210200
     17 C13         7.4940    2.0350    5.8840 c3        1 03G     -0.102400
     18 C14         6.0340    2.3330    9.8770 c3        1 03G     -0.114600
     19 C15         5.4900    0.2760    8.6280 c3        1 03G     -0.114600
     20 C16         8.0270   -0.3230    6.5520 c3        1 03G     -0.114600
     21 C17         9.6860    1.4740    6.8830 c3        1 03G     -0.114600
     22 O1          3.0650    3.1050    5.5560 o         1 03G     -0.398100
     23 O2          4.4930    1.1780    2.9700 o         1 03G     -0.563100
     24 H1          2.4490   -1.8980    0.1500 ha        1 03G      0.168500
     25 H2          3.5530   -0.3750    1.7380 ha        1 03G      0.158500
     26 H3         -0.3560    0.6560    3.4100 ha        1 03G      0.158500
     27 H4         -1.4290   -0.8780    1.8060 ha        1 03G      0.168500
     28 H5          1.6020    1.5480    4.2970 hn        1 03G      0.353500
     29 H6          5.7920    2.6810    4.0810 hn        1 03G      0.473300
     30 H7          5.5950    0.9590    5.8790 hx        1 03G      0.108700
     31 H8          4.4780    2.4430    7.5900 hc        1 03G      0.073450
     32 H9          5.9220    3.5500    7.5990 hc        1 03G      0.073450
     33 H10         8.1040    0.8690    8.9760 hn        1 03G      0.396800
     34 H11         7.8770    3.0860    5.9870 hc        1 03G      0.073450
     35 H12         7.7890    1.6430    4.8760 hc        1 03G      0.073450
     36 H13         6.3910    1.6960   10.7220 hc        1 03G      0.051617
     37 H14         4.9440    2.5290   10.0130 hc        1 03G      0.051617
     38 H15         6.5830    3.3040    9.9050 hc        1 03G      0.051617
     39 H16         4.4450    0.4690    8.9710 hc        1 03G      0.051617
     40 H17         5.9800   -0.3990    9.3710 hc        1 03G      0.051617
     41 H18         5.4460   -0.2530    7.6480 hc        1 03G      0.051617
     42 H19         8.5750   -0.5070    5.5960 hc        1 03G      0.051617
     43 H20         8.4660   -0.9860    7.3370 hc        1 03G      0.051617
     44 H21         6.9600   -0.6100    6.4040 hc        1 03G      0.051617
     45 H22        10.2580    0.7890    7.5530 hc        1 03G      0.051617
     46 H23        10.0400    1.3280    5.8350 hc        1 03G      0.051617
     47 H24         9.8880    2.5270    7.1920 hc        1 03G      0.051617
     48 H221        5.4340    3.8560    5.2300 hn        1 03G      0.473300
@<TRIPOS>BOND
     1    1    2 ar  
     2    1    6 ar  
     3    1    9 1   
     4    2    3 ar  
     5    2   24 1   
     6    3    4 ar  
     7    3   25 1   
     8    4    5 ar  
     9    4    7 1   
    10    5    6 ar  
    11    5   26 1   
    12    6   27 1   
    13    7    8 1   
    14    7   28 1   
    15    8   10 1   
    16    8   23 2   
    17   10   11 1   
    18   10   22 2   
    19   11   12 1   
    20   11   29 1   
    21   11   48 1   
    22   12   13 1   
    23   12   17 1   
    24   12   30 1   
    25   13   14 1   
    26   13   31 1   
    27   13   32 1   
    28   14   15 1   
    29   14   18 1   
    30   14   19 1   
    31   15   16 1   
    32   15   33 1   
    33   16   17 1   
    34   16   20 1   
    35   16   21 1   
    36   17   34 1   
    37   17   35 1   
    38   18   36 1   
    39   18   37 1   
    40   18   38 1   
    41   19   39 1   
    42   19   40 1   
    43   19   41 1   
    44   20   42 1   
    45   20   43 1   
    46   20   44 1   
    47   21   45 1   
    48   21   46 1   
    49   21   47 1   
@<TRIPOS>SUBSTRUCTURE
     1 03G         1 TEMP              0 ****  ****    0 ROOT
