@<TRIPOS>MOLECULE
03G
   49    50     1     0     0
SMALL
bcc


@<TRIPOS>ATOM
      1 C1          0.8700   -0.4050    0.1460 ca        1 03G      0.086400
      2 C2          1.4770   -1.3380    1.0060 ca        1 03G     -0.104500
      3 C3          1.6990   -1.0260    2.3400 ca        1 03G     -0.080000
      4 C4          1.3090    0.2400    2.8220 ca        1 03G     -0.130400
      5 C5          0.7010    1.1850    1.9710 ca        1 03G     -0.080000
      6 C6          0.4880    0.8550    0.6390 ca        1 03G     -0.104500
      7 N1          1.4670    0.5500    4.2510 n4        1 03G     -0.497200
      8 C7          2.6790    1.3820    4.4980 c         1 03G      0.452100
      9 CL1         0.6000   -0.7960   -1.4600 cl        1 03G      0.050600
     10 C8          3.9960    0.6210    4.6810 c         1 03G      0.470100
     11 N2          5.2200    1.4460    4.7320 n4        1 03G     -0.669800
     12 C9          6.0570    1.1950    6.0090 c3        1 03G      0.151500
     13 C10         5.3800    1.8170    7.2210 c3        1 03G     -0.111900
     14 C11         6.2460    1.6030    8.4950 c3        1 03G      0.221200
     15 N3          7.6160    2.0370    8.2530 n3        1 03G     -0.843200
     16 C12         8.3210    1.5510    7.0720 c3        1 03G      0.221200
     17 C13         7.4560    1.7650    5.7980 c3        1 03G     -0.111900
     18 C14         5.6240    2.4980    9.5910 c3        1 03G     -0.119100
     19 C15         6.0740    0.1500    8.9670 c3        1 03G     -0.119100
     20 C16         8.7750    0.0840    7.1170 c3        1 03G     -0.119100
     21 C17         9.5970    2.4000    6.8670 c3        1 03G     -0.119100
     22 O1          4.0430   -0.5940    4.7930 o         1 03G     -0.344100
     23 O2          2.5950    2.5990    4.5440 o         1 03G     -0.337100
     24 H1          1.7680   -2.3350    0.6230 ha        1 03G      0.201000
     25 H2          2.1610   -1.7800    3.0000 ha        1 03G      0.168500
     26 H3          0.3790    2.1750    2.3390 ha        1 03G      0.168500
     27 H4          0.0030    1.5900   -0.0320 ha        1 03G      0.201000
     28 H5          1.5320   -0.3340    4.7820 hn        1 03G      0.497300
     29 H6          5.8170    1.2100    3.9210 hn        1 03G      0.486800
     30 H7          6.1080    0.0680    6.1130 hx        1 03G      0.124700
     31 H8          5.2440    2.9220    7.0750 hc        1 03G      0.072200
     32 H9          4.3800    1.3470    7.4010 hc        1 03G      0.072200
     33 H10         8.1780    1.9340    9.0760 hn        1 03G      0.416800
     34 H11         7.9730    1.2560    4.9430 hc        1 03G      0.072200
     35 H12         7.4060    2.8670    5.5890 hc        1 03G      0.072200
     36 H13         5.7390    3.5800    9.3440 hc        1 03G      0.058200
     37 H14         4.5390    2.2590    9.6910 hc        1 03G      0.058200
     38 H15         6.1230    2.3010   10.5710 hc        1 03G      0.058200
     39 H16         6.7670   -0.0620    9.8190 hc        1 03G      0.058200
     40 H17         5.0290   -0.0090    9.3280 hc        1 03G      0.058200
     41 H18         6.2810   -0.5840    8.1550 hc        1 03G      0.058200
     42 H19         9.4810   -0.1190    6.2750 hc        1 03G      0.058200
     43 H20         9.3140   -0.1240    8.0740 hc        1 03G      0.058200
     44 H21         7.9200   -0.6250    7.0340 hc        1 03G      0.058200
     45 H22        10.3250    2.1980    7.6910 hc        1 03G      0.058200
     46 H23         9.3610    3.4900    6.8590 hc        1 03G      0.058200
     47 H24        10.0730    2.1230    5.8960 hc        1 03G      0.058200
     48 H121        0.6300    1.0770    4.5660 hn        1 03G      0.497300
     49 H221        4.9850    2.4490    4.6900 hn        1 03G      0.486800
@<TRIPOS>BOND
     1    1    2 ar  
     2    1    6 ar  
     3    1    9 1   
     4    2    3 ar  
     5    2   24 1   
     6    3    4 ar  
     7    3   25 1   
     8    4    5 ar  
     9    4    7 1   
    10    5    6 ar  
    11    5   26 1   
    12    6   27 1   
    13    7    8 1   
    14    7   28 1   
    15    7   48 1   
    16    8   10 1   
    17    8   23 2   
    18   10   11 1   
    19   10   22 2   
    20   11   12 1   
    21   11   29 1   
    22   11   49 1   
    23   12   13 1   
    24   12   17 1   
    25   12   30 1   
    26   13   14 1   
    27   13   31 1   
    28   13   32 1   
    29   14   15 1   
    30   14   18 1   
    31   14   19 1   
    32   15   16 1   
    33   15   33 1   
    34   16   17 1   
    35   16   20 1   
    36   16   21 1   
    37   17   34 1   
    38   17   35 1   
    39   18   36 1   
    40   18   37 1   
    41   18   38 1   
    42   19   39 1   
    43   19   40 1   
    44   19   41 1   
    45   20   42 1   
    46   20   43 1   
    47   20   44 1   
    48   21   45 1   
    49   21   46 1   
    50   21   47 1   
@<TRIPOS>SUBSTRUCTURE
     1 03G         1 TEMP              0 ****  ****    0 ROOT
