@<TRIPOS>MOLECULE
03G
   47    48     1     0     0
SMALL
bcc


@<TRIPOS>ATOM
      1 C1         -6.2240   -0.0070    0.0750 ca        1 03G     -0.007600
      2 C2         -5.3650   -0.5560   -0.8790 ca        1 03G     -0.099500
      3 C3         -3.9860   -0.4620   -0.7210 ca        1 03G     -0.157000
      4 C4         -3.4410    0.1900    0.4060 ca        1 03G      0.064600
      5 C5         -4.3260    0.7410    1.3660 ca        1 03G     -0.157000
      6 C6         -5.7010    0.6420    1.1980 ca        1 03G     -0.099500
      7 N1         -2.0600    0.3290    0.6230 n         1 03G     -0.441100
      8 C7         -1.0390   -0.1910   -0.1400 c         1 03G      0.596100
      9 CL1        -7.9070   -0.1270   -0.1260 cl        1 03G     -0.092400
     10 C8          0.3850    0.1250    0.3870 c         1 03G      0.594100
     11 N2          1.4100   -0.1970   -0.4550 n         1 03G     -0.535900
     12 C9          2.8060   -0.0100   -0.1060 c3        1 03G      0.100700
     13 C10         3.5350    0.8590   -1.1390 c3        1 03G     -0.119400
     14 C11         5.0110    1.0910   -0.7440 c3        1 03G      0.195700
     15 N3          5.7350   -0.1280   -0.3670 n3        1 03G     -0.806200
     16 C12         5.0260   -1.1370    0.4290 c3        1 03G      0.195700
     17 C13         3.5500   -1.3450    0.0230 c3        1 03G     -0.119400
     18 C14         5.6870    1.7340   -1.9760 c3        1 03G     -0.091600
     19 C15         5.0640    2.1460    0.3740 c3        1 03G     -0.091600
     20 C16         5.0850   -0.8120    1.9310 c3        1 03G     -0.091600
     21 C17         5.7150   -2.5100    0.2570 c3        1 03G     -0.091600
     22 O1          0.5450    0.6500    1.5080 o         1 03G     -0.607100
     23 O2         -1.1920   -0.8610   -1.1770 o         1 03G     -0.587100
     24 H1         -5.7730   -1.0690   -1.7650 ha        1 03G      0.150000
     25 H2         -3.3300   -0.9050   -1.4890 ha        1 03G      0.158000
     26 H3         -3.9350    1.2560    2.2570 ha        1 03G      0.158000
     27 H4         -6.3750    1.0760    1.9530 ha        1 03G      0.150000
     28 H5         -1.7920    0.8200    1.4530 hn        1 03G      0.346500
     29 H6          1.2020   -0.6530   -1.3150 hn        1 03G      0.334500
     30 H7          2.8330    0.5170    0.8960 h1        1 03G      0.095700
     31 H8          3.4960    0.3640   -2.1440 hc        1 03G      0.050700
     32 H9          3.0300    1.8550   -1.2280 hc        1 03G      0.050700
     33 H10         6.0810   -0.5660   -1.2020 hn        1 03G      0.358800
     34 H11         3.0560   -1.9870    0.7970 hc        1 03G      0.050700
     35 H12         3.5100   -1.8960   -0.9540 hc        1 03G      0.050700
     36 H13         5.1300    2.6590   -2.2580 hc        1 03G      0.041450
     37 H14         6.7420    2.0080   -1.7410 hc        1 03G      0.041450
     38 H15         5.6800    1.0380   -2.8490 hc        1 03G      0.041450
     39 H16         4.4580    1.8390    1.2570 hc        1 03G      0.041450
     40 H17         6.1170    2.3110    0.7040 hc        1 03G      0.041450
     41 H18         4.6540    3.1100   -0.0140 hc        1 03G      0.041450
     42 H19         4.4680    0.0810    2.1820 hc        1 03G      0.041450
     43 H20         4.6910   -1.6840    2.5080 hc        1 03G      0.041450
     44 H21         6.1370   -0.6200    2.2470 hc        1 03G      0.041450
     45 H22         6.7720   -2.4600    0.6110 hc        1 03G      0.041450
     46 H23         5.1690   -3.2710    0.8630 hc        1 03G      0.041450
     47 H24         5.7060   -2.8350   -0.8110 hc        1 03G      0.041450
@<TRIPOS>BOND
     1    1    2 ar  
     2    1    6 ar  
     3    1    9 1   
     4    2    3 ar  
     5    2   24 1   
     6    3    4 ar  
     7    3   25 1   
     8    4    5 ar  
     9    4    7 1   
    10    5    6 ar  
    11    5   26 1   
    12    6   27 1   
    13    7    8 1   
    14    7   28 1   
    15    8   10 1   
    16    8   23 2   
    17   10   11 1   
    18   10   22 2   
    19   11   12 1   
    20   11   29 1   
    21   12   13 1   
    22   12   17 1   
    23   12   30 1   
    24   13   14 1   
    25   13   31 1   
    26   13   32 1   
    27   14   15 1   
    28   14   18 1   
    29   14   19 1   
    30   15   16 1   
    31   15   33 1   
    32   16   17 1   
    33   16   20 1   
    34   16   21 1   
    35   17   34 1   
    36   17   35 1   
    37   18   36 1   
    38   18   37 1   
    39   18   38 1   
    40   19   39 1   
    41   19   40 1   
    42   19   41 1   
    43   20   42 1   
    44   20   43 1   
    45   20   44 1   
    46   21   45 1   
    47   21   46 1   
    48   21   47 1   
@<TRIPOS>SUBSTRUCTURE
     1 03G         1 TEMP              0 ****  ****    0 ROOT
