@<TRIPOS>MOLECULE
03G
   47    45     1     0     0
SMALL
bcc


@<TRIPOS>ATOM
      1 C1         -6.0590    0.0600   -3.9130 c1        1 03G     -0.087000
      2 C2         -5.7460    1.3340   -3.4590 c1        1 03G     -0.123500
      3 C3         -4.8940    1.4980   -2.3690 c1        1 03G     -0.123500
      4 C4         -4.3580    0.3890   -1.7360 c1        1 03G      0.073000
      5 C5         -4.6750   -0.8980   -2.1950 c1        1 03G     -0.169000
      6 C6         -5.5240   -1.0560   -3.2810 c2        1 03G     -0.099000
      7 N1         -3.5910    0.5500   -0.5230 n         1 03G     -0.297000
      8 C7         -2.1940    0.7880   -0.5950 c2        1 03G      0.290000
      9 CL1        -7.1850   -0.1360   -5.2000 cl        1 03G     -0.016000
     10 C8         -1.3210    0.7000    0.7160 c2        1 03G      0.283000
     11 N2          0.0920    0.3150    0.6340 n         1 03G     -0.332000
     12 C9          0.8170    0.1210    1.8000 c3        1 03G      0.036000
     13 C10         2.0580    1.2490    1.8670 c3        1 03G     -0.168500
     14 C11         2.7920    0.7900    0.4670 c3        1 03G      0.037500
     15 N3          3.2880   -0.6320    0.5040 n3        1 03G     -0.310000
     16 C12         2.6780   -1.3580    1.4780 c3        1 03G      0.037500
     17 C13         1.3030   -1.2720    1.8320 c3        1 03G     -0.168500
     18 C14         1.8010    0.9360   -0.6690 c3        1 03G     -0.223750
     19 C15         4.0430    1.7520    0.1900 c3        1 03G     -0.223750
     20 C16         3.4690   -1.0840    2.7770 c3        1 03G     -0.223750
     21 C17         2.9170   -2.8270    1.1200 c3        1 03G     -0.223750
     22 O1         -1.8580    0.8490    1.8300 o         1 03G     -0.377000
     23 O2         -1.6750    0.8530   -1.6270 o         1 03G     -0.342000
     24 H1         -6.1160    2.0980   -3.8960 ha        1 03G      0.163500
     25 H2         -4.6750    2.4050   -2.0510 ha        1 03G      0.163500
     26 H3         -4.3100   -1.6570   -1.7650 DU        1 03G      0.139000
     27 H4         -5.7480   -1.9660   -3.6060 ha        1 03G      0.149000
     28 H5         -3.9920    0.4670    0.2750 hn        1 03G      0.258000
     29 H6          0.4550    0.0930   -0.1680 hn        1 03G      0.266000
     30 H7          0.2100    0.2660    2.5850 h1        1 03G      0.124000
     31 H8          2.6400    1.1100    2.6470 hc        1 03G      0.094750
     32 H9          1.7230    2.1530    1.8180 hc        1 03G      0.094750
     33 H10         4.2210   -0.6360    0.6460 hn        1 03G      0.166000
     34 H11         0.7570   -1.8310    1.1720 hc        1 03G      0.094750
     35 H12         1.1770   -1.6450    2.7680 hc        1 03G      0.094750
     36 H13         2.2430    1.3840   -1.4430 hc        1 03G      0.078583
     37 H14         1.4840    0.0490   -0.9440 hc        1 03G      0.078583
     38 H15         1.0620    1.4620   -0.3770 hc        1 03G      0.078583
     39 H16         3.7120    2.7120    0.0140 hc        1 03G      0.078583
     40 H17         4.5290    1.4310   -0.5840 hc        1 03G      0.078583
     41 H18         4.6450    1.7490    0.9860 hc        1 03G      0.078583
     42 H19         4.2390   -1.6860    2.8210 hc        1 03G      0.078583
     43 H20         2.8910   -1.2380    3.5490 hc        1 03G      0.078583
     44 H21         3.7700   -0.1850    2.7830 hc        1 03G      0.078583
     45 H22         3.9110   -3.0240    1.1330 hc        1 03G      0.078583
     46 H23         2.4470   -3.4190    1.7960 hc        1 03G      0.078583
     47 H24         2.5480   -3.0120    0.1940 hc        1 03G      0.078583
@<TRIPOS>BOND
     1    1    6 1   
     2    1    9 1   
     3    2    3 1   
     4    2   24 1   
     5    3   25 1   
     6    4    5 1   
     7    4    7 1   
     8    5    6 1   
     9    6   27 1   
    10    7    8 1   
    11    7   28 1   
    12    8   10 1   
    13    8   23 1   
    14   10   11 1   
    15   10   22 1   
    16   11   12 1   
    17   11   29 1   
    18   12   13 1   
    19   12   17 1   
    20   12   30 1   
    21   13   14 1   
    22   13   31 1   
    23   13   32 1   
    24   14   15 1   
    25   14   18 1   
    26   14   19 1   
    27   15   16 1   
    28   15   33 1   
    29   16   17 1   
    30   16   20 1   
    31   16   21 1   
    32   17   34 1   
    33   17   35 1   
    34   18   36 1   
    35   18   37 1   
    36   18   38 1   
    37   19   39 1   
    38   19   40 1   
    39   19   41 1   
    40   20   42 1   
    41   20   43 1   
    42   20   44 1   
    43   21   45 1   
    44   21   46 1   
    45   21   47 1   
@<TRIPOS>SUBSTRUCTURE
     1 03G         1 TEMP              0 ****  ****    0 ROOT
