@<TRIPOS>MOLECULE
03H
   19    18     1     0     0
SMALL
bcc


@<TRIPOS>ATOM
      1 CL         -0.0910   -0.2610    0.1470 cl        1 03H     -0.276400
      2 C1          2.2890   -1.2800   -0.7590 c         1 03H      0.918600
      3 O1          2.5660   -1.0870   -1.9740 o         1 03H     -0.823800
      4 C2          1.6810   -0.0710    0.0080 c3        1 03H     -0.040300
      5 O2          2.5070   -2.3450   -0.1230 o         1 03H     -0.823800
      6 C3          2.3150    0.0630    1.3720 c3        1 03H     -0.072400
      7 C4          1.9700    1.3570    2.0960 c3        1 03H     -0.076700
      8 C5          2.2600    1.2210    3.5770 c3        1 03H     -0.084100
      9 C6          2.7360    2.5310    1.5230 c3        1 03H     -0.084100
     10 H2          1.8040    0.8570   -0.6010 h1        1 03H      0.051700
     11 H3          3.4280   -0.0030    1.2360 hc        1 03H      0.059200
     12 H3A         2.0130   -0.8190    1.9970 hc        1 03H      0.059200
     13 H4          0.8680    1.5540    1.9680 hc        1 03H      0.052700
     14 H5          2.0280    2.1740    4.1110 hc        1 03H      0.023533
     15 H5A         1.6400    0.4040    4.0200 hc        1 03H      0.023533
     16 H5B         3.3370    0.9750    3.7430 hc        1 03H      0.023533
     17 H6          3.8350    2.3860    1.6570 hc        1 03H      0.023533
     18 H6A         2.4400    3.4780    2.0350 hc        1 03H      0.023533
     19 H6B         2.5260    2.6350    0.4310 hc        1 03H      0.023533
@<TRIPOS>BOND
     1    1    4 1   
     2    2    3 1   
     3    2    4 1   
     4    2    5 1   
     5    4    6 1   
     6    4   10 1   
     7    6    7 1   
     8    6   11 1   
     9    6   12 1   
    10    7    8 1   
    11    7    9 1   
    12    7   13 1   
    13    8   14 1   
    14    8   15 1   
    15    8   16 1   
    16    9   17 1   
    17    9   18 1   
    18    9   19 1   
@<TRIPOS>SUBSTRUCTURE
     1 03H         1 TEMP              0 ****  ****    0 ROOT
