@<TRIPOS>MOLECULE
03H
   19    18     1     0     0
SMALL
bcc


@<TRIPOS>ATOM
      1 Cl         -0.0930   -0.1700    0.0850 cl        1 03H     -0.276400
      2 C1          2.2710   -1.2690   -0.7680 c         1 03H      0.918600
      3 O1          2.5860   -1.0800   -1.9750 o         1 03H     -0.823800
      4 C2          1.6880   -0.0440   -0.0100 c3        1 03H     -0.040300
      5 O2          2.4330   -2.3460   -0.1350 o         1 03H     -0.823800
      6 C3          2.2920    0.0600    1.3700 c3        1 03H     -0.072400
      7 C4          1.9760    1.3610    2.0940 c3        1 03H     -0.076700
      8 C5          2.2250    1.2070    3.5810 c3        1 03H     -0.084100
      9 C6          2.7960    2.5110    1.5460 c3        1 03H     -0.084100
     10 H2          1.8590    0.8820   -0.6090 h1        1 03H      0.051700
     11 H3          3.4050   -0.0450    1.2610 hc        1 03H      0.059200
     12 H3A         1.9430   -0.8140    1.9820 hc        1 03H      0.059200
     13 H4          0.8840    1.5990    1.9410 hc        1 03H      0.052700
     14 H5          2.0130    2.1650    4.1150 hc        1 03H      0.023533
     15 H5A         1.5660    0.4110    4.0030 hc        1 03H      0.023533
     16 H5B         3.2880    0.9220    3.7710 hc        1 03H      0.023533
     17 H6          3.8850    2.3260    1.7060 hc        1 03H      0.023533
     18 H6A         2.5210    3.4650    2.0570 hc        1 03H      0.023533
     19 H6B         2.6160    2.6280    0.4510 hc        1 03H      0.023533
@<TRIPOS>BOND
     1    1    4 1   
     2    2    3 1   
     3    2    4 1   
     4    2    5 1   
     5    4    6 1   
     6    4   10 1   
     7    6    7 1   
     8    6   11 1   
     9    6   12 1   
    10    7    8 1   
    11    7    9 1   
    12    7   13 1   
    13    8   14 1   
    14    8   15 1   
    15    8   16 1   
    16    9   17 1   
    17    9   18 1   
    18    9   19 1   
@<TRIPOS>SUBSTRUCTURE
     1 03H         1 TEMP              0 ****  ****    0 ROOT
