@<TRIPOS>MOLECULE
03H
   19    18     1     0     0
SMALL
bcc


@<TRIPOS>ATOM
      1 CL         -0.0910   -0.2060    0.1070 cl        1 03H     -0.276400
      2 C1          2.2790   -1.2900   -0.7490 c         1 03H      0.918600
      3 O1          2.5850   -1.1090   -1.9590 o         1 03H     -0.823800
      4 C2          1.6880   -0.0630    0.0010 c3        1 03H     -0.040300
      5 O2          2.4560   -2.3580   -0.1060 o         1 03H     -0.823800
      6 C3          2.2990    0.0610    1.3760 c3        1 03H     -0.072400
      7 C4          1.9730    1.3660    2.0890 c3        1 03H     -0.076700
      8 C5          2.2320    1.2280    3.5760 c3        1 03H     -0.084100
      9 C6          2.7780    2.5180    1.5260 c3        1 03H     -0.084100
     10 H2          1.8460    0.8590   -0.6090 h1        1 03H      0.051700
     11 H3          1.9620   -0.8110    1.9980 hc        1 03H      0.059200
     12 H3A         3.4120   -0.0340    1.2610 hc        1 03H      0.059200
     13 H4          0.8780    1.5900    1.9400 hc        1 03H      0.052700
     14 H5          3.2990    0.9570    3.7630 hc        1 03H      0.023533
     15 H5A         2.0140    2.1890    4.1020 hc        1 03H      0.023533
     16 H5B         1.5850    0.4290    4.0100 hc        1 03H      0.023533
     17 H6          3.8710    2.3460    1.6800 hc        1 03H      0.023533
     18 H6A         2.4970    3.4740    2.0290 hc        1 03H      0.023533
     19 H6B         2.5900    2.6230    0.4300 hc        1 03H      0.023533
@<TRIPOS>BOND
     1    1    4 1   
     2    2    3 1   
     3    2    4 1   
     4    2    5 1   
     5    4    6 1   
     6    4   10 1   
     7    6    7 1   
     8    6   11 1   
     9    6   12 1   
    10    7    8 1   
    11    7    9 1   
    12    7   13 1   
    13    8   14 1   
    14    8   15 1   
    15    8   16 1   
    16    9   17 1   
    17    9   18 1   
    18    9   19 1   
@<TRIPOS>SUBSTRUCTURE
     1 03H         1 TEMP              0 ****  ****    0 ROOT
