@<TRIPOS>MOLECULE
03H
   19    18     1     0     0
SMALL
bcc


@<TRIPOS>ATOM
      1 CL          0.5700    1.7920   -0.3440 cl        1 03H     -0.276400
      2 C1          1.7910   -0.6470   -0.0650 c         1 03H      0.918600
      3 O1          2.5960   -0.7760    0.8960 o         1 03H     -0.823800
      4 C2          0.4670    0.1070    0.2420 c3        1 03H     -0.040300
      5 O2          1.9590   -1.1170   -1.2220 o         1 03H     -0.823800
      6 C3         -0.7070   -0.6080   -0.3830 c3        1 03H     -0.072400
      7 C4         -2.0660   -0.0900    0.0690 c3        1 03H     -0.076700
      8 C5         -3.1420   -0.5300   -0.9030 c3        1 03H     -0.084100
      9 C6         -2.4010   -0.5680    1.4660 c3        1 03H     -0.084100
     10 H2          0.3470    0.2150    1.3480 h1        1 03H      0.051700
     11 H3         -0.6200   -0.5330   -1.5000 hc        1 03H      0.059200
     12 H3A        -0.6170   -1.6970   -0.1230 hc        1 03H      0.059200
     13 H4         -2.0340    1.0360    0.0760 hc        1 03H      0.052700
     14 H5         -3.1710   -1.6440   -0.9750 hc        1 03H      0.023533
     15 H5A        -4.1440   -0.1710   -0.5660 hc        1 03H      0.023533
     16 H5B        -2.9390   -0.1160   -1.9200 hc        1 03H      0.023533
     17 H6         -2.4700   -1.6820    1.4940 hc        1 03H      0.023533
     18 H6A        -1.6090   -0.2470    2.1860 hc        1 03H      0.023533
     19 H6B        -3.3790   -0.1450    1.8000 hc        1 03H      0.023533
@<TRIPOS>BOND
     1    1    4 1   
     2    2    3 1   
     3    2    4 1   
     4    2    5 1   
     5    4    6 1   
     6    4   10 1   
     7    6    7 1   
     8    6   11 1   
     9    6   12 1   
    10    7    8 1   
    11    7    9 1   
    12    7   13 1   
    13    8   14 1   
    14    8   15 1   
    15    8   16 1   
    16    9   17 1   
    17    9   18 1   
    18    9   19 1   
@<TRIPOS>SUBSTRUCTURE
     1 03H         1 TEMP              0 ****  ****    0 ROOT
