@<TRIPOS>MOLECULE
03H
   19    17     1     0     0
SMALL
bcc


@<TRIPOS>ATOM
      1 CL         -2.1390   -0.6180   -1.5090 cl        1 03H     -0.203000
      2 C1          0.1090   -1.8540   -2.2220 c1        1 03H      0.338000
      3 O1         -0.5280   -2.9360   -2.1330 os        1 03H     -0.556000
      4 C2         -0.3960   -0.6180   -1.5090 c3        1 03H     -0.103000
      5 O2          1.1650   -1.7990   -2.9040 o         1 03H     -0.561000
      6 C3          0.1090   -0.6180   -0.0830 c3        1 03H     -0.151000
      7 C4         -0.1090    0.7480    0.5290 c3        1 03H     -0.116000
      8 C5         -0.8730    0.6030    1.8280 c3        1 03H     -0.202000
      9 C6          1.2290    1.3980    0.8010 c3        1 03H     -0.202000
     10 H2         -0.0700    0.1790   -1.9690 h1        1 03H      0.091000
     11 H3          1.0620   -0.8300   -0.0740 hc        1 03H      0.098500
     12 H3A        -0.3780   -1.2880    0.4350 hc        1 03H      0.098500
     13 H4         -0.6210    1.3040   -0.0890 hc        1 03H      0.092000
     14 H5         -0.9650    1.4780    2.2500 hc        1 03H      0.062833
     15 H5A        -1.7580    0.2350    1.6450 hc        1 03H      0.062833
     16 H5B        -0.3880    0.0020    2.4250 hc        1 03H      0.062833
     17 H6          1.7070    1.5230   -0.0400 hc        1 03H      0.062833
     18 H6A         1.0890    2.2650    1.2280 hc        1 03H      0.062833
     19 H6B         1.7550    0.8260    1.3920 hc        1 03H      0.062833
@<TRIPOS>BOND
     1    1    4 1   
     2    2    4 1   
     3    2    5 1   
     4    4    6 1   
     5    4   10 1   
     6    6    7 1   
     7    6   11 1   
     8    6   12 1   
     9    7    8 1   
    10    7    9 1   
    11    7   13 1   
    12    8   14 1   
    13    8   15 1   
    14    8   16 1   
    15    9   17 1   
    16    9   18 1   
    17    9   19 1   
@<TRIPOS>SUBSTRUCTURE
     1 03H         1 TEMP              0 ****  ****    0 ROOT
