@<TRIPOS>MOLECULE
03I
   69    71     1     0     0
SMALL
bcc


@<TRIPOS>ATOM
      1 C1         -0.5930    0.0820   -0.0180 cp        1 03I     -0.107000
      2 C2          0.8100    0.0200   -0.0570 ca        1 03I     -0.075500
      3 C3          1.5540    0.0040    1.1130 ca        1 03I     -0.182500
      4 C4          0.8900    0.0580    2.3560 ca        1 03I      0.152100
      5 C5         -0.5080    0.1240    2.4100 ca        1 03I     -0.182500
      6 C6         -1.2380    0.1330    1.2240 ca        1 03I     -0.075500
      7 O7          1.7210    0.0380    3.4510 os        1 03I     -0.322900
      8 C8         -1.3650    0.0950   -1.2560 cp        1 03I      0.008000
      9 C9         -0.9140    0.8180   -2.3710 ca        1 03I     -0.118500
     10 C10        -1.6490    0.8300   -3.5530 ca        1 03I     -0.128000
     11 C11        -2.8510    0.1180   -3.6460 ca        1 03I     -0.134300
     12 C12        -3.3090   -0.5980   -2.5340 ca        1 03I     -0.128000
     13 C13        -2.5740   -0.6120   -1.3530 ca        1 03I     -0.118500
     14 C14        -3.6500    0.1580   -4.9020 c3        1 03I     -0.050100
     15 C15        -4.0090   -1.2410   -5.3810 c3        1 03I     -0.065400
     16 C16        -3.8510   -1.4440   -6.8950 c3        1 03I     -0.260200
     17 C17        -4.2430   -2.8650   -7.1770 c         1 03I      0.575100
     18 S18        -2.1410   -1.1080   -7.4990 s6        1 03I      1.340000
     19 C19        -1.1910   -1.6300   -6.2600 c3        1 03I     -0.433300
     20 O20        -2.1040   -2.0000   -8.5880 o         1 03I     -0.635300
     21 O21        -2.0420    0.2490   -7.7400 o         1 03I     -0.635300
     22 C22        -4.7590   -0.4740   -7.6340 c3        1 03I     -0.114100
     23 N23        -4.5690   -3.2130   -8.6370 ny        1 03I     -0.464300
     24 O24        -4.3120   -3.8140   -6.4140 o         1 03I     -0.408100
     25 C25         1.0790    0.0980    4.7340 c3        1 03I      0.127400
     26 C26         2.2060    0.0520    5.7530 c3        1 03I     -0.089400
     27 C27         1.6170    0.2250    7.1520 c3        1 03I      0.173800
     28 O28        -5.1730   -4.4100   -8.7980 oh        1 03I     -0.356300
     29 N29         2.5660   -0.0550    8.2200 n3        1 03I     -0.724600
     30 C30         1.9070   -0.0850    9.5210 c3        1 03I      0.130300
     31 C31         2.8930   -0.2960   10.6760 c3        1 03I      0.126400
     32 O32         3.9540    0.6500   10.6360 os        1 03I     -0.411600
     33 C33         4.6550    0.6140    9.3990 c3        1 03I      0.126400
     34 C34         3.7160    0.8400    8.2090 c3        1 03I      0.130300
     35 H2          1.3280   -0.0240   -1.0280 ha        1 03I      0.134000
     36 H3          2.6520   -0.0480    1.0910 ha        1 03I      0.151500
     37 H5         -1.0370    0.1720    3.3720 ha        1 03I      0.151500
     38 H6         -2.3370    0.1940    1.2680 ha        1 03I      0.134000
     39 H9          0.0220    1.3960   -2.3040 ha        1 03I      0.149000
     40 H10        -1.2920    1.4250   -4.4080 ha        1 03I      0.132500
     41 H12        -4.2610   -1.1470   -2.5910 ha        1 03I      0.132500
     42 H13        -2.9420   -1.1820   -0.4850 ha        1 03I      0.149000
     43 H14        -4.5970    0.7350   -4.7110 hc        1 03I      0.070200
     44 H14A       -3.0850    0.7280   -5.6890 hc        1 03I      0.070200
     45 H15        -5.0760   -1.4550   -5.1050 hc        1 03I      0.076200
     46 H15A       -3.3820   -2.0080   -4.8490 hc        1 03I      0.076200
     47 H19        -1.2720   -1.0090   -5.3170 h1        1 03I      0.165700
     48 H19A       -1.3580   -2.6880   -5.9270 h1        1 03I      0.165700
     49 H19B       -0.0950   -1.5870   -6.5240 h1        1 03I      0.165700
     50 H22        -5.8360   -0.7240   -7.4760 hc        1 03I      0.080700
     51 H22A       -4.5300   -0.4540   -8.7290 hc        1 03I      0.080700
     52 H22B       -4.5960    0.5670   -7.2440 hc        1 03I      0.080700
     53 HN23       -3.6810   -3.1830   -9.1980 hn        1 03I      0.504300
     54 H25         0.4950    1.0520    4.8140 h1        1 03I      0.042700
     55 H25A        0.3910   -0.7800    4.8490 h1        1 03I      0.042700
     56 H26         2.7500   -0.9230    5.6660 hc        1 03I      0.068200
     57 H26A        2.9400    0.8700    5.5300 hc        1 03I      0.068200
     58 H27         1.1920    1.2700    7.2320 h1        1 03I      0.032200
     59 H27A        0.7600   -0.4980    7.2720 h1        1 03I      0.032200
     60 HO28       -4.8010   -5.0530   -8.1450 ho        1 03I      0.483000
     61 H30         1.3290    0.8660    9.7160 h1        1 03I      0.040950
     62 H30A        1.1760   -0.9410    9.5170 h1        1 03I      0.040950
     63 H31         2.3840   -0.1060   11.6570 h1        1 03I      0.056450
     64 H31A        3.3140   -1.3360   10.6530 h1        1 03I      0.056450
     65 H33         5.3950    1.4530    9.4720 h1        1 03I      0.056450
     66 H33A        5.1910   -0.3670    9.3000 h1        1 03I      0.056450
     67 H34         3.3980    1.9230    8.2050 h1        1 03I      0.040950
     68 H34A        4.2930    0.6430    7.2620 h1        1 03I      0.040950
     69 H232       -5.2330   -2.5120   -9.0230 hn        1 03I      0.504300
@<TRIPOS>BOND
     1    1    2 ar  
     2    1    6 ar  
     3    1    8 1   
     4    2    3 ar  
     5    2   35 1   
     6    3    4 ar  
     7    3   36 1   
     8    4    5 ar  
     9    4    7 1   
    10    5    6 ar  
    11    5   37 1   
    12    6   38 1   
    13    7   25 1   
    14    8    9 ar  
    15    8   13 ar  
    16    9   10 ar  
    17    9   39 1   
    18   10   11 ar  
    19   10   40 1   
    20   11   12 ar  
    21   11   14 1   
    22   12   13 ar  
    23   12   41 1   
    24   13   42 1   
    25   14   15 1   
    26   14   43 1   
    27   14   44 1   
    28   15   16 1   
    29   15   45 1   
    30   15   46 1   
    31   16   17 1   
    32   16   18 1   
    33   16   22 1   
    34   17   23 1   
    35   17   24 2   
    36   18   19 1   
    37   18   20 2   
    38   18   21 2   
    39   19   47 1   
    40   19   48 1   
    41   19   49 1   
    42   22   50 1   
    43   22   51 1   
    44   22   52 1   
    45   23   28 1   
    46   23   53 1   
    47   23   69 1   
    48   25   26 1   
    49   25   54 1   
    50   25   55 1   
    51   26   27 1   
    52   26   56 1   
    53   26   57 1   
    54   27   29 1   
    55   27   58 1   
    56   27   59 1   
    57   28   60 1   
    58   29   30 1   
    59   29   34 1   
    60   30   31 1   
    61   30   61 1   
    62   30   62 1   
    63   31   32 1   
    64   31   63 1   
    65   31   64 1   
    66   32   33 1   
    67   33   34 1   
    68   33   65 1   
    69   33   66 1   
    70   34   67 1   
    71   34   68 1   
@<TRIPOS>SUBSTRUCTURE
     1 03I         1 TEMP              0 ****  ****    0 ROOT
