@<TRIPOS>MOLECULE
03I
   69    71     1     0     0
SMALL
bcc


@<TRIPOS>ATOM
      1 C1         -0.5780    0.0800   -0.0240 cp        1 03I     -0.107000
      2 C2          0.8240   -0.0180   -0.0560 ca        1 03I     -0.075500
      3 C3          1.5620   -0.0400    1.1170 ca        1 03I     -0.182500
      4 C4          0.8940    0.0440    2.3570 ca        1 03I      0.152100
      5 C5         -0.5020    0.1470    2.4040 ca        1 03I     -0.182500
      6 C6         -1.2260    0.1610    1.2140 ca        1 03I     -0.075500
      7 O7          1.7200    0.0160    3.4560 os        1 03I     -0.322900
      8 C8         -1.3440    0.0990   -1.2660 cp        1 03I      0.008000
      9 C9         -0.8710    0.7980   -2.3860 ca        1 03I     -0.118500
     10 C10        -1.6010    0.8150   -3.5710 ca        1 03I     -0.128000
     11 C11        -2.8200    0.1330   -3.6610 ca        1 03I     -0.134300
     12 C12        -3.3000   -0.5590   -2.5440 ca        1 03I     -0.128000
     13 C13        -2.5710   -0.5780   -1.3590 ca        1 03I     -0.118500
     14 C14        -3.6120    0.1800   -4.9210 c3        1 03I     -0.050100
     15 C15        -4.0040   -1.2150   -5.3870 c3        1 03I     -0.065400
     16 C16        -3.8470   -1.4390   -6.8980 c3        1 03I     -0.260200
     17 C17        -4.2730   -2.8520   -7.1660 c         1 03I      0.575100
     18 S18        -2.1270   -1.1510   -7.4990 s6        1 03I      1.340000
     19 C19        -1.1940   -1.6840   -6.2510 c3        1 03I     -0.433300
     20 O20        -2.1080   -2.0560   -8.5790 o         1 03I     -0.635300
     21 O21        -1.9920    0.2000   -7.7550 o         1 03I     -0.635300
     22 C22        -4.7270   -0.4540   -7.6510 c3        1 03I     -0.114100
     23 N23        -4.6020   -3.2070   -8.6230 n4        1 03I     -0.464300
     24 O24        -4.3680   -3.7910   -6.3930 o         1 03I     -0.408100
     25 C25         1.0750    0.1050    4.7360 c3        1 03I      0.127400
     26 C26         2.1960    0.0420    5.7590 c3        1 03I     -0.089400
     27 C27         1.6050    0.2430    7.1540 c3        1 03I      0.173800
     28 O28        -5.2360   -4.3900   -8.7740 oh        1 03I     -0.356300
     29 N29         2.5420   -0.0510    8.2290 n3        1 03I     -0.724600
     30 C30         1.8770   -0.0520    9.5280 c3        1 03I      0.130300
     31 C31         2.8530   -0.2760   10.6880 c3        1 03I      0.126400
     32 O32         3.9370    0.6430   10.6450 os        1 03I     -0.411600
     33 C33         4.6420    0.5780    9.4110 c3        1 03I      0.126400
     34 C34         3.7140    0.8160    8.2140 c3        1 03I      0.130300
     35 H2          1.3440   -0.0860   -1.0240 ha        1 03I      0.134000
     36 H3          2.6590   -0.1200    1.1010 ha        1 03I      0.151500
     37 H5         -1.0340    0.2190    3.3630 ha        1 03I      0.151500
     38 H6         -2.3230    0.2500    1.2540 ha        1 03I      0.134000
     39 H9          0.0790    1.3520   -2.3210 ha        1 03I      0.149000
     40 H10        -1.2250    1.3910   -4.4310 ha        1 03I      0.132500
     41 H12        -4.2660   -1.0840   -2.5990 ha        1 03I      0.132500
     42 H13        -2.9570   -1.1290   -0.4870 ha        1 03I      0.149000
     43 H14        -3.0300    0.7270   -5.7130 hc        1 03I      0.069700
     44 H14A       -4.5450    0.7820   -4.7410 hc        1 03I      0.069700
     45 H15        -5.0780   -1.4000   -5.1120 hc        1 03I      0.076200
     46 H15A       -3.3990   -1.9920   -4.8440 hc        1 03I      0.076200
     47 H19        -1.2640   -1.0510   -5.3150 h1        1 03I      0.165700
     48 H19A       -1.3890   -2.7340   -5.9080 h1        1 03I      0.165700
     49 H19B       -0.0960   -1.6700   -6.5120 h1        1 03I      0.165700
     50 H22        -5.8110   -0.6750   -7.4930 hc        1 03I      0.080700
     51 H22A       -4.4950   -0.4520   -8.7450 hc        1 03I      0.080700
     52 H22B       -4.5400    0.5860   -7.2710 hc        1 03I      0.080700
     53 HN23       -5.2470   -2.4940   -9.0200 hn        1 03I      0.504300
     54 H25         0.3640   -0.7540    4.8560 h1        1 03I      0.042700
     55 H25A        0.5140    1.0740    4.8030 h1        1 03I      0.042700
     56 H26         2.7160   -0.9480    5.6840 hc        1 03I      0.068200
     57 H26A        2.9500    0.8380    5.5320 hc        1 03I      0.068200
     58 H27         0.7300   -0.4580    7.2770 h1        1 03I      0.032200
     59 H27A        1.2060    1.2980    7.2220 h1        1 03I      0.032200
     60 HO28       -4.8830   -5.0350   -8.1130 ho        1 03I      0.483000
     61 H30         1.3220    0.9150    9.7100 h1        1 03I      0.040950
     62 H30A        1.1250   -0.8900    9.5280 h1        1 03I      0.040950
     63 H31         3.2480   -1.3260   10.6780 h1        1 03I      0.056450
     64 H31A        2.3440   -0.0640   11.6650 h1        1 03I      0.056450
     65 H33         5.4020    1.3990    9.4790 h1        1 03I      0.056450
     66 H33A        5.1540   -0.4170    9.3230 h1        1 03I      0.056450
     67 H34         3.4230    1.9070    8.1990 h1        1 03I      0.040950
     68 H34A        4.2900    0.5950    7.2730 h1        1 03I      0.040950
     69 H232       -3.7120   -3.2060   -9.1820 hn        1 03I      0.504300
@<TRIPOS>BOND
     1    1    2 ar  
     2    1    6 ar  
     3    1    8 1   
     4    2    3 ar  
     5    2   35 1   
     6    3    4 ar  
     7    3   36 1   
     8    4    5 ar  
     9    4    7 1   
    10    5    6 ar  
    11    5   37 1   
    12    6   38 1   
    13    7   25 1   
    14    8    9 ar  
    15    8   13 ar  
    16    9   10 ar  
    17    9   39 1   
    18   10   11 ar  
    19   10   40 1   
    20   11   12 ar  
    21   11   14 1   
    22   12   13 ar  
    23   12   41 1   
    24   13   42 1   
    25   14   15 1   
    26   14   43 1   
    27   14   44 1   
    28   15   16 1   
    29   15   45 1   
    30   15   46 1   
    31   16   17 1   
    32   16   18 1   
    33   16   22 1   
    34   17   23 1   
    35   17   24 2   
    36   18   19 1   
    37   18   20 2   
    38   18   21 2   
    39   19   47 1   
    40   19   48 1   
    41   19   49 1   
    42   22   50 1   
    43   22   51 1   
    44   22   52 1   
    45   23   28 1   
    46   23   53 1   
    47   23   69 1   
    48   25   26 1   
    49   25   54 1   
    50   25   55 1   
    51   26   27 1   
    52   26   56 1   
    53   26   57 1   
    54   27   29 1   
    55   27   58 1   
    56   27   59 1   
    57   28   60 1   
    58   29   30 1   
    59   29   34 1   
    60   30   31 1   
    61   30   61 1   
    62   30   62 1   
    63   31   32 1   
    64   31   63 1   
    65   31   64 1   
    66   32   33 1   
    67   33   34 1   
    68   33   65 1   
    69   33   66 1   
    70   34   67 1   
    71   34   68 1   
@<TRIPOS>SUBSTRUCTURE
     1 03I         1 TEMP              0 ****  ****    0 ROOT
