@<TRIPOS>MOLECULE
03I
   69    71     1     0     0
SMALL
bcc


@<TRIPOS>ATOM
      1 C1         -0.5800    0.0750   -0.0220 cp        1 03I     -0.107000
      2 C2          0.8220   -0.0160   -0.0570 ca        1 03I     -0.075500
      3 C3          1.5620   -0.0380    1.1150 ca        1 03I     -0.182500
      4 C4          0.8960    0.0380    2.3560 ca        1 03I      0.152100
      5 C5         -0.5000    0.1340    2.4060 ca        1 03I     -0.182500
      6 C6         -1.2270    0.1490    1.2180 ca        1 03I     -0.075500
      7 O7          1.7240    0.0100    3.4540 os        1 03I     -0.322900
      8 C8         -1.3480    0.0950   -1.2620 cp        1 03I      0.008000
      9 C9         -0.8790    0.8010   -2.3810 ca        1 03I     -0.118500
     10 C10        -1.6110    0.8190   -3.5650 ca        1 03I     -0.128000
     11 C11        -2.8280    0.1330   -3.6550 ca        1 03I     -0.134300
     12 C12        -3.3030   -0.5660   -2.5400 ca        1 03I     -0.128000
     13 C13        -2.5720   -0.5870   -1.3570 ca        1 03I     -0.118500
     14 C14        -3.6230    0.1810   -4.9130 c3        1 03I     -0.050100
     15 C15        -4.0110   -1.2130   -5.3840 c3        1 03I     -0.065400
     16 C16        -3.8540   -1.4310   -6.8960 c3        1 03I     -0.260200
     17 C17        -4.2770   -2.8450   -7.1690 c         1 03I      0.575100
     18 S18        -2.1360   -1.1360   -7.4980 s6        1 03I      1.340000
     19 C19        -1.2000   -1.6700   -6.2530 c3        1 03I     -0.433300
     20 O20        -2.1160   -2.0360   -8.5820 o         1 03I     -0.635300
     21 O21        -2.0070    0.2170   -7.7490 o         1 03I     -0.635300
     22 C22        -4.7390   -0.4460   -7.6440 c3        1 03I     -0.114100
     23 N23        -4.6070   -3.1950   -8.6270 n4        1 03I     -0.464300
     24 O24        -4.3680   -3.7860   -6.4000 o         1 03I     -0.408100
     25 C25         1.0800    0.0940    4.7350 c3        1 03I      0.127400
     26 C26         2.2030    0.0340    5.7570 c3        1 03I     -0.089400
     27 C27         1.6140    0.2310    7.1520 c3        1 03I      0.173800
     28 O28        -5.2360   -4.3790   -8.7810 oh        1 03I     -0.356300
     29 N29         2.5550   -0.0580    8.2260 n3        1 03I     -0.724600
     30 C30         1.8910   -0.0630    9.5260 c3        1 03I      0.130300
     31 C31         2.8700   -0.2820   10.6850 c3        1 03I      0.126400
     32 O32         3.9500    0.6420   10.6390 os        1 03I     -0.411600
     33 C33         4.6530    0.5800    9.4050 c3        1 03I      0.126400
     34 C34         3.7230    0.8140    8.2090 c3        1 03I      0.130300
     35 H2          1.3410   -0.0790   -1.0250 ha        1 03I      0.134000
     36 H3          2.6590   -0.1140    1.0970 ha        1 03I      0.151500
     37 H5         -1.0310    0.2010    3.3660 ha        1 03I      0.151500
     38 H6         -2.3240    0.2330    1.2590 ha        1 03I      0.134000
     39 H9          0.0680    1.3590   -2.3150 ha        1 03I      0.149000
     40 H10        -1.2400    1.4010   -4.4230 ha        1 03I      0.132500
     41 H12        -4.2670   -1.0950   -2.5960 ha        1 03I      0.132500
     42 H13        -2.9540   -1.1430   -0.4860 ha        1 03I      0.149000
     43 H14        -4.5580    0.7800   -4.7290 hc        1 03I      0.070200
     44 H14A       -3.0440    0.7330   -5.7040 hc        1 03I      0.070200
     45 H15        -5.0830   -1.4030   -5.1090 hc        1 03I      0.076200
     46 H15A       -3.4020   -1.9900   -4.8450 hc        1 03I      0.076200
     47 H19        -0.1030   -1.6520   -6.5150 h1        1 03I      0.165700
     48 H19A       -1.2710   -1.0400   -5.3150 h1        1 03I      0.165700
     49 H19B       -1.3910   -2.7210   -5.9140 h1        1 03I      0.165700
     50 H22        -5.8220   -0.6710   -7.4860 hc        1 03I      0.080700
     51 H22A       -4.5080   -0.4390   -8.7390 hc        1 03I      0.080700
     52 H22B       -4.5550    0.5940   -7.2610 hc        1 03I      0.080700
     53 HN23       -5.2550   -2.4830   -9.0200 hn        1 03I      0.504300
     54 H25         0.5150    1.0600    4.8050 h1        1 03I      0.042700
     55 H25A        0.3740   -0.7690    4.8550 h1        1 03I      0.042700
     56 H26         2.9540    0.8350    5.5290 hc        1 03I      0.068200
     57 H26A        2.7280   -0.9530    5.6790 hc        1 03I      0.068200
     58 H27         1.2090    1.2850    7.2220 h1        1 03I      0.032200
     59 H27A        0.7430   -0.4740    7.2770 h1        1 03I      0.032200
     60 HO28       -4.8800   -5.0260   -8.1230 ho        1 03I      0.483000
     61 H30         1.1440   -0.9040    9.5270 h1        1 03I      0.040950
     62 H30A        1.3320    0.9010    9.7100 h1        1 03I      0.040950
     63 H31         2.3630   -0.0730   11.6620 h1        1 03I      0.056450
     64 H31A        3.2700   -1.3310   10.6730 h1        1 03I      0.056450
     65 H33         5.4100    1.4050    9.4710 h1        1 03I      0.056450
     66 H33A        5.1700   -0.4120    9.3160 h1        1 03I      0.056450
     67 H34         4.2980    0.5960    7.2670 h1        1 03I      0.040950
     68 H34A        3.4260    1.9030    8.1950 h1        1 03I      0.040950
     69 H232       -3.7170   -3.1880   -9.1870 hn        1 03I      0.504300
@<TRIPOS>BOND
     1    1    2 ar  
     2    1    6 ar  
     3    1    8 1   
     4    2    3 ar  
     5    2   35 1   
     6    3    4 ar  
     7    3   36 1   
     8    4    5 ar  
     9    4    7 1   
    10    5    6 ar  
    11    5   37 1   
    12    6   38 1   
    13    7   25 1   
    14    8    9 ar  
    15    8   13 ar  
    16    9   10 ar  
    17    9   39 1   
    18   10   11 ar  
    19   10   40 1   
    20   11   12 ar  
    21   11   14 1   
    22   12   13 ar  
    23   12   41 1   
    24   13   42 1   
    25   14   15 1   
    26   14   43 1   
    27   14   44 1   
    28   15   16 1   
    29   15   45 1   
    30   15   46 1   
    31   16   17 1   
    32   16   18 1   
    33   16   22 1   
    34   17   23 1   
    35   17   24 2   
    36   18   19 1   
    37   18   20 2   
    38   18   21 2   
    39   19   47 1   
    40   19   48 1   
    41   19   49 1   
    42   22   50 1   
    43   22   51 1   
    44   22   52 1   
    45   23   28 1   
    46   23   53 1   
    47   23   69 1   
    48   25   26 1   
    49   25   54 1   
    50   25   55 1   
    51   26   27 1   
    52   26   56 1   
    53   26   57 1   
    54   27   29 1   
    55   27   58 1   
    56   27   59 1   
    57   28   60 1   
    58   29   30 1   
    59   29   34 1   
    60   30   31 1   
    61   30   61 1   
    62   30   62 1   
    63   31   32 1   
    64   31   63 1   
    65   31   64 1   
    66   32   33 1   
    67   33   34 1   
    68   33   65 1   
    69   33   66 1   
    70   34   67 1   
    71   34   68 1   
@<TRIPOS>SUBSTRUCTURE
     1 03I         1 TEMP              0 ****  ****    0 ROOT
