@<TRIPOS>MOLECULE
03I
   68    70     1     0     0
SMALL
bcc


@<TRIPOS>ATOM
      1 C1         -1.0550    0.4330   -0.2300 cp        1 03I     -0.074000
      2 C2         -1.5730    1.2780    0.7670 ca        1 03I     -0.084500
      3 C3         -2.9350    1.3180    1.0290 ca        1 03I     -0.182000
      4 C4         -3.8060    0.5030    0.2800 ca        1 03I      0.131100
      5 C5         -3.3070   -0.3420   -0.7170 ca        1 03I     -0.182000
      6 C6         -1.9350   -0.3710   -0.9630 ca        1 03I     -0.084500
      7 O7         -5.1390    0.6240    0.6180 os        1 03I     -0.328900
      8 C8          0.3810    0.3980   -0.4950 cp        1 03I     -0.029000
      9 C9          1.1370    1.5780   -0.4870 ca        1 03I     -0.121500
     10 C10         2.5050    1.5440   -0.7410 ca        1 03I     -0.124500
     11 C11         3.1460    0.3290   -1.0080 ca        1 03I     -0.084300
     12 C12         2.3930   -0.8510   -1.0190 ca        1 03I     -0.124500
     13 C13         1.0250   -0.8190   -0.7650 ca        1 03I     -0.121500
     14 C14         4.6070    0.2950   -1.2970 c3        1 03I     -0.050100
     15 C15         5.3590   -0.4020   -0.1770 c3        1 03I     -0.054400
     16 C16         6.8850   -0.3450   -0.2960 c3        1 03I     -0.298200
     17 C17         7.4590   -1.5430    0.4610 c         1 03I      0.615100
     18 S18         7.4940    1.2300    0.2350 s6        1 03I      1.316000
     19 C19         7.1480    1.2000    1.8800 c3        1 03I     -0.379300
     20 O20         8.8820    1.2440    0.0230 o         1 03I     -0.646300
     21 O21         6.7610    2.2470   -0.3870 o         1 03I     -0.646300
     22 C22         7.3200   -0.5120   -1.7470 c3        1 03I     -0.089100
     23 N23         8.8020   -1.4340    0.9360 n         1 03I     -0.371400
     24 O24         6.7810   -2.5350    0.7630 o         1 03I     -0.541100
     25 C25        -6.0480   -0.2070   -0.1160 c3        1 03I      0.128400
     26 C26        -7.4250    0.0970    0.4500 c3        1 03I     -0.088400
     27 C27        -8.4730   -0.6600   -0.3620 c3        1 03I      0.172800
     28 O28         9.3840   -2.6000    1.2170 oh        1 03I     -0.423100
     29 N29        -9.8020   -0.6410    0.2340 n3        1 03I     -0.723600
     30 C30       -10.7170   -1.5250   -0.4820 c3        1 03I      0.130800
     31 C31       -12.1440   -1.4680    0.0750 c3        1 03I      0.126400
     32 O32       -12.6310   -0.1330    0.1360 os        1 03I     -0.415600
     33 C33       -11.7820    0.7100    0.9050 c3        1 03I      0.126400
     34 C34       -10.3430    0.7040    0.3790 c3        1 03I      0.130800
     35 H2         -0.8880    1.9100    1.3530 ha        1 03I      0.137000
     36 H3         -3.3460    1.9740    1.8100 ha        1 03I      0.143500
     37 H5         -3.9760   -0.9810   -1.3090 ha        1 03I      0.143500
     38 H6         -1.5420   -1.0320   -1.7510 ha        1 03I      0.137000
     39 H9          0.6420    2.5410   -0.2870 ha        1 03I      0.135500
     40 H10         3.0860    2.4790   -0.7370 ha        1 03I      0.137000
     41 H12         2.8880   -1.8120   -1.2280 ha        1 03I      0.137000
     42 H13         0.4460   -1.7540   -0.7690 ha        1 03I      0.135500
     43 H14         4.7730   -0.2590   -2.2600 hc        1 03I      0.068200
     44 H14A        4.9930    1.3420   -1.4370 hc        1 03I      0.068200
     45 H15         5.0650    0.0490    0.8090 hc        1 03I      0.067200
     46 H15A        5.0290   -1.4780   -0.1540 hc        1 03I      0.067200
     47 H19         6.8730    0.1980    2.2940 h1        1 03I      0.131033
     48 H19A        8.0280    1.5400    2.4880 h1        1 03I      0.131033
     49 H19B        6.3010    1.8840    2.1460 h1        1 03I      0.131033
     50 H22         6.9700    0.3590   -2.3560 hc        1 03I      0.066033
     51 H22A        8.4350   -0.5720   -1.8170 hc        1 03I      0.066033
     52 H22B        6.8830   -1.4450   -2.1780 hc        1 03I      0.066033
     53 HN23        9.4220   -0.9170    0.3140 hn        1 03I      0.331500
     54 H25        -5.9910    0.0500   -1.2060 h1        1 03I      0.040200
     55 H25A       -5.7760   -1.2850    0.0330 h1        1 03I      0.040200
     56 H26        -7.4610   -0.2040    1.5290 hc        1 03I      0.065700
     57 H26A       -7.6090    1.2010    0.4020 hc        1 03I      0.065700
     58 H27        -8.4810   -0.2410   -1.4120 h1        1 03I      0.032700
     59 H27A       -8.1600   -1.7420   -0.4330 h1        1 03I      0.032700
     60 HO28        8.9650   -2.9200    2.0420 ho        1 03I      0.433000
     61 H30       -10.7540   -1.2790   -1.5830 h1        1 03I      0.041200
     62 H30A      -10.3330   -2.5770   -0.3730 h1        1 03I      0.041200
     63 H31       -12.8500   -1.9930   -0.6210 h1        1 03I      0.054450
     64 H31A      -12.1900   -1.9320    1.0950 h1        1 03I      0.054450
     65 H33       -12.2290    1.7320    0.7940 h1        1 03I      0.054450
     66 H33A      -11.8120    0.3900    1.9800 h1        1 03I      0.054450
     67 H34        -9.6960    1.2550    1.1160 h1        1 03I      0.041200
     68 H34A      -10.3180    1.2690   -0.5990 h1        1 03I      0.041200
@<TRIPOS>BOND
     1    1    2 ar  
     2    1    6 ar  
     3    1    8 1   
     4    2    3 ar  
     5    2   35 1   
     6    3    4 ar  
     7    3   36 1   
     8    4    5 ar  
     9    4    7 1   
    10    5    6 ar  
    11    5   37 1   
    12    6   38 1   
    13    7   25 1   
    14    8    9 ar  
    15    8   13 ar  
    16    9   10 ar  
    17    9   39 1   
    18   10   11 ar  
    19   10   40 1   
    20   11   12 ar  
    21   11   14 1   
    22   12   13 ar  
    23   12   41 1   
    24   13   42 1   
    25   14   15 1   
    26   14   43 1   
    27   14   44 1   
    28   15   16 1   
    29   15   45 1   
    30   15   46 1   
    31   16   17 1   
    32   16   18 1   
    33   16   22 1   
    34   17   23 1   
    35   17   24 2   
    36   18   19 1   
    37   18   20 2   
    38   18   21 2   
    39   19   47 1   
    40   19   48 1   
    41   19   49 1   
    42   22   50 1   
    43   22   51 1   
    44   22   52 1   
    45   23   28 1   
    46   23   53 1   
    47   25   26 1   
    48   25   54 1   
    49   25   55 1   
    50   26   27 1   
    51   26   56 1   
    52   26   57 1   
    53   27   29 1   
    54   27   58 1   
    55   27   59 1   
    56   28   60 1   
    57   29   30 1   
    58   29   34 1   
    59   30   31 1   
    60   30   61 1   
    61   30   62 1   
    62   31   32 1   
    63   31   63 1   
    64   31   64 1   
    65   32   33 1   
    66   33   34 1   
    67   33   65 1   
    68   33   66 1   
    69   34   67 1   
    70   34   68 1   
@<TRIPOS>SUBSTRUCTURE
     1 03I         1 TEMP              0 ****  ****    0 ROOT
