@<TRIPOS>MOLECULE
03I
   68    64     1     0     0
SMALL
bcc


@<TRIPOS>ATOM
      1 C1          0.0020   -1.2380    0.3120 c1        1 03I     -0.075000
      2 C2          1.3920   -1.2400    0.3110 c1        1 03I     -0.144000
      3 C3          2.0850   -1.2200    1.5090 c1        1 03I     -0.144000
      4 C4          1.3830   -1.1980    2.7250 c1        1 03I      0.087000
      5 C5         -0.0040   -1.1960    2.7230 c1        1 03I     -0.158000
      6 C6         -0.6970   -1.2160    1.5260 c1        1 03I     -0.086000
      7 O7          2.0890   -1.2640    3.9540 os        1 03I     -0.212000
      8 C8         -0.7490   -1.2090   -0.9910 c2        1 03I     -0.027000
      9 C9         -1.1210   -2.4060   -1.6100 c2        1 03I     -0.120000
     10 C10        -1.8140   -2.3800   -2.8200 c1        1 03I     -0.124000
     11 C11        -2.1390   -1.1500   -3.4200 c1        1 03I     -0.080000
     12 C12        -1.7670    0.0470   -2.8010 c1        1 03I     -0.123000
     13 C13        -1.0720    0.0190   -1.5880 c1        1 03I     -0.118000
     14 C14        -2.8320   -1.1300   -4.8410 c3        1 03I     -0.114000
     15 C15        -3.9470   -0.0900   -4.8560 c3        1 03I     -0.148000
     16 C16        -4.4510    0.1020   -6.2960 c3        1 03I     -0.689000
     17 C17        -3.3120    0.6410   -7.1610 c2        1 03I      0.271000
     18 S18        -5.7900    1.2720   -6.3030 s4        1 03I      2.010800
     19 C19        -6.8080    1.0590   -7.7670 c2        1 03I     -0.962000
     20 O20        -5.2800    2.6700   -6.2000 o         1 03I     -0.521900
     21 O21        -6.5600    1.1710   -5.1280 o         1 03I     -0.521900
     22 C22        -4.9210   -1.2100   -6.8370 c3        1 03I     -0.218000
     23 N23        -2.5120   -0.2570   -7.9370 n         1 03I     -0.182000
     24 O24        -3.1320    1.8780   -7.2520 o         1 03I     -0.331000
     25 C25         2.7680   -0.0910    4.2800 c3        1 03I     -0.022000
     26 C26         3.2180   -0.1470    5.7910 c3        1 03I     -0.167000
     27 C27         4.6000    0.4390    5.9260 c3        1 03I     -0.064000
     28 O28        -1.9760    0.1580   -9.1320 oh        1 03I     -0.239000
     29 N29         4.7950    0.9280    7.3430 n3        1 03I     -0.249000
     30 C30         6.0040    0.3620    7.8860 c3        1 03I     -0.106000
     31 C31         6.3380    0.9140    9.2540 c3        1 03I     -0.024000
     32 O32         6.3390    2.3480    9.2810 os        1 03I     -0.272000
     33 C33         5.1410    2.9100    8.7490 c3        1 03I     -0.024000
     34 C34         4.7980    2.3520    7.3660 c3        1 03I     -0.106000
     35 H2          1.8770   -1.2550   -0.5310 ha        1 03I      0.136500
     36 H3          3.0780   -1.2220    1.5080 ha        1 03I      0.136500
     37 H5         -0.4780   -1.1810    3.5440 ha        1 03I      0.150000
     38 H6         -1.6990   -1.2140    1.5280 ha        1 03I      0.138000
     39 H9         -0.8950   -3.2630   -1.1940 ha        1 03I      0.135000
     40 H10        -2.0720   -3.2110   -3.2480 ha        1 03I      0.130000
     41 H12        -2.0000    0.9380   -3.2330 ha        1 03I      0.137000
     42 H13        -0.8010    0.8870   -1.1400 ha        1 03I      0.137000
     43 H14        -3.2310   -2.0680   -5.0410 hc        1 03I      0.095000
     44 H14A       -2.1760   -0.9080   -5.5160 hc        1 03I      0.095000
     45 H15        -3.6040    0.7620   -4.5160 hc        1 03I      0.118000
     46 H15A       -4.6950   -0.4000   -4.2810 hc        1 03I      0.118000
     47 H19        -6.7320    1.8670   -8.3460 ha        1 03I      0.169333
     48 H19A       -6.4990    0.2560   -8.2730 ha        1 03I      0.169333
     49 H19B       -7.7380    0.9380   -7.5020 ha        1 03I      0.169333
     50 H22        -5.8880   -1.3070   -6.6690 hc        1 03I      0.100333
     51 H22A       -4.4200   -1.9630   -6.3770 hc        1 03I      0.100333
     52 H22B       -4.7540   -1.2460   -7.7860 hc        1 03I      0.100333
     53 HN23       -2.3390   -1.0890   -7.6290 hn        1 03I      0.221000
     54 H25         3.5410   -0.0050    3.7210 h1        1 03I      0.079500
     55 H25A        2.1860    0.6670    4.1440 h1        1 03I      0.079500
     56 H26         3.2260   -1.0530    6.0860 hc        1 03I      0.105000
     57 H26A        2.5620    0.3950    6.3670 hc        1 03I      0.105000
     58 H27         5.2830   -0.2590    5.7170 h1        1 03I      0.072000
     59 H27A        4.7000    1.2010    5.2930 h1        1 03I      0.072000
     60 HO28       -1.1010    0.0100   -9.1310 ho        1 03I      0.239000
     61 H30         5.8950   -0.6220    7.9540 h1        1 03I      0.080750
     62 H30A        6.7590    0.5630    7.2680 h1        1 03I      0.080750
     63 H31         5.6500    0.5650    9.9340 h1        1 03I      0.093500
     64 H31A        7.2470    0.5870    9.5200 h1        1 03I      0.093500
     65 H33         4.4240    2.7230    9.3430 h1        1 03I      0.093500
     66 H33A        5.2560    3.9190    8.6780 h1        1 03I      0.093500
     67 H34         3.9010    2.6800    7.1030 h1        1 03I      0.080750
     68 H34A        5.4680    2.6840    6.7070 h1        1 03I      0.080750
@<TRIPOS>BOND
     1    1    6 1   
     2    1    8 1   
     3    2    3 1   
     4    2   35 1   
     5    3   36 1   
     6    4    5 1   
     7    4    7 1   
     8    5   37 1   
     9    6   38 1   
    10    7   25 1   
    11    8    9 1   
    12    8   13 1   
    13    9   10 1   
    14    9   39 1   
    15   10   40 1   
    16   11   12 1   
    17   11   14 1   
    18   12   41 1   
    19   13   42 1   
    20   14   15 1   
    21   14   43 1   
    22   14   44 1   
    23   15   16 1   
    24   15   45 1   
    25   15   46 1   
    26   16   17 1   
    27   16   18 1   
    28   16   22 1   
    29   17   23 1   
    30   17   24 1   
    31   18   20 1   
    32   18   21 1   
    33   19   47 1   
    34   19   48 1   
    35   19   49 1   
    36   22   50 1   
    37   22   51 1   
    38   22   52 1   
    39   23   28 1   
    40   23   53 1   
    41   25   26 1   
    42   25   54 1   
    43   25   55 1   
    44   26   27 1   
    45   26   56 1   
    46   26   57 1   
    47   27   29 1   
    48   27   58 1   
    49   27   59 1   
    50   28   60 1   
    51   29   30 1   
    52   29   34 1   
    53   30   31 1   
    54   30   61 1   
    55   30   62 1   
    56   31   32 1   
    57   31   63 1   
    58   31   64 1   
    59   32   33 1   
    60   33   34 1   
    61   33   65 1   
    62   33   66 1   
    63   34   67 1   
    64   34   68 1   
@<TRIPOS>SUBSTRUCTURE
     1 03I         1 TEMP              0 ****  ****    0 ROOT
