@<TRIPOS>MOLECULE
03J
   37    35     1     0     0
SMALL
bcc


@<TRIPOS>ATOM
      1 O2         -0.5840   -0.4020    0.5950 o         1 03J     -0.214500
      2 S7          4.5020    0.1630    6.5620 ss        1 03J      0.599000
      3 C11         0.3980   -0.0280    0.0380 c1        1 03J      0.429000
      4 C12         2.4450   -3.1290    2.9810 c3        1 03J     -0.159000
      5 C13         2.0330   -1.7720    2.5510 c2        1 03J     -0.130000
      6 C14         0.1820    4.1710    1.9670 c1        1 03J     -0.248000
      7 C15         2.8650    1.3870    4.1540 c1        1 03J     -0.458000
      8 C16         2.8770    2.0050    5.3020 c2        1 03J     -0.106000
      9 C17         0.8800    3.3880    2.5430 c1        1 03J     -0.248000
     10 C18         3.6320    1.6110    6.4660 c2        1 03J     -0.245000
     11 C19         3.7550    2.3280    7.6450 c2        1 03J     -0.207000
     12 C20         4.5800    1.6500    8.6030 c2        1 03J     -0.032000
     13 C21         4.8680    2.1550    9.8700 c1        1 03J     -0.014000
     14 C22         6.9230    0.4410   12.2420 c2        1 03J     -0.204000
     15 C23         6.8680    1.3510   13.2180 c2        1 03J     -0.137000
     16 C24         6.1400    2.5970   13.2050 c2        1 03J     -0.149000
     17 C25         5.3840    3.1240   12.2230 c2        1 03J     -0.014000
     18 C26         5.1210    2.5830   10.9650 c1        1 03J     -0.203000
     19 C27         2.6210   -0.6710    2.9020 c1        1 03J     -0.408000
     20 C28         3.2010    0.4860    3.1960 c2        1 03J      0.101000
     21 C29         5.0480    0.4410    8.1010 c2        1 03J     -0.485000
     22 H12         1.6110   -3.6300    3.5340 hc        1 03J      0.049000
     23 H12A        2.6960   -3.7610    2.0920 hc        1 03J      0.049000
     24 H13         3.3380   -3.0930    3.6500 hc        1 03J      0.049000
     25 H13A        1.1450   -1.7640    1.8890 ha        1 03J      0.057000
     26 H14        -0.4360    4.8630    1.4590 ha        1 03J      0.239000
     27 H15         1.5120    2.6790    3.0640 ha        1 03J      0.239000
     28 H17         2.2780    2.9210    5.4630 ha        1 03J      0.089000
     29 H19         3.2870    3.2930    7.8370 ha        1 03J      0.146000
     30 H22         6.3950    0.5500   11.2840 ha        1 03J      0.119000
     31 H23         7.5090   -0.4810   12.3490 ha        1 03J      0.119000
     32 H24         7.4270    1.1700   14.1560 ha        1 03J      0.102000
     33 H25         6.2330    3.1790   14.1410 ha        1 03J      0.109000
     34 H26         4.8960    4.1050   12.4000 ha        1 03J      0.123000
     35 H28         4.0280    0.8100    2.5220 ha        1 03J      0.106000
     36 H29         5.6910   -0.2470    8.6450 h4        1 03J      0.153000
     37 OXT         1.3450    0.3440   -0.5800 o         1 03J     -0.214500
@<TRIPOS>BOND
     1    1    3 1   
     2    2   10 1   
     3    2   21 1   
     4    3   37 1   
     5    4    5 1   
     6    4   22 1   
     7    4   23 1   
     8    4   24 1   
     9    5   19 1   
    10    5   25 1   
    11    6    9 1   
    12    6   26 1   
    13    7    8 1   
    14    7   20 1   
    15    8   10 1   
    16    8   28 1   
    17    9   27 1   
    18   10   11 1   
    19   11   12 1   
    20   11   29 1   
    21   12   13 1   
    22   12   21 1   
    23   13   18 1   
    24   14   15 1   
    25   14   30 1   
    26   14   31 1   
    27   15   16 1   
    28   15   32 1   
    29   16   17 1   
    30   16   33 1   
    31   17   18 1   
    32   17   34 1   
    33   19   20 1   
    34   20   35 1   
    35   21   36 1   
@<TRIPOS>SUBSTRUCTURE
     1 03J         1 TEMP              0 ****  ****    0 ROOT
