@<TRIPOS>MOLECULE
03J
   37    35     1     0     0
SMALL
bcc


@<TRIPOS>ATOM
      1 O2         -0.7160   -0.4430    0.6930 o         1 03J     -0.214500
      2 S7          4.5270    0.1910    6.5200 ss        1 03J      0.599000
      3 C11         0.2380   -0.0250    0.1180 c1        1 03J      0.429000
      4 C12         2.4580   -3.1080    2.9530 c3        1 03J     -0.159000
      5 C13         1.9900   -1.7590    2.5600 c2        1 03J     -0.130000
      6 C14        -0.0700    4.1280    2.1370 c1        1 03J     -0.248000
      7 C15         2.7730    1.3990    4.1870 c1        1 03J     -0.458000
      8 C16         2.8040    2.0000    5.3450 c2        1 03J     -0.106000
      9 C17         0.6720    3.3590    2.6770 c1        1 03J     -0.248000
     10 C18         3.6090    1.6110    6.4770 c2        1 03J     -0.245000
     11 C19         3.7480    2.3130    7.6630 c2        1 03J     -0.207000
     12 C20         4.6250    1.6480    8.5820 c2        1 03J     -0.032000
     13 C21         4.9390    2.1410    9.8470 c1        1 03J     -0.014000
     14 C22         7.1260    0.4580   12.1220 c2        1 03J     -0.204000
     15 C23         7.0750    1.3510   13.1140 c2        1 03J     -0.137000
     16 C24         6.3070    2.5720   13.1460 c2        1 03J     -0.149000
     17 C25         5.5020    3.0900   12.1980 c2        1 03J     -0.014000
     18 C26         5.2150    2.5610   10.9410 c1        1 03J     -0.203000
     19 C27         2.5530   -0.6450    2.9090 c1        1 03J     -0.408000
     20 C28         3.1070    0.5250    3.2040 c2        1 03J      0.101000
     21 C29         5.1140    0.4620    8.0450 c2        1 03J     -0.485000
     22 H12         1.6600   -3.6450    3.5240 hc        1 03J      0.049000
     23 H12A        2.7000   -3.7180    2.0460 hc        1 03J      0.049000
     24 H13         3.3710   -3.0540    3.5930 hc        1 03J      0.049000
     25 H13A        1.0800   -1.7690    1.9260 ha        1 03J      0.057000
     26 H14        -0.7260    4.8070    1.6610 ha        1 03J      0.239000
     27 H15         1.3440    2.6640    3.1650 ha        1 03J      0.239000
     28 H17         2.1810    2.8930    5.5410 ha        1 03J      0.089000
     29 H19         3.2570    3.2600    7.8860 ha        1 03J      0.146000
     30 H22         6.5630    0.5650   11.1840 ha        1 03J      0.119000
     31 H23         7.7440   -0.4460   12.1940 ha        1 03J      0.119000
     32 H24         7.6690    1.1730   14.0300 ha        1 03J      0.102000
     33 H25         6.4120    3.1420   14.0880 ha        1 03J      0.109000
     34 H26         4.9890    4.0510   12.4070 ha        1 03J      0.123000
     35 H28         3.9000    0.8870    2.5100 ha        1 03J      0.106000
     36 H29         5.7970   -0.2130    8.5560 h4        1 03J      0.153000
     37 OXT         1.1540    0.3920   -0.5170 o         1 03J     -0.214500
@<TRIPOS>BOND
     1    1    3 1   
     2    2   10 1   
     3    2   21 1   
     4    3   37 1   
     5    4    5 1   
     6    4   22 1   
     7    4   23 1   
     8    4   24 1   
     9    5   19 1   
    10    5   25 1   
    11    6    9 1   
    12    6   26 1   
    13    7    8 1   
    14    7   20 1   
    15    8   10 1   
    16    8   28 1   
    17    9   27 1   
    18   10   11 1   
    19   11   12 1   
    20   11   29 1   
    21   12   13 1   
    22   12   21 1   
    23   13   18 1   
    24   14   15 1   
    25   14   30 1   
    26   14   31 1   
    27   15   16 1   
    28   15   32 1   
    29   16   17 1   
    30   16   33 1   
    31   17   18 1   
    32   17   34 1   
    33   19   20 1   
    34   20   35 1   
    35   21   36 1   
@<TRIPOS>SUBSTRUCTURE
     1 03J         1 TEMP              0 ****  ****    0 ROOT
