@<TRIPOS>MOLECULE
03J
   37    31     1     0     0
SMALL
bcc


@<TRIPOS>ATOM
      1 O2         -1.9840   -2.0150   -7.5140 o         1 03J     -0.581500
      2 S7          2.3050   -0.0610    0.6000 ss        1 03J      0.567000
      3 C11        -1.6940   -0.8390   -7.1690 c1        1 03J      0.328000
      4 C12        -0.9390   -0.5920   -5.8800 c2        1 03J     -0.222000
      5 C13        -1.9230   -0.4490   -4.7380 c3        1 03J     -0.131000
      6 C14        -0.8550    0.9030   -2.9090 c1        1 03J     -0.147000
      7 C15        -0.2560   -1.3900   -1.4700 c1        1 03J     -0.125000
      8 C16         0.0570   -0.1440   -0.9500 c1        1 03J     -0.057000
      9 C17        -0.2430    1.0030   -1.6700 c1        1 03J     -0.108000
     10 C18         0.7690   -0.0360    0.3820 c2        1 03J     -0.285000
     11 C19         0.1370    0.1490    1.6760 c1        1 03J     -0.157000
     12 C20         1.2800    0.2500    2.7810 c1        1 03J     -0.070000
     13 C21         1.0630    0.4550    4.2670 c1        1 03J      0.003000
     14 C22         0.9720   -0.6410    5.1120 c2        1 03J     -0.124000
     15 C23         0.8580   -0.4540    6.4810 c1        1 03J     -0.133000
     16 C24         0.8350    0.8280    7.0060 c1        1 03J     -0.135500
     17 C25         0.9260    1.9240    6.1620 c1        1 03J     -0.135500
     18 C26         1.0400    1.7380    4.7930 c1        1 03J     -0.121000
     19 C27        -1.1670   -0.3440   -3.4300 c2        1 03J     -0.015000
     20 C28        -0.8680   -1.4900   -2.7100 c2        1 03J     -0.131000
     21 C29         2.5660    0.1220    2.1200 c1        1 03J     -0.455000
     22 H12        -0.3420   -1.3460   -5.7020 ha        1 03J      0.065000
     23 H12A       -0.4140    0.2280   -5.9610 ha        1 03J      0.065000
     24 H13        -2.4600    0.3570   -4.8700 hc        1 03J      0.102000
     25 H13A       -2.5100   -1.2310   -4.7140 hc        1 03J      0.102000
     26 H14        -1.0660    1.7100   -3.4160 ha        1 03J      0.132000
     27 H15        -0.0450   -2.1970   -0.9630 ha        1 03J      0.119000
     28 H17        -0.0230    1.8810   -1.3040 ha        1 03J      0.119000
     29 H19        -0.8230    0.2030    1.8400 DU        1 03J      0.159500
     30 H22         0.9710   -1.5440    4.7410 ha        1 03J      0.132000
     31 H23         0.7920   -1.2270    7.0750 ha        1 03J      0.124000
     32 H24         0.7610    0.9600    7.9710 ha        1 03J      0.125500
     33 H25         0.9220    2.8280    6.5330 ha        1 03J      0.125500
     34 H26         1.0320    2.5490    4.2500 ha        1 03J      0.137000
     35 H28        -1.0720   -2.3680   -3.0830 ha        1 03J      0.148000
     36 H29         3.4400    0.1470    2.5540 DU        1 03J      0.159500
     37 OXT        -2.0410    0.1330   -7.8910 o         1 03J     -0.581500
@<TRIPOS>BOND
     1    1    3 1   
     2    2   10 1   
     3    2   21 1   
     4    3   37 1   
     5    4    5 1   
     6    4   22 1   
     7    4   23 1   
     8    5   19 1   
     9    5   24 1   
    10    5   25 1   
    11    6   19 1   
    12    6   26 1   
    13    7   20 1   
    14    7   27 1   
    15    8    9 1   
    16    8   10 1   
    17    9   28 1   
    18   10   11 1   
    19   11   12 1   
    20   12   21 1   
    21   13   14 1   
    22   13   18 1   
    23   14   15 1   
    24   14   30 1   
    25   15   31 1   
    26   16   17 1   
    27   16   32 1   
    28   17   33 1   
    29   18   34 1   
    30   19   20 1   
    31   20   35 1   
@<TRIPOS>SUBSTRUCTURE
     1 03J         1 TEMP              0 ****  ****    0 ROOT
