@<TRIPOS>MOLECULE
03J
   37    35     1     0     0
SMALL
bcc


@<TRIPOS>ATOM
      1 O2         -0.8600    0.2550   -1.2440 o         1 03J     -0.207500
      2 S7          4.5220   -1.3340    7.4420 ss        1 03J      0.272000
      3 C11        -0.1600   -0.6830   -1.4580 c1        1 03J      0.416000
      4 C12         2.3900   -2.3140    1.1930 c3        1 03J     -0.172000
      5 C13         1.4480   -1.8400    2.2300 c2        1 03J     -0.148000
      6 C14         2.3380    4.6780    6.4010 c1        1 03J     -0.324500
      7 C15         2.3380    0.6850    4.7350 c2        1 03J     -0.217000
      8 C16         3.0130   -0.2520    5.4360 c2        1 03J      0.003000
      9 C17         2.7950    3.6070    6.6990 c1        1 03J     -0.324500
     10 C18         3.6990   -0.0040    6.6590 c2        1 03J     -0.343000
     11 C19         3.8390    1.1510    7.3730 c1        1 03J     -0.270000
     12 C20         4.6230    0.9370    8.5620 c2        1 03J     -0.060000
     13 C21         4.9250    1.9440    9.4760 c1        1 03J      0.033000
     14 C22         6.8830    1.4330   12.4440 c2        1 03J     -0.222000
     15 C23         6.8400    2.6870   12.9020 c2        1 03J     -0.123000
     16 C24         6.1740    3.8120   12.2940 c2        1 03J     -0.183000
     17 C25         5.4600    3.8540   11.1510 c2        1 03J      0.017000
     18 C26         5.1910    2.8080   10.2720 c1        1 03J     -0.242000
     19 C27         1.5600   -0.7100    2.8660 c1        1 03J     -0.210000
     20 C28         1.6450    0.4350    3.4970 c2        1 03J     -0.029000
     21 C29         5.0470   -0.3800    8.6980 c2        1 03J     -0.377000
     22 H12         2.7710   -3.3320    1.4580 hc        1 03J      0.072333
     23 H12A        3.2660   -1.6290    1.0850 hc        1 03J      0.072333
     24 H13         1.8700   -2.3810    0.2030 hc        1 03J      0.072333
     25 H13A        0.6120   -2.5260    2.4550 ha        1 03J      0.113000
     26 H14         1.9350    5.6190    6.1390 ha        1 03J      0.257500
     27 H15         2.2990    1.7240    5.1130 ha        1 03J      0.163000
     28 H17         3.0530   -1.2920    5.0600 ha        1 03J      0.098000
     29 H19         3.2400    2.5730    6.9920 ha        1 03J      0.257500
     30 H22         6.3920    1.1170   11.5130 ha        1 03J      0.116000
     31 H23         7.4190    0.6420   12.9830 ha        1 03J      0.116000
     32 H24         7.3580    2.9320   13.8490 ha        1 03J      0.095000
     33 H25         6.2790    4.7550   12.8620 ha        1 03J      0.103000
     34 H26         5.0180    4.8230   10.8410 ha        1 03J      0.123000
     35 H28         1.1390    1.3170    3.0560 ha        1 03J      0.124000
     36 H29         5.6480   -0.7660    9.5170 h4        1 03J      0.139000
     37 OXT         0.5300   -1.6230   -1.6940 o         1 03J     -0.207500
@<TRIPOS>BOND
     1    1    3 1   
     2    2   10 1   
     3    2   21 1   
     4    3   37 1   
     5    4    5 1   
     6    4   22 1   
     7    4   23 1   
     8    4   24 1   
     9    5   19 1   
    10    5   25 1   
    11    6    9 1   
    12    6   26 1   
    13    7    8 1   
    14    7   20 1   
    15    7   27 1   
    16    8   10 1   
    17    8   28 1   
    18    9   29 1   
    19   10   11 1   
    20   11   12 1   
    21   12   13 1   
    22   12   21 1   
    23   13   18 1   
    24   14   15 1   
    25   14   30 1   
    26   14   31 1   
    27   15   16 1   
    28   15   32 1   
    29   16   17 1   
    30   16   33 1   
    31   17   18 1   
    32   17   34 1   
    33   19   20 1   
    34   20   35 1   
    35   21   36 1   
@<TRIPOS>SUBSTRUCTURE
     1 03J         1 TEMP              0 ****  ****    0 ROOT
