@<TRIPOS>MOLECULE
03J
   37    39     1     0     0
SMALL
bcc


@<TRIPOS>ATOM
      1 O2         -6.9560   -1.6170   -1.0010 o         1 03J     -0.846800
      2 S7          1.6020    2.1540    0.8030 ss        1 03J      0.020200
      3 C11        -6.8260   -0.9680    0.0770 c         1 03J      0.908600
      4 C12        -5.4210   -0.4640    0.4620 c3        1 03J     -0.193400
      5 C13        -4.6830    0.0530   -0.7530 c3        1 03J     -0.045100
      6 C14        -2.3970   -0.8800   -0.3220 ca        1 03J     -0.139000
      7 C15        -1.2900    1.6740   -0.2510 ca        1 03J     -0.116500
      8 C16        -0.4590    0.5580   -0.0660 ca        1 03J     -0.057000
      9 C17        -1.0330   -0.7240   -0.1030 ca        1 03J     -0.116500
     10 C18         0.9540    0.7290    0.1620 cc        1 03J     -0.014100
     11 C19         1.9540   -0.1930   -0.0840 cd        1 03J     -0.156000
     12 C20         3.2530    0.3110    0.2640 cd        1 03J     -0.069000
     13 C21         4.4760   -0.4480    0.1070 ca        1 03J      0.003000
     14 C22         5.6970    0.2060   -0.1180 ca        1 03J     -0.122500
     15 C23         6.8740   -0.5250   -0.2670 ca        1 03J     -0.132500
     16 C24         6.8490   -1.9170   -0.1930 ca        1 03J     -0.139000
     17 C25         5.6410   -2.5770    0.0310 ca        1 03J     -0.132500
     18 C26         4.4620   -1.8500    0.1800 ca        1 03J     -0.122500
     19 C27        -3.2270    0.2340   -0.5090 ca        1 03J     -0.023300
     20 C28        -2.6540    1.5120   -0.4690 ca        1 03J     -0.139000
     21 C29         3.1690    1.6020    0.7600 cc        1 03J     -0.183100
     22 H12        -5.5110    0.3360    1.2370 hc        1 03J      0.025700
     23 H12A       -4.8640   -1.3240    0.9130 hc        1 03J      0.025700
     24 H13        -4.8360   -0.6860   -1.5910 hc        1 03J      0.062700
     25 H13A       -5.1430    1.0230   -1.0790 hc        1 03J      0.062700
     26 H14        -2.8420   -1.8870   -0.3460 ha        1 03J      0.140500
     27 H15        -0.8560    2.6850   -0.2250 ha        1 03J      0.119500
     28 H17        -0.3960   -1.6070    0.0480 ha        1 03J      0.119500
     29 H19         1.7950   -1.1850   -0.5110 ha        1 03J      0.157000
     30 H22         5.7210    1.3040   -0.1840 ha        1 03J      0.134500
     31 H23         7.8240   -0.0010   -0.4460 ha        1 03J      0.125500
     32 H24         7.7780   -2.4930   -0.3110 ha        1 03J      0.124000
     33 H25         5.6160   -3.6750    0.0910 ha        1 03J      0.125500
     34 H26         3.5120   -2.3750    0.3620 ha        1 03J      0.134500
     35 H28        -3.2930    2.3970   -0.6110 ha        1 03J      0.140500
     36 H29         4.0140    2.1990    1.0970 h4        1 03J      0.164000
     37 OXT        -7.7740   -0.7180    0.8740 o         1 03J     -0.846800
@<TRIPOS>BOND
     1    1    3 1   
     2    2   10 1   
     3    2   21 1   
     4    3    4 1   
     5    3   37 1   
     6    4    5 1   
     7    4   22 1   
     8    4   23 1   
     9    5   19 1   
    10    5   24 1   
    11    5   25 1   
    12    6    9 ar  
    13    6   19 ar  
    14    6   26 1   
    15    7    8 ar  
    16    7   20 ar  
    17    7   27 1   
    18    8    9 ar  
    19    8   10 1   
    20    9   28 1   
    21   10   11 2   
    22   11   12 1   
    23   11   29 1   
    24   12   13 1   
    25   12   21 2   
    26   13   14 ar  
    27   13   18 ar  
    28   14   15 ar  
    29   14   30 1   
    30   15   16 ar  
    31   15   31 1   
    32   16   17 ar  
    33   16   32 1   
    34   17   18 ar  
    35   17   33 1   
    36   18   34 1   
    37   19   20 ar  
    38   20   35 1   
    39   21   36 1   
@<TRIPOS>SUBSTRUCTURE
     1 03J         1 TEMP              0 ****  ****    0 ROOT
