@<TRIPOS>MOLECULE
03K
   36    37     1     0     0
SMALL
bcc


@<TRIPOS>ATOM
      1 N1L       -75.8120   26.4750 -256.2050 n4        1 03K     -0.014000
      2 N2A       478.8440 -156.8540    0.7730 n3        1 03K     -0.265000
      3 N3K       -76.8780   25.6780 -259.4920 na        1 03K     -0.079000
      4 N4M       -77.1710   25.9980 -258.2540 n2        1 03K     -0.034000
      5 OAB       480.0570 -156.1320    0.7880 oh        1 03K      0.106000
      6 CAD       -77.0940   23.1770 -252.7550 c2        1 03K     -0.074000
      7 CAE       -78.7260   24.6980 -253.7990 c2        1 03K     -0.113000
      8 CAF       -76.3250   23.6930 -253.6970 c1        1 03K      0.014000
      9 CAG       -77.9290   24.8550 -254.8810 c2        1 03K     -0.165000
     10 CAH       -74.8580   25.8550 -258.5110 c2        1 03K     -0.175000
     11 CAI       -73.7870   26.1040 -261.4500 c3        1 03K     -0.217000
     12 CAJ       -76.0160   25.1340 -262.0590 c1        1 03K     -0.059000
     13 CAO       -75.4140   25.2640 -255.3520 c2        1 03K      0.341000
     14 CAP       -78.2830   24.0720 -252.5030 c3        1 03K     -0.130000
     15 CAQ       -76.4930   24.5580 -254.7090 c2        1 03K     -0.166000
     16 CAR       -75.9510   26.1220 -257.6000 c2        1 03K     -0.217000
     17 CAS       -75.4980   25.5720 -259.7320 c2        1 03K     -0.020000
     18 CAT       -74.9460   25.2010 -261.0650 c3        1 03K     -0.137000
     19 HN1L      -76.6910   26.8720 -255.8480 hn        1 03K      0.262500
     20 HN2A      -78.0950   24.8740 -251.7390 hc        1 03K      0.150000
     21 HN2B      479.3500 -157.0980    0.9300 DU        1 03K      0.346000
     22 HAD       -79.1040   23.4120 -252.1040 hc        1 03K      0.150000
     23 HAE       -79.7780   25.0300 -253.8170 ha        1 03K      0.167000
     24 HAF       -77.0060   22.2000 -252.2670 ha        1 03K      0.199000
     25 HAG       -78.3060   25.2040 -255.8510 ha        1 03K      0.163000
     26 HAH       -73.7940   25.8640 -258.2930 ha        1 03K      0.197000
     27 HAI       -72.9980   26.0820 -260.6610 hc        1 03K      0.099333
     28 HAIA      -74.5560   24.1300 -260.9800 hc        1 03K      0.170000
     29 HAJ       -73.3410   25.7560 -262.4130 hc        1 03K      0.099333
     30 HAJA      -74.1330   27.1590 -261.5760 hc        1 03K      0.099333
     31 HAT       -75.7140   25.0550 -263.1110 ha        1 03K      0.087000
     32 HN3K      -77.5890   25.5360 -260.1930 hn        1 03K      0.331000
     33 H1L2      -75.0660   27.1810 -256.1430 hn        1 03K      0.262500
     34 H2A3      477.8340 -156.9110    0.7750 hn        1 03K      0.346000
     35 CAN       479.4810 -156.4750    0.8310 c1        1 03K      0.466000
     36 OAC       -74.2090   25.0510 -255.3200 o         1 03K     -0.193000
@<TRIPOS>BOND
     1    1   13 1   
     2    1   16 1   
     3    1   19 1   
     4    1   33 1   
     5    2    5 1   
     6    2   21 1   
     7    2   34 1   
     8    3    4 1   
     9    3   17 1   
    10    3   32 1   
    11    4   16 1   
    12    5   21 1   
    13    6    8 1   
    14    6   14 1   
    15    6   24 1   
    16    7    9 1   
    17    7   14 1   
    18    7   23 1   
    19    8   15 1   
    20    9   15 1   
    21    9   25 1   
    22   10   16 1   
    23   10   17 1   
    24   10   26 1   
    25   11   18 1   
    26   11   27 1   
    27   11   29 1   
    28   11   30 1   
    29   12   18 1   
    30   12   31 1   
    31   13   15 1   
    32   13   36 1   
    33   14   20 1   
    34   14   22 1   
    35   17   18 1   
    36   18   28 1   
    37   21   35 1   
@<TRIPOS>SUBSTRUCTURE
     1 03K         1 TEMP              0 ****  ****    0 ROOT
