@<TRIPOS>MOLECULE
03K
   34    36     1     0     0
SMALL
bcc


@<TRIPOS>ATOM
      1 N1L        -0.7020   -0.5110   -0.1380 n         1 03K     -0.529400
      2 N2A         6.3460   -1.4000   -0.2200 n         1 03K     -0.673000
      3 N3K        -4.1320   -1.1970   -0.4390 na        1 03K     -0.013600
      4 N4M        -2.8650   -1.5870   -0.5390 nc        1 03K     -0.562800
      5 OAB         6.5780    0.8300    0.1410 o         1 03K     -0.601100
      6 OAC        -0.3760    1.6930    0.4850 o         1 03K     -0.576100
      7 CAD         3.7630    1.1610   -0.4410 ca        1 03K     -0.099500
      8 CAE         3.5220   -0.9950    0.6390 ca        1 03K     -0.099500
      9 CAF         2.3820    1.3370   -0.3990 ca        1 03K     -0.100500
     10 CAG         2.1400   -0.8190    0.6810 ca        1 03K     -0.100500
     11 CAH        -2.9670    0.6240    0.1740 cd        1 03K     -0.277300
     12 CAI        -6.7480    0.0920    0.7080 cx        1 03K     -0.127400
     13 CAJ        -6.7180    0.5530   -0.7170 cx        1 03K     -0.127400
     14 CAO         0.0920    0.5790    0.1900 c         1 03K      0.680700
     15 CAP         4.3350   -0.0120    0.0670 ca        1 03K     -0.119600
     16 CAQ         1.5670    0.3410    0.1520 ca        1 03K     -0.124600
     17 CAR        -2.0980   -0.4910   -0.1680 cd        1 03K      0.417200
     18 CAS        -4.2700    0.1310   -0.0140 cc        1 03K     -0.061600
     19 CAT        -5.5360    0.8230    0.1830 cx        1 03K     -0.062400
     20 HN1L       -0.2550   -1.3580   -0.4100 hn        1 03K      0.330500
     21 HN2A        7.3270   -1.5080   -0.2900 hn        1 03K      0.314500
     22 HN2B        5.7640   -2.1780   -0.3930 hn        1 03K      0.314500
     23 HAD         4.4160    1.9450   -0.8580 ha        1 03K      0.152000
     24 HAE         3.9620   -1.9030    1.0780 ha        1 03K      0.152000
     25 HAF         1.9240    2.2640   -0.7820 ha        1 03K      0.153000
     26 HAG         1.5120   -1.5910    1.1520 ha        1 03K      0.153000
     27 HAH        -2.6550    1.6120    0.4980 ha        1 03K      0.196000
     28 HAI        -7.4020    0.6130    1.4300 hc        1 03K      0.075200
     29 HAIA       -6.6750   -0.9870    0.9290 hc        1 03K      0.075200
     30 HAJ        -6.6220   -0.1940   -1.5250 hc        1 03K      0.075200
     31 HAJA       -7.3490    1.4060   -1.0230 hc        1 03K      0.075200
     32 HAT        -5.3720    1.8680    0.5240 hc        1 03K      0.104700
     33 HN3K       -4.8640   -1.8290   -0.6620 hn        1 03K      0.320700
     34 CAN         5.8190   -0.1520    0.0050 c         1 03K      0.667700
@<TRIPOS>BOND
     1    1   14 1   
     2    1   17 1   
     3    1   20 1   
     4    2   21 1   
     5    2   22 1   
     6    2   34 1   
     7    3    4 1   
     8    3   18 1   
     9    3   33 1   
    10    4   17 2   
    11    5   34 2   
    12    6   14 2   
    13    7    9 ar  
    14    7   15 ar  
    15    7   23 1   
    16    8   10 ar  
    17    8   15 ar  
    18    8   24 1   
    19    9   16 ar  
    20    9   25 1   
    21   10   16 ar  
    22   10   26 1   
    23   11   17 1   
    24   11   18 2   
    25   11   27 1   
    26   12   13 1   
    27   12   19 1   
    28   12   28 1   
    29   12   29 1   
    30   13   19 1   
    31   13   30 1   
    32   13   31 1   
    33   14   16 1   
    34   15   34 1   
    35   18   19 1   
    36   19   32 1   
@<TRIPOS>SUBSTRUCTURE
     1 03K         1 TEMP              0 ****  ****    0 ROOT
