@<TRIPOS>MOLECULE
03K
   35    52     1     0     0
SMALL
bcc


@<TRIPOS>ATOM
      1 N1L         0.0000    0.0000    0.0000 n7        1 03K      0.177000
      2 N2A         3.5400   -0.0000    6.1330 nz        1 03K     -0.108000
      3 N3K        -2.3000   -0.0070   -2.7200 n7        1 03K      0.114000
      4 N4M        -2.0050   -0.0050   -1.3500 n2        1 03K     -0.022000
      5 OAB         5.4290   -0.0080    4.9670 o         1 03K     -0.207000
      6 CAD         4.1730    0.0020    2.4760 c3        1 03K     -0.020000
      7 CAE         2.0780    0.0100    3.6840 c3        1 03K     -0.393000
      8 CAF         3.4830    0.0000    1.2820 c2        1 03K      0.098000
      9 CAG         1.3890    0.0020    2.4900 c2        1 03K     -0.106000
     10 CAH        -0.1280   -0.0080   -2.4960 c2        1 03K     -0.189000
     11 CAI        -2.1230    0.4500   -5.8130 DU        1 03K      0.336000
     12 CAJ        -2.0710   -1.0710   -5.6530 DU        1 03K      0.216000
     13 CAO         1.3480    0.0000    0.0000 c3        1 03K      0.109000
     14 CAP         3.4740    0.0030    3.6840 c3        1 03K     -0.060000
     15 CAQ         2.0880    0.0010    1.2820 c2        1 03K     -0.082000
     16 CAR        -0.6990   -0.0060   -1.2140 c2        1 03K     -0.147000
     17 CAS        -1.1340   -0.0140   -3.3990 c3        1 03K     -0.271000
     18 CAT        -1.0420   -0.1920   -4.9400 DU        1 03K      0.146000
     19 HN1L        0.6620    0.0580    0.7480 DU        1 03K      0.304000
     20 HN2A        3.3540   -0.0010    5.1490 DU        1 03K      0.215500
     21 HN2B        3.7870   -0.1680    5.1780 DU        1 03K     -0.591000
     22 HAD         3.9180    0.1800    3.5140 hc        1 03K      0.103000
     23 HAE         2.5800   -0.2750    4.6010 DU        1 03K      0.386000
     24 HAF         4.3830   -0.0010    1.8860 DU        1 03K      0.152000
     25 HAG         1.4630    0.0060    3.5710 DU        1 03K      0.329000
     26 HAH         0.7670   -0.0060   -1.8850 ha        1 03K      0.250000
     27 HAI        -1.8100    0.4770   -4.7760 DU        1 03K     -0.143000
     28 HAIA       -1.3560    0.3700   -5.0530 DU        1 03K     -0.143000
     29 HAJ        -1.9320   -0.1460   -6.1980 DU        1 03K     -0.044500
     30 HAJA       -2.4860   -0.0880   -5.4690 DU        1 03K     -0.044500
     31 HAT        -1.9170   -0.8300   -4.9770 DU        1 03K     -0.183000
     32 HN3K       -2.1500   -0.3050   -3.6630 DU        1 03K      0.329000
     33 H2A3        3.1950    0.0540    5.1950 DU        1 03K      0.215500
     34 CAN         4.2140   -0.0020    4.9660 DU        1 03K      0.543000
     35 OAC         1.9560   -0.0010   -1.0530 o         1 03K     -0.269000
@<TRIPOS>BOND
     1    1   13 1   
     2    1   16 1   
     3    1   19 1   
     4    2   20 1   
     5    2   21 1   
     6    2   33 1   
     7    2   34 1   
     8    3    4 1   
     9    3   17 1   
    10    3   32 1   
    11    4   16 1   
    12    5   34 1   
    13    6    8 1   
    14    6   14 1   
    15    6   22 1   
    16    6   24 1   
    17    7    9 1   
    18    7   14 1   
    19    7   23 1   
    20    7   25 1   
    21    8   15 1   
    22    8   24 1   
    23    9   15 1   
    24    9   25 1   
    25   10   16 1   
    26   10   17 1   
    27   10   26 1   
    28   11   12 1   
    29   11   18 1   
    30   11   27 1   
    31   11   28 1   
    32   11   29 1   
    33   11   30 1   
    34   12   18 1   
    35   12   29 1   
    36   12   30 1   
    37   12   31 1   
    38   13   15 1   
    39   13   19 1   
    40   13   35 1   
    41   14   23 1   
    42   14   34 1   
    43   17   18 1   
    44   17   32 1   
    45   18   27 1   
    46   18   28 1   
    47   18   31 1   
    48   20   21 1   
    49   20   34 1   
    50   21   33 1   
    51   27   28 1   
    52   33   34 1   
@<TRIPOS>SUBSTRUCTURE
     1 03K         1 TEMP              0 ****  ****    0 ROOT
