@<TRIPOS>MOLECULE
03K
   34    30     1     0     0
SMALL
bcc


@<TRIPOS>ATOM
      1 N1L        -0.7090   -0.0880   -0.0240 n         1 03K     -0.303000
      2 N2A         5.1660   -0.7390    4.9930 n         1 03K     -0.431000
      3 N3K        -2.1950   -1.2810   -3.0800 n2        1 03K     -0.159000
      4 N4M        -1.5440   -1.5010   -1.8880 n2        1 03K     -0.067000
      5 OAB         3.2320   -0.3160    6.1510 o         1 03K     -0.366000
      6 OAC         1.3070   -0.9110   -0.7570 o         1 03K     -0.309000
      7 CAD         2.4130   -1.5740    3.2390 c1        1 03K     -0.113000
      8 CAE         2.6440    0.8230    3.2200 c1        1 03K     -0.100500
      9 CAF         1.6040   -1.5050    2.1110 c1        1 03K     -0.089000
     10 CAG         1.8350    0.8920    2.0920 c1        1 03K     -0.100500
     11 CAH        -1.8520    0.6680   -2.1120 c1        1 03K     -0.256000
     12 CAI        -3.7430    2.0450   -4.1530 cx        1 03K     -0.200000
     13 CAJ        -4.5020    0.7780   -4.5120 cx        1 03K     -0.200000
     14 CAN         3.7640   -0.4800    5.0680 c2        1 03K      0.341000
     15 CAO         0.6680   -0.4340    0.1640 c2        1 03K      0.348000
     16 CAP         2.9340   -0.4100    3.7940 c1        1 03K     -0.102000
     17 CAQ         1.3140   -0.2720    1.5370 c1        1 03K     -0.105000
     18 CAR        -1.3350   -0.3020   -1.2960 c2        1 03K      0.008000
     19 CAS        -2.3830    0.0530   -3.2150 c1        1 03K     -0.022000
     20 CAT        -2.9840    0.7600   -4.4400 cu        1 03K     -0.120000
     21 HN1L       -1.1960    0.2530    0.6740 hn        1 03K      0.242000
     22 HN2A        5.6830   -0.6850    5.7480 hn        1 03K      0.228500
     23 HN2B        5.5460   -0.9780    4.1940 hn        1 03K      0.228500
     24 HAD         2.6170   -2.4450    3.6440 ha        1 03K      0.141000
     25 HAE         3.0120    1.6450    3.6120 ha        1 03K      0.152500
     26 HAF         1.2370   -2.3260    1.7190 ha        1 03K      0.159000
     27 HAG         1.6310    1.7620    1.6870 ha        1 03K      0.152500
     28 HAH        -1.8440    1.6330   -1.9380 DU        1 03K      0.220500
     29 HAI        -3.7020    2.7310   -4.8560 hc        1 03K      0.115750
     30 HAIA       -3.7850    2.3140   -3.2110 hc        1 03K      0.115750
     31 HAJ        -4.9690    0.3370   -3.7700 hc        1 03K      0.115750
     32 HAJA       -4.8860    0.7530   -5.4160 hc        1 03K      0.115750
     33 HAT        -2.5170    0.7250   -5.3030 ha        1 03K      0.138000
     34 HN3K       -2.4570   -1.9250   -3.6790 DU        1 03K      0.220500
@<TRIPOS>BOND
     1    1   15 1   
     2    1   18 1   
     3    1   21 1   
     4    2   14 1   
     5    2   22 1   
     6    2   23 1   
     7    3    4 1   
     8    3   19 1   
     9    4   18 1   
    10    5   14 1   
    11    6   15 1   
    12    7   16 1   
    13    7   24 1   
    14    8   10 1   
    15    8   25 1   
    16    9   17 1   
    17    9   26 1   
    18   10   27 1   
    19   11   18 1   
    20   11   19 1   
    21   12   13 1   
    22   12   20 1   
    23   12   29 1   
    24   12   30 1   
    25   13   20 1   
    26   13   31 1   
    27   13   32 1   
    28   14   16 1   
    29   15   17 1   
    30   20   33 1   
@<TRIPOS>SUBSTRUCTURE
     1 03K         1 TEMP              0 ****  ****    0 ROOT
