@<TRIPOS>MOLECULE
03L
   43    46     1     0     0
SMALL
bcc


@<TRIPOS>ATOM
      1 OAA        -0.9820    0.7970    4.4080 o         1 03L     -0.232000
      2 OAB         3.1060    2.8810    1.4390 o         1 03L     -0.345000
      3 OAC        -1.2190   -0.6080    2.6370 os        1 03L     -0.172000
      4 CAF        -0.5850   -0.9270    1.5180 c1        1 03L      0.159000
      5 CAG         2.9740    1.1250    3.7310 cx        1 03L     -0.168500
      6 CAH         0.6780    7.2330    6.0330 c1        1 03L      0.285000
      7 CAI         0.1900    6.1940    5.3720 c2        1 03L     -0.415000
      8 CAJ        -0.8360    5.2400    5.9450 c3        1 03L     -0.077000
      9 CAK         0.6830   -0.0880    1.4550 c2        1 03L     -0.216000
     10 CAL         1.9620    1.9400    4.4640 cx        1 03L     -0.168500
     11 CAM        -4.0510    1.8930    7.2320 c1        1 03L     -0.055000
     12 CAN        -5.9580    2.5970    5.8750 c2        1 03L      0.003000
     13 CAO        -3.1540    2.6130    6.3420 c3        1 03L     -0.198000
     14 CAP        -5.0890    3.3610    5.0280 c2        1 03L     -0.130000
     15 CAQ        -0.2280    3.8290    2.4290 c3        1 03L      0.031000
     16 NAR         1.0210    3.7040    1.7420 ns        1 03L     -0.366000
     17 CAT        -0.4890    0.4010    3.3720 c2        1 03L      0.281000
     18 CAU         2.0090    2.7790    2.0220 c2        1 03L      0.336000
     19 CAV        -5.4390    1.9030    6.9380 c2        1 03L     -0.165000
     20 CAW         0.4930    5.7350    4.0120 c2        1 03L      0.001000
     21 CAX        -3.7350    3.4130    5.2310 c2        1 03L     -0.258000
     22 CAY        -1.1410    4.2410    4.8130 c3        1 03L     -0.231000
     23 CAZ         0.7440    0.6950    2.5590 c2        1 03L     -0.090000
     24 CBA         1.7520    1.6500    2.9910 cx        1 03L     -0.124000
     25 CBB        -0.2320    4.6340    3.6840 c2        1 03L     -0.148000
     26 HAF         3.9530    1.5710    3.4720 hc        1 03L      0.132750
     27 HAG         1.2880    1.4510    5.1930 hc        1 03L      0.132750
     28 HAH        -0.4200    4.7080    6.8380 hc        1 03L      0.113500
     29 HAI        -1.7600    5.7930    6.2520 hc        1 03L      0.113500
     30 HAJ        -0.9200    3.1900    5.1390 h1        1 03L      0.146000
     31 HAK         1.3850   -0.1600    0.6240 ha        1 03L      0.196000
     32 HAL         2.2140    2.9750    4.7620 hc        1 03L      0.132750
     33 HAM        -2.4950    3.2670    6.9870 hc        1 03L      0.175000
     34 HAN        -7.0380    2.6000    5.6480 ha        1 03L      0.162000
     35 HAO        -2.4800    1.8020    5.9080 hc        1 03L      0.175000
     36 HAQ         1.3000    4.4810    1.1800 hn        1 03L      0.240000
     37 HAQA       -0.6180    2.7970    2.6770 h1        1 03L      0.110500
     38 HNAR        3.0440    0.0400    3.9260 hc        1 03L      0.132750
     39 ClAE        1.6180    6.5300    3.0550 cl        1 03L      0.037000
     40 ClAD       -6.4720    1.0220    7.9590 cl        1 03L      0.007000
     41 HAR2       -0.9640    4.3070    1.7120 h1        1 03L      0.110500
     42 SAS        -2.8110    4.3740    4.2160 ss        1 03L      0.339000
     43 ClAF       -5.8050    4.2270    3.7520 cl        1 03L      0.008000
@<TRIPOS>BOND
     1    1   17 1   
     2    2   18 1   
     3    3    4 1   
     4    3   17 1   
     5    4    9 1   
     6    5   10 1   
     7    5   24 1   
     8    5   26 1   
     9    5   38 1   
    10    6    7 1   
    11    7    8 1   
    12    7   20 1   
    13    8   22 1   
    14    8   28 1   
    15    8   29 1   
    16    9   23 1   
    17    9   31 1   
    18   10   24 1   
    19   10   27 1   
    20   10   32 1   
    21   11   13 1   
    22   11   19 1   
    23   12   14 1   
    24   12   19 1   
    25   12   34 1   
    26   13   21 1   
    27   13   33 1   
    28   13   35 1   
    29   14   21 1   
    30   14   43 1   
    31   15   16 1   
    32   15   25 1   
    33   15   37 1   
    34   15   41 1   
    35   16   18 1   
    36   16   36 1   
    37   17   23 1   
    38   18   24 1   
    39   19   40 1   
    40   20   25 1   
    41   20   39 1   
    42   21   42 1   
    43   22   25 1   
    44   22   30 1   
    45   22   42 1   
    46   23   24 1   
@<TRIPOS>SUBSTRUCTURE
     1 03L         1 TEMP              0 ****  ****    0 ROOT
