@<TRIPOS>MOLECULE
03L
   42    37     1     0     0
SMALL
bcc


@<TRIPOS>ATOM
      1 OAA         2.4700   -3.8410   -4.2220 o         1 03L     -0.562500
      2 OAB         0.9970   -1.7850   -2.1800 o         1 03L     -0.414000
      3 OAC         0.5940   -4.3700   -3.2500 o         1 03L     -0.562500
      4 CLAD       -6.2580    5.9590   -0.4860 cl        1 03L     -0.039000
      5 CLAE        2.7730    0.6840    2.7450 cl        1 03L     -0.026000
      6 CAF         3.7230   -5.5280   -0.2320 c1        1 03L     -0.127500
      7 CLAF       -1.3370    4.9630   -1.3260 cl        1 03L     -0.024000
      8 CAG         3.8050   -4.4230    0.6060 c1        1 03L     -0.127500
      9 CAH        -0.5800    2.1720    3.2010 c1        1 03L     -0.127500
     10 CAI         0.7080    1.6530    3.2000 c1        1 03L     -0.146000
     11 CAJ        -1.3570    2.1030    2.0540 c1        1 03L     -0.127500
     12 CAK         3.0880   -5.4220   -1.4600 c1        1 03L     -0.127500
     13 CAL         3.2500   -3.2100    0.2130 c1        1 03L     -0.127500
     14 CAM        -5.3850    3.3700   -0.2980 c1        1 03L     -0.136000
     15 CAN        -3.7940    5.0470   -0.9330 c1        1 03L     -0.168000
     16 CAO        -4.3660    2.4400   -0.1910 c1        1 03L     -0.019000
     17 CAP        -2.7680    4.1120   -0.8250 c2        1 03L     -0.013000
     18 CAQ         1.2670    0.3630   -0.2360 c3        1 03L      0.012000
     19 NAR         1.3740   -1.0650   -0.0210 n         1 03L     -0.350000
     20 SAS        -1.9560    1.4150   -0.4770 ss        1 03L      0.375000
     21 CAT         1.8190   -4.1040   -3.1760 c2        1 03L      0.348000
     22 CAU         1.6050   -1.9490   -1.1400 c2        1 03L      0.345000
     23 CAV        -5.0970    4.6750   -0.6690 c1        1 03L     -0.032000
     24 CAW         1.2200    1.0640    2.0490 c2        1 03L     -0.034000
     25 CAX        -3.0540    2.8130   -0.4560 c2        1 03L     -0.300000
     26 CAY        -0.8460    1.5130    0.9030 c1        1 03L     -0.212000
     27 CAZ         2.5340   -4.2120   -1.8530 c1        1 03L     -0.047000
     28 CBA         2.6150   -3.1040   -1.0140 c1        1 03L     -0.100000
     29 CBB         0.4450    0.9940    0.9030 c2        1 03L     -0.058000
     30 HAF         4.1430   -6.3720    0.0300 ha        1 03L      0.126167
     31 HAG         4.2500   -4.4970    1.4680 ha        1 03L      0.126167
     32 HAH        -0.9400    2.5870    4.0120 ha        1 03L      0.126167
     33 HAI         1.2560    1.7030    4.0090 ha        1 03L      0.135000
     34 HAJ        -2.2780    2.4270    2.0680 ha        1 03L      0.126167
     35 HAK         3.0300   -6.2030   -2.0510 ha        1 03L      0.126167
     36 HAL         3.3070   -2.4380    0.7990 ha        1 03L      0.126167
     37 HAM        -6.3120    3.0980   -0.1500 ha        1 03L      0.165000
     38 HAN        -3.5880    5.9700   -1.1560 ha        1 03L      0.147000
     39 HAO        -4.5690    1.5210    0.0710 ha        1 03L      0.255000
     40 HAQ         0.8210    0.5320   -1.0930 h1        1 03L      0.095500
     41 HAQA        2.1610    0.7590   -0.2500 h1        1 03L      0.095500
     42 HNAR        1.2300   -1.4130    0.8140 hn        1 03L      0.277000
@<TRIPOS>BOND
     1    1   21 1   
     2    2   22 1   
     3    3   21 1   
     4    4   23 1   
     5    5   24 1   
     6    6   12 1   
     7    6   30 1   
     8    7   17 1   
     9    8   13 1   
    10    8   31 1   
    11    9   11 1   
    12    9   32 1   
    13   10   24 1   
    14   10   33 1   
    15   11   34 1   
    16   12   35 1   
    17   13   36 1   
    18   14   23 1   
    19   14   37 1   
    20   15   17 1   
    21   15   38 1   
    22   16   25 1   
    23   16   39 1   
    24   17   25 1   
    25   18   19 1   
    26   18   29 1   
    27   18   40 1   
    28   18   41 1   
    29   19   22 1   
    30   19   42 1   
    31   20   25 1   
    32   20   26 1   
    33   21   27 1   
    34   22   28 1   
    35   24   29 1   
    36   26   29 1   
    37   27   28 1   
@<TRIPOS>SUBSTRUCTURE
     1 03L         1 TEMP              0 ****  ****    0 ROOT
