@<TRIPOS>MOLECULE
03L
   43    46     1     0     0
SMALL
bcc


@<TRIPOS>ATOM
      1 OAA        -1.7170    1.4770    3.5670 os        1 03L     -0.577000
      2 OAB         2.4160    3.6300    1.7200 o         1 03L     -0.220000
      3 OAC        -1.9330   -0.5550    4.5030 o         1 03L     -0.371000
      4 CAF         5.1340   -0.8290    2.3250 c1        1 03L     -0.023000
      5 CAG         3.7850   -0.5320    1.9010 c3        1 03L     -0.252000
      6 CAH        -0.9900    6.4260    6.1020 cu        1 03L     -0.133000
      7 CAI        -0.5140    7.4170    5.3670 cu        1 03L     -0.087000
      8 CAJ        -1.9170    5.3030    6.2300 c3        1 03L     -0.041000
      9 CAK         0.1000    0.1530    3.4050 c1        1 03L     -0.061000
     10 CAL         3.3540    0.8850    1.8940 c2        1 03L     -0.037000
     11 CAM        -5.4020    1.2330    6.3190 c1        1 03L     -0.047000
     12 CAN        -6.1920    3.4240    5.5660 c2        1 03L     -0.037000
     13 CAO        -4.0690    1.5590    5.8610 c3        1 03L     -0.206000
     14 CAP        -4.8730    3.7430    5.0850 c2        1 03L     -0.087000
     15 CAQ         0.1850    4.5770    3.0870 c3        1 03L     -0.030000
     16 NAR         0.5980    3.1330    3.1250 n4        1 03L     -0.116000
     17 CAT        -1.2740    0.2850    3.8820 c2        1 03L      0.415000
     18 CAU         1.8130    2.7530    2.3310 c2        1 03L      0.295000
     19 CAV        -6.4210    2.2190    6.1690 c2        1 03L     -0.142000
     20 CAW         0.1680    6.1050    5.1570 cx        1 03L     -0.073000
     21 CAX        -3.8250    2.8870    5.2300 c2        1 03L     -0.319000
     22 CAY        -1.5370    4.4700    4.9930 c2        1 03L     -0.319000
     23 CAZ         1.1450    0.5190    2.9330 c1        1 03L     -0.250000
     24 CBA         2.1670    1.3040    2.3800 c2        1 03L     -0.065000
     25 CBB        -0.4270    4.9910    4.3600 c2        1 03L     -0.247000
     26 HAF         3.0990   -1.1660    2.5470 hc        1 03L      0.185500
     27 HAG         3.6720   -0.9550    0.8530 hc        1 03L      0.185500
     28 HAH        -2.9870    5.6340    6.1930 hc        1 03L      0.134000
     29 HAI        -0.4760    8.4550    5.1040 ha        1 03L      0.204000
     30 HAJ        -1.7520    4.7070    7.1640 hc        1 03L      0.134000
     31 HAK         5.7660    0.0130    2.6470 ha        1 03L      0.046000
     32 HAL         4.0660    1.6160    1.4660 ha        1 03L      0.153000
     33 HAM        -3.3800    1.4190    6.7500 hc        1 03L      0.203500
     34 HAN        -6.9920    4.1710    5.4230 ha        1 03L      0.157000
     35 HAO        -3.7460    0.7320    5.1350 hc        1 03L      0.203500
     36 HAQ         0.7840    2.8700    4.1030 hn        1 03L      0.279500
     37 HAQA       -0.5460    4.6820    2.2330 hx        1 03L      0.143500
     38 HNAR       -0.2200    2.5490    2.8190 hn        1 03L      0.279500
     39 CLAE        1.8220    5.9060    5.5850 cl        1 03L     -0.075000
     40 CLAD       -7.9690    1.8480    6.7630 cl        1 03L      0.003000
     41 HAR2        1.0980    5.2040    2.8660 hx        1 03L      0.143500
     42 SAS        -2.2490    3.0080    4.6130 s4        1 03L      0.667000
     43 CLAF       -4.7210    5.2470    4.2960 cl        1 03L     -0.019000
@<TRIPOS>BOND
     1    1   17 1   
     2    1   42 1   
     3    2   18 1   
     4    3   17 1   
     5    4    5 1   
     6    4   31 1   
     7    5   10 1   
     8    5   26 1   
     9    5   27 1   
    10    6    7 1   
    11    6    8 1   
    12    6   20 1   
    13    7   20 1   
    14    7   29 1   
    15    8   22 1   
    16    8   28 1   
    17    8   30 1   
    18    9   17 1   
    19    9   23 1   
    20   10   24 1   
    21   10   32 1   
    22   11   13 1   
    23   11   19 1   
    24   12   14 1   
    25   12   19 1   
    26   12   34 1   
    27   13   21 1   
    28   13   33 1   
    29   13   35 1   
    30   14   21 1   
    31   14   43 1   
    32   15   16 1   
    33   15   25 1   
    34   15   37 1   
    35   15   41 1   
    36   16   18 1   
    37   16   36 1   
    38   16   38 1   
    39   18   24 1   
    40   19   40 1   
    41   20   25 1   
    42   20   39 1   
    43   21   42 1   
    44   22   25 1   
    45   22   42 1   
    46   23   24 1   
@<TRIPOS>SUBSTRUCTURE
     1 03L         1 TEMP              0 ****  ****    0 ROOT
