@<TRIPOS>MOLECULE
03L
   42    44     1     0     0
SMALL
bcc


@<TRIPOS>ATOM
      1 OAA         0.8420    1.1290   -1.7610 o         1 03L     -0.827800
      2 OAB         3.8560   -0.7920    1.1330 o         1 03L     -0.653100
      3 OAC         1.2480    2.8500   -0.4240 o         1 03L     -0.827800
      4 CAF         5.1780    2.5590   -2.3450 ca        1 03L     -0.131000
      5 CAG         5.9060    1.5070   -1.7840 ca        1 03L     -0.170000
      6 CAH        -2.3050   -3.2100   -1.1880 ca        1 03L     -0.114000
      7 CAI        -1.1510   -3.9370   -1.4630 ca        1 03L     -0.146000
      8 CAJ        -2.2530   -2.1140   -0.3310 ca        1 03L     -0.129000
      9 CAK         3.8100    2.6540   -2.1170 ca        1 03L     -0.124000
     10 CAL         5.2560    0.5610   -1.0010 ca        1 03L     -0.097000
     11 CAM        -2.6440    2.7540   -0.2180 ca        1 03L     -0.136000
     12 CAN        -4.3310    1.7130    1.1880 ca        1 03L     -0.168000
     13 CAO        -1.7550    1.7200    0.0880 ca        1 03L     -0.019000
     14 CAP        -3.4310    0.6900    1.4860 ca        1 03L      0.065400
     15 CAQ         1.4480   -1.9580    0.5270 c3        1 03L      0.135300
     16 NAR         2.1390   -1.0560   -0.3620 n         1 03L     -0.540900
     17 CAT         1.6470    1.9000   -1.1520 c         1 03L      0.899200
     18 CAU         3.2800   -0.4190    0.0840 c         1 03L      0.671700
     19 CAV        -3.9250    2.7430    0.3310 ca        1 03L      0.046400
     20 CAW         0.0640   -3.5400   -0.8910 ca        1 03L      0.044400
     21 CAX        -2.1360    0.6790    0.9440 ca        1 03L     -0.073100
     22 CAY        -1.0460   -1.7220    0.2560 ca        1 03L      0.014900
     23 CAZ         3.1370    1.6970   -1.3400 ca        1 03L     -0.067600
     24 CBA         3.8710    0.6440   -0.7830 ca        1 03L     -0.120600
     25 CBB         0.1360   -2.4290   -0.0430 ca        1 03L     -0.065300
     26 HAF         5.6890    3.3120   -2.9610 ha        1 03L      0.110000
     27 HAG         6.9890    1.4310   -1.9550 ha        1 03L      0.112000
     28 HAH        -3.2600   -3.5030   -1.6480 ha        1 03L      0.126000
     29 HAI        -1.1890   -4.8070   -2.1340 ha        1 03L      0.135000
     30 HAJ        -3.1710   -1.5440   -0.1160 ha        1 03L      0.139000
     31 HAK         3.2310    3.4900   -2.5370 ha        1 03L      0.137000
     32 HAL         5.8210   -0.2600   -0.5320 ha        1 03L      0.133000
     33 HAM        -2.3160    3.5660   -0.8860 ha        1 03L      0.165000
     34 HAN        -5.3420    1.7140    1.6210 ha        1 03L      0.147000
     35 HAO        -0.7240    1.7400   -0.3550 ha        1 03L      0.255000
     36 HAQ         2.1210   -2.8410    0.7310 h1        1 03L      0.056200
     37 HAQA        1.2680   -1.4590    1.5290 h1        1 03L      0.056200
     38 HNAR        1.5920   -0.6050   -1.0760 hn        1 03L      0.363500
     39 SAS        -0.9360   -0.4540    1.3830 ss        1 03L     -0.078800
     40 CLAF       -3.9520   -0.5470    2.5370 cl        1 03L     -0.102400
     41 CLAE        1.4540   -4.4510   -1.2760 cl        1 03L     -0.104400
     42 CLAD       -5.0250    3.9930   -0.0350 cl        1 03L     -0.117400
@<TRIPOS>BOND
     1    1   17 1   
     2    2   18 2   
     3    3   17 1   
     4    4    5 ar  
     5    4    9 ar  
     6    4   26 1   
     7    5   10 ar  
     8    5   27 1   
     9    6    7 ar  
    10    6    8 ar  
    11    6   28 1   
    12    7   20 ar  
    13    7   29 1   
    14    8   22 ar  
    15    8   30 1   
    16    9   23 ar  
    17    9   31 1   
    18   10   24 ar  
    19   10   32 1   
    20   11   13 ar  
    21   11   19 ar  
    22   11   33 1   
    23   12   14 ar  
    24   12   19 ar  
    25   12   34 1   
    26   13   21 ar  
    27   13   35 1   
    28   14   21 ar  
    29   14   40 1   
    30   15   16 1   
    31   15   25 1   
    32   15   36 1   
    33   15   37 1   
    34   16   18 1   
    35   16   38 1   
    36   17   23 1   
    37   18   24 1   
    38   19   42 1   
    39   20   25 ar  
    40   20   41 1   
    41   21   39 1   
    42   22   25 ar  
    43   22   39 1   
    44   23   24 ar  
@<TRIPOS>SUBSTRUCTURE
     1 03L         1 TEMP              0 ****  ****    0 ROOT
