@<TRIPOS>MOLECULE
03L
   43    46     1     0     0
SMALL
bcc


@<TRIPOS>ATOM
      1 OAA        -0.3860    0.1550    4.0510 o         1 03L     -0.220000
      2 OAB         1.9070    3.3980    1.3130 o         1 03L     -0.344000
      3 OAC        -0.3330   -1.5060    2.5040 os        1 03L     -0.171000
      4 CAF         0.3640   -1.8610    1.4350 c1        1 03L      0.156000
      5 CAG         3.6420    1.2640    2.2000 cx        1 03L     -0.168500
      6 CAH         0.3890    7.4330    6.4270 c1        1 03L      0.284000
      7 CAI        -0.1010    6.4140    5.7380 c2        1 03L     -0.416000
      8 CAJ        -1.1940    5.5000    6.2470 c3        1 03L     -0.077000
      9 CAK         1.4560   -0.8220    1.2370 c2        1 03L     -0.219000
     10 CAL         3.1500    1.3050    3.6100 cx        1 03L     -0.168500
     11 CAM        -4.5550    2.4270    7.5340 c1        1 03L     -0.058000
     12 CAN        -6.3670    3.0830    6.0330 c2        1 03L      0.007000
     13 CAO        -3.5920    3.0690    6.6500 c3        1 03L     -0.192000
     14 CAP        -5.4350    3.7550    5.1780 c2        1 03L     -0.132000
     15 CAQ        -0.4170    4.1140    2.7410 c3        1 03L      0.011000
     16 NAR         0.2790    2.8590    2.8470 n         1 03L     -0.369000
     17 CAT         0.1830   -0.2800    3.0710 c2        1 03L      0.280000
     18 CAU         1.4530    2.6100    2.1630 c2        1 03L      0.336000
     19 CAV        -5.9240    2.4560    7.1710 c2        1 03L     -0.168000
     20 CAW         0.2640    5.9440    4.3950 c2        1 03L      0.014000
     21 CAX        -4.0910    3.7890    5.4470 c2        1 03L     -0.265000
     22 CAY        -1.4570    4.5000    5.1040 c3        1 03L     -0.232000
     23 CAZ         1.3510    0.1150    2.2080 c2        1 03L     -0.086000
     24 CBA         2.1510    1.3020    2.4680 cx        1 03L     -0.129000
     25 CBB        -0.4860    4.8750    4.0220 c2        1 03L     -0.149000
     26 HAF         4.1040    2.1670    1.7560 hc        1 03L      0.130250
     27 HAG         3.2320    0.4010    4.2410 hc        1 03L      0.130250
     28 HAH        -0.8560    4.9640    7.1690 hc        1 03L      0.112000
     29 HAI        -2.1170    6.0870    6.4860 hc        1 03L      0.112000
     30 HAJ        -1.2670    3.4520    5.4510 h1        1 03L      0.132000
     31 HAK         2.1730   -0.8830    0.4180 ha        1 03L      0.190000
     32 HAL         3.2680    2.2340    4.1980 hc        1 03L      0.130250
     33 HAM        -2.9770    3.7700    7.2900 hc        1 03L      0.167000
     34 HAN        -7.4340    3.0960    5.7500 ha        1 03L      0.163000
     35 HAO        -2.8970    2.2300    6.3280 hc        1 03L      0.167000
     36 HAQ         4.0810    0.3300    1.8050 hc        1 03L      0.130250
     37 HAQA       -1.4770    3.8970    2.4070 h1        1 03L      0.127000
     38 HNAR        0.0400    2.2760    3.6170 hn        1 03L      0.235000
     39 CLAE        1.4710    6.6880    3.5030 cl        1 03L      0.048000
     40 CLAD       -7.0350    1.6820    8.1970 cl        1 03L      0.008000
     41 HAR2        0.0810    4.7470    1.9480 h1        1 03L      0.127000
     42 SAS        -3.0880    4.6390    4.4120 ss        1 03L      0.358000
     43 CLAF       -6.0580    4.5370    3.8030 cl        1 03L      0.010000
@<TRIPOS>BOND
     1    1   17 1   
     2    2   18 1   
     3    3    4 1   
     4    3   17 1   
     5    4    9 1   
     6    5   10 1   
     7    5   24 1   
     8    5   26 1   
     9    5   36 1   
    10    6    7 1   
    11    7    8 1   
    12    7   20 1   
    13    8   22 1   
    14    8   28 1   
    15    8   29 1   
    16    9   23 1   
    17    9   31 1   
    18   10   24 1   
    19   10   27 1   
    20   10   32 1   
    21   11   13 1   
    22   11   19 1   
    23   12   14 1   
    24   12   19 1   
    25   12   34 1   
    26   13   21 1   
    27   13   33 1   
    28   13   35 1   
    29   14   21 1   
    30   14   43 1   
    31   15   16 1   
    32   15   25 1   
    33   15   37 1   
    34   15   41 1   
    35   16   18 1   
    36   16   38 1   
    37   17   23 1   
    38   18   24 1   
    39   19   40 1   
    40   20   25 1   
    41   20   39 1   
    42   21   42 1   
    43   22   25 1   
    44   22   30 1   
    45   22   42 1   
    46   23   24 1   
@<TRIPOS>SUBSTRUCTURE
     1 03L         1 TEMP              0 ****  ****    0 ROOT
