@<TRIPOS>MOLECULE
03M
   42    43     1     0     0
SMALL
bcc


@<TRIPOS>ATOM
      1 C4          0.1190    1.0790    0.6800 c3        1 03M     -0.164000
      2 C6          3.5330   -0.3940    0.2900 c2        1 03M     -0.057000
      3 C7          2.3570    0.0760   -0.3490 c2        1 03M     -0.151000
      4 C8          1.4680    0.5030    0.6940 c2        1 03M     -0.064000
      5 C10         2.0880    0.1590   -1.7490 c2        1 03M     -0.016000
      6 N12         3.6510   -1.6020   -2.5990 ns        1 03M     -0.277000
      7 C13         3.8410   -2.1780   -3.9000 c2        1 03M      0.380000
      8 C15         2.3440   -0.4340   -4.1910 c2        1 03M      0.350000
      9 C20         4.7810   -3.4380   -7.4850 c2        1 03M     -0.051000
     10 C21         5.6250   -4.1120   -8.2890 c2        1 03M     -0.132000
     11 C22         5.6020   -4.0670   -9.7430 c2        1 03M      0.036000
     12 C24         3.1390   -3.6290   -9.9810 c1        1 03M     -0.025000
     13 C1         -0.4570    1.3820    1.9840 c1        1 03M     -0.068000
     14 C2          0.2700    1.1170    3.1750 c2        1 03M     -0.160000
     15 C3          1.5370    0.5730    3.2030 c2        1 03M      0.073000
     16 N5          3.3890   -0.2780    1.6570 na        1 03M     -0.153000
     17 C9          2.1290    0.2700    1.9290 c2        1 03M     -0.113000
     18 C11         2.6510   -0.5910   -2.7170 c2        1 03M     -0.109000
     19 N14         3.0920   -1.4340   -4.8490 ns        1 03M     -0.393000
     20 O17         1.5980    0.3800   -4.7380 o         1 03M     -0.294000
     21 C18         2.9670   -1.8150   -8.4270 c1        1 03M     -0.088000
     22 C19         3.7920   -2.5690   -7.9720 c1        1 03M     -0.213000
     23 C23         4.4610   -3.8670  -10.5020 c2        1 03M     -0.034000
     24 F25         4.5780   -3.8120  -11.8560 f         1 03M     -0.079000
     25 C27         2.3200    0.2860    4.4230 c3        1 03M     -0.215000
     26 Cl         -0.5300    1.5190    4.6250 cl        1 03M     -0.001000
     27 H4          0.1060    2.0410    0.0820 hc        1 03M      0.167500
     28 H6          4.4620   -0.7630   -0.1520 h4        1 03M      0.185000
     29 H10         1.3310    0.9080   -2.0540 ha        1 03M      0.165000
     30 H20         4.8520   -3.5360   -6.3810 ha        1 03M      0.181000
     31 H21         6.4250   -4.7380   -7.8560 ha        1 03M      0.161000
     32 H24         2.7320   -4.3740   -9.2830 ha        1 03M      0.084000
     33 H1         -0.6050    0.3830    0.1570 hc        1 03M      0.167500
     34 H18         2.2360   -1.1550   -8.8290 ha        1 03M      0.248000
     35 H18A        3.1570   -1.5690   -5.8280 hn        1 03M      0.278000
     36 H27         2.5830   -0.8020    4.4640 hc        1 03M      0.104333
     37 H27A        3.2690    0.8810    4.4180 hc        1 03M      0.104333
     38 H27B        1.7530    0.5430    5.3530 hc        1 03M      0.104333
     39 HN5         4.0620   -0.5120    2.3400 hn        1 03M      0.258000
     40 H14         3.6160   -2.2190   -1.8200 hn        1 03M      0.236000
     41 O16         4.5740   -3.1450   -4.1620 o         1 03M     -0.341000
     42 F26         6.8050   -4.1840  -10.3560 f         1 03M     -0.088000
@<TRIPOS>BOND
     1    1    4 1   
     2    1   13 1   
     3    1   27 1   
     4    1   33 1   
     5    2    3 1   
     6    2   16 1   
     7    2   28 1   
     8    3    4 1   
     9    3    5 1   
    10    4   17 1   
    11    5   18 1   
    12    5   29 1   
    13    6    7 1   
    14    6   18 1   
    15    6   40 1   
    16    7   19 1   
    17    7   41 1   
    18    8   18 1   
    19    8   19 1   
    20    8   20 1   
    21    9   10 1   
    22    9   22 1   
    23    9   30 1   
    24   10   11 1   
    25   10   31 1   
    26   11   23 1   
    27   11   42 1   
    28   12   23 1   
    29   12   32 1   
    30   13   14 1   
    31   14   15 1   
    32   14   26 1   
    33   15   17 1   
    34   15   25 1   
    35   16   17 1   
    36   16   39 1   
    37   19   35 1   
    38   21   22 1   
    39   21   34 1   
    40   23   24 1   
    41   25   36 1   
    42   25   37 1   
    43   25   38 1   
@<TRIPOS>SUBSTRUCTURE
     1 03M         1 TEMP              0 ****  ****    0 ROOT
