@<TRIPOS>MOLECULE
03M
   42    45     1     0     0
SMALL
bcc


@<TRIPOS>ATOM
      1 C4         -3.7170    1.3630    0.7810 ca        1 03M     -0.083000
      2 C6         -2.6210   -1.9940   -0.2260 cc        1 03M     -0.061100
      3 C7         -2.2720   -0.7880    0.4040 cd        1 03M     -0.138200
      4 C8         -3.4440    0.0690    0.3370 ca        1 03M     -0.071800
      5 C10        -1.0430   -0.4310    1.0300 cf        1 03M     -0.008000
      6 N12         0.5090   -2.0410   -0.0970 n         1 03M     -0.427100
      7 C13         1.9370   -2.1830   -0.0760 c         1 03M      0.787500
      8 C15         1.4290   -0.5670    1.5140 c         1 03M      0.713700
      9 C20         5.0450   -0.8190   -0.8760 ca        1 03M     -0.103000
     10 C21         5.8330   -0.0230   -1.6990 ca        1 03M     -0.148000
     11 C22         6.2650    1.2380   -1.2530 ca        1 03M      0.100900
     12 C24         5.0890    0.8730    0.8580 ca        1 03M     -0.123000
     13 C1         -4.9710    1.9010    0.5430 ca        1 03M     -0.136000
     14 C2         -5.9600    1.1630   -0.1380 ca        1 03M      0.027400
     15 C3         -5.7410   -0.1360   -0.6060 ca        1 03M     -0.073300
     16 N5         -3.9280   -1.9290   -0.6910 na        1 03M     -0.178400
     17 C9         -4.4650   -0.6780   -0.3580 ca        1 03M     -0.046200
     18 C11         0.1670   -0.9780    0.7910 cc        1 03M     -0.134600
     19 N14         2.4700   -1.3520    0.9550 n         1 03M     -0.514400
     20 O17         1.5570    0.2600    2.4180 o         1 03M     -0.574500
     21 C18         3.8620   -1.2720    1.2930 c3        1 03M      0.161300
     22 C19         4.6780   -0.3780    0.4000 ca        1 03M     -0.114300
     23 C23         5.8880    1.6900    0.0400 ca        1 03M      0.086900
     24 F25         6.2950    2.9030    0.4780 f         1 03M     -0.124900
     25 C27        -6.7940   -0.8910   -1.3180 c3        1 03M     -0.049800
     26 CL         -7.4720    1.9090   -0.3850 cl        1 03M     -0.093400
     27 H4         -2.9460    1.9420    1.3110 ha        1 03M      0.145000
     28 H6         -2.0360   -2.9100   -0.3480 h4        1 03M      0.181000
     29 H10        -1.0950    0.3870    1.7760 ha        1 03M      0.164000
     30 H20         4.6990   -1.8070   -1.2280 ha        1 03M      0.166000
     31 H21         6.1250   -0.3670   -2.7030 ha        1 03M      0.157000
     32 H24         4.7950    1.2370    1.8550 ha        1 03M      0.162000
     33 H1         -5.2040    2.9210    0.8880 ha        1 03M      0.150000
     34 H18         3.9260   -0.9020    2.3580 h1        1 03M      0.080200
     35 H18A        4.2900   -2.3170    1.2380 h1        1 03M      0.080200
     36 H27        -7.1100   -0.3360   -2.2390 hc        1 03M      0.050033
     37 H27A       -6.4530   -1.9080   -1.6270 hc        1 03M      0.050033
     38 H27B       -7.6930   -1.0110   -0.6620 hc        1 03M      0.050033
     39 HN5        -4.4220   -2.6600   -1.1300 hn        1 03M      0.306700
     40 H14         0.0600   -2.0750   -0.9860 hn        1 03M      0.319500
     41 O16         2.5900   -2.9530   -0.7970 o         1 03M     -0.609500
     42 F26         7.0340    2.0170   -2.0460 f         1 03M     -0.124900
@<TRIPOS>BOND
     1    1    4 ar  
     2    1   13 ar  
     3    1   27 1   
     4    2    3 2   
     5    2   16 1   
     6    2   28 1   
     7    3    4 1   
     8    3    5 1   
     9    4   17 ar  
    10    5   18 2   
    11    5   29 1   
    12    6    7 1   
    13    6   18 1   
    14    6   40 1   
    15    7   19 1   
    16    7   41 2   
    17    8   18 1   
    18    8   19 1   
    19    8   20 2   
    20    9   10 ar  
    21    9   22 ar  
    22    9   30 1   
    23   10   11 ar  
    24   10   31 1   
    25   11   23 ar  
    26   11   42 1   
    27   12   22 ar  
    28   12   23 ar  
    29   12   32 1   
    30   13   14 ar  
    31   13   33 1   
    32   14   15 ar  
    33   14   26 1   
    34   15   17 ar  
    35   15   25 1   
    36   16   17 1   
    37   16   39 1   
    38   19   21 1   
    39   21   22 1   
    40   21   34 1   
    41   21   35 1   
    42   23   24 1   
    43   25   36 1   
    44   25   37 1   
    45   25   38 1   
@<TRIPOS>SUBSTRUCTURE
     1 03M         1 TEMP              0 ****  ****    0 ROOT
