@<TRIPOS>MOLECULE
03M
   42    43     1     0     0
SMALL
bcc


@<TRIPOS>ATOM
      1 C4          0.1110    1.0720    0.6780 c3        1 03M     -0.164000
      2 C6          3.5320   -0.3860    0.2870 c2        1 03M     -0.057000
      3 C7          2.3530    0.0770   -0.3510 c2        1 03M     -0.151000
      4 C8          1.4630    0.5020    0.6920 c2        1 03M     -0.064000
      5 C10         2.0820    0.1570   -1.7510 c2        1 03M     -0.016000
      6 N12         3.6530   -1.5980   -2.6000 n         1 03M     -0.277000
      7 C13         3.8450   -2.1750   -3.9000 c2        1 03M      0.380000
      8 C15         2.3390   -0.4380   -4.1920 c2        1 03M      0.350000
      9 C20         4.7900   -3.4350   -7.4840 c2        1 03M     -0.051000
     10 C21         5.6380   -4.1050   -8.2880 c2        1 03M     -0.132000
     11 C22         5.6140   -4.0610   -9.7420 c2        1 03M      0.036000
     12 C24         3.1490   -3.6380   -9.9790 c1        1 03M     -0.025000
     13 C1         -0.4650    1.3750    1.9820 c1        1 03M     -0.068000
     14 C2          0.2650    1.1150    3.1720 c2        1 03M     -0.160000
     15 C3          1.5340    0.5770    3.2000 c2        1 03M      0.073000
     16 N5          3.3880   -0.2680    1.6550 na        1 03M     -0.153000
     17 C9          2.1260    0.2740    1.9270 c2        1 03M     -0.113000
     18 C11         2.6480   -0.5910   -2.7180 c2        1 03M     -0.109000
     19 N14         3.0920   -1.4360   -4.8490 n         1 03M     -0.393000
     20 O17         1.5890    0.3710   -4.7400 o         1 03M     -0.294000
     21 C18         2.9660   -1.8230   -8.4270 c1        1 03M     -0.088000
     22 C19         3.7960   -2.5720   -7.9710 c1        1 03M     -0.213000
     23 C23         4.4710   -3.8680  -10.5010 c2        1 03M     -0.034000
     24 F25         4.5880   -3.8140  -11.8540 f         1 03M     -0.079000
     25 C27         2.3190    0.2960    4.4210 c3        1 03M     -0.215000
     26 CL         -0.5360    1.5170    4.6230 cl        1 03M     -0.001000
     27 H4          0.0930    2.0320    0.0780 hc        1 03M      0.167500
     28 H6          4.4620   -0.7520   -0.1550 h4        1 03M      0.185000
     29 H10         1.3210    0.9020   -2.0570 ha        1 03M      0.165000
     30 H20         4.8620   -3.5310   -6.3800 ha        1 03M      0.181000
     31 H21         6.4420   -4.7260   -7.8540 ha        1 03M      0.161000
     32 H24         2.7460   -4.3840   -9.2800 ha        1 03M      0.084000
     33 H1         -0.6100    0.3720    0.1570 hc        1 03M      0.167500
     34 H18         2.2310   -1.1680   -8.8300 ha        1 03M      0.248000
     35 H18A        3.1570   -1.5720   -5.8280 hn        1 03M      0.278000
     36 H27         2.5870   -0.7900    4.4630 hc        1 03M      0.104333
     37 H27A        3.2650    0.8950    4.4130 hc        1 03M      0.104333
     38 H27B        1.7520    0.5510    5.3500 hc        1 03M      0.104333
     39 HN5         4.0630   -0.4980    2.3370 hn        1 03M      0.258000
     40 H14         3.6220   -2.2140   -1.8190 hn        1 03M      0.236000
     41 O16         4.5830   -3.1380   -4.1610 o         1 03M     -0.341000
     42 F26         6.8170   -4.1720  -10.3550 f         1 03M     -0.088000
@<TRIPOS>BOND
     1    1    4 1   
     2    1   13 1   
     3    1   27 1   
     4    1   33 1   
     5    2    3 1   
     6    2   16 1   
     7    2   28 1   
     8    3    4 1   
     9    3    5 1   
    10    4   17 1   
    11    5   18 1   
    12    5   29 1   
    13    6    7 1   
    14    6   18 1   
    15    6   40 1   
    16    7   19 1   
    17    7   41 1   
    18    8   18 1   
    19    8   19 1   
    20    8   20 1   
    21    9   10 1   
    22    9   22 1   
    23    9   30 1   
    24   10   11 1   
    25   10   31 1   
    26   11   23 1   
    27   11   42 1   
    28   12   23 1   
    29   12   32 1   
    30   13   14 1   
    31   14   15 1   
    32   14   26 1   
    33   15   17 1   
    34   15   25 1   
    35   16   17 1   
    36   16   39 1   
    37   19   35 1   
    38   21   22 1   
    39   21   34 1   
    40   23   24 1   
    41   25   36 1   
    42   25   37 1   
    43   25   38 1   
@<TRIPOS>SUBSTRUCTURE
     1 03M         1 TEMP              0 ****  ****    0 ROOT
