@<TRIPOS>MOLECULE
03M
   42    43     1     0     0
SMALL
bcc


@<TRIPOS>ATOM
      1 C4          0.2090    1.1680    0.6920 c3        1 03M     -0.164000
      2 C6          3.5390   -0.4870    0.3100 c2        1 03M     -0.057000
      3 C7          2.3980    0.0590   -0.3320 c2        1 03M     -0.151000
      4 C8          1.5230    0.5170    0.7100 c2        1 03M     -0.064000
      5 C10         2.1490    0.1810   -1.7330 c2        1 03M     -0.016000
      6 N12         3.6210   -1.6490   -2.5990 n         1 03M     -0.277000
      7 C13         3.7920   -2.2120   -3.9080 c2        1 03M      0.380000
      8 C15         2.3980   -0.3820   -4.1820 c2        1 03M      0.350000
      9 C20         4.7050   -3.4550   -7.5060 c2        1 03M     -0.051000
     10 C21         5.5240   -4.1560   -8.3130 c2        1 03M     -0.132000
     11 C22         5.5220   -4.0810   -9.7670 c2        1 03M      0.036000
     12 C24         3.0890   -3.5110  -10.0260 c1        1 03M     -0.025000
     13 C1         -0.3630    1.4800    1.9960 c1        1 03M     -0.068000
     14 C2          0.3350    1.1540    3.1890 c2        1 03M     -0.160000
     15 C3          1.5690    0.5400    3.2200 c2        1 03M      0.073000
     16 N5          3.3870   -0.3870    1.6770 na        1 03M     -0.153000
     17 C9          2.1560    0.2260    1.9470 c2        1 03M     -0.113000
     18 C11         2.6800   -0.5810   -2.7080 c2        1 03M     -0.109000
     19 N14         3.0960   -1.4110   -4.8510 n         1 03M     -0.393000
     20 O17         1.7050    0.4810   -4.7220 o         1 03M     -0.294000
     21 C18         2.9900   -1.7220   -8.4370 c1        1 03M     -0.088000
     22 C19         3.7690   -2.5260   -7.9870 c1        1 03M     -0.213000
     23 C23         4.4040   -3.8060  -10.5360 c2        1 03M     -0.034000
     24 F25         4.5420   -3.7310  -11.8860 f         1 03M     -0.079000
     25 C27         2.3210    0.1890    4.4430 c3        1 03M     -0.215000
     26 CL         -0.4570    1.5760    4.6380 cl        1 03M     -0.001000
     27 H4          0.2560    2.1390    0.1120 hc        1 03M      0.167500
     28 H6          4.4510   -0.9000   -0.1300 h4        1 03M      0.185000
     29 H10         1.4380    0.9770   -2.0320 ha        1 03M      0.165000
     30 H20         4.7560   -3.5790   -6.4040 ha        1 03M      0.181000
     31 H21         6.2840   -4.8320   -7.8830 ha        1 03M      0.161000
     32 H24         2.6350   -4.2470   -9.3480 ha        1 03M      0.084000
     33 H1         -0.5470    0.5230    0.1500 hc        1 03M      0.167500
     34 H18         2.3000   -1.0160   -8.8340 ha        1 03M      0.248000
     35 H18A        3.1640   -1.5320   -5.8320 hn        1 03M      0.278000
     36 H27         2.5230   -0.9130    4.4670 hc        1 03M      0.104333
     37 H27A        3.3020    0.7290    4.4570 hc        1 03M      0.104333
     38 H27B        1.7600    0.4610    5.3710 hc        1 03M      0.104333
     39 HN5         4.0390   -0.6690    2.3630 hn        1 03M      0.258000
     40 H14         3.5420   -2.2770   -1.8310 hn        1 03M      0.236000
     41 O16         4.4730   -3.2140   -4.1800 o         1 03M     -0.341000
     42 F26         6.7260   -4.2480  -10.3670 f         1 03M     -0.088000
@<TRIPOS>BOND
     1    1    4 1   
     2    1   13 1   
     3    1   27 1   
     4    1   33 1   
     5    2    3 1   
     6    2   16 1   
     7    2   28 1   
     8    3    4 1   
     9    3    5 1   
    10    4   17 1   
    11    5   18 1   
    12    5   29 1   
    13    6    7 1   
    14    6   18 1   
    15    6   40 1   
    16    7   19 1   
    17    7   41 1   
    18    8   18 1   
    19    8   19 1   
    20    8   20 1   
    21    9   10 1   
    22    9   22 1   
    23    9   30 1   
    24   10   11 1   
    25   10   31 1   
    26   11   23 1   
    27   11   42 1   
    28   12   23 1   
    29   12   32 1   
    30   13   14 1   
    31   14   15 1   
    32   14   26 1   
    33   15   17 1   
    34   15   25 1   
    35   16   17 1   
    36   16   39 1   
    37   19   35 1   
    38   21   22 1   
    39   21   34 1   
    40   23   24 1   
    41   25   36 1   
    42   25   37 1   
    43   25   38 1   
@<TRIPOS>SUBSTRUCTURE
     1 03M         1 TEMP              0 ****  ****    0 ROOT
