@<TRIPOS>MOLECULE
03N
   27    26     1     0     0
SMALL
bcc


@<TRIPOS>ATOM
      1 N24        -1.9220    0.1360   -2.8090 n3        1 03N     -0.919800
      2 C25        -0.8850   -0.0150   -1.8300 c3        1 03N      0.160800
      3 C26        -1.5950    0.0880   -0.1800 c3        1 03N     -0.061700
      4 C27        -1.2120    1.2870    0.3060 c3        1 03N     -0.089900
      5 C28         0.1790    1.2300    0.8990 c3        1 03N      0.190300
      6 N29         1.0400   -0.0340    0.3880 nh        1 03N     -0.687400
      7 C30         0.0510   -1.1790    1.0060 c3        1 03N      0.190300
      8 C31        -1.3200   -1.1480    0.4260 c3        1 03N     -0.089900
      9 C32         2.4610   -0.0880    0.6370 c2        1 03N      0.324000
     10 N33         2.9490   -0.1070    1.9660 nh        1 03N     -0.814600
     11 N34         3.3100   -0.1180   -0.3800 n1        1 03N     -0.336000
     12 HN24       -2.2390   -0.6870   -3.0440 hn        1 03N      0.350800
     13 H125       -0.4510   -0.8900   -1.9460 h1        1 03N      0.026700
     14 H225       -0.2100    0.7090   -1.9470 h1        1 03N      0.026700
     15 H26        -2.5770    0.1330   -0.2880 hc        1 03N      0.046700
     16 H127       -1.2220    1.9330   -0.4090 hc        1 03N      0.056200
     17 H227       -1.8480    1.5700    1.0050 hc        1 03N      0.056200
     18 H128        0.1020    1.1830    1.8760 h1        1 03N      0.043950
     19 H228        0.6520    2.0450    0.6620 h1        1 03N      0.043950
     20 H130        0.4470   -2.0650    0.8330 h1        1 03N      0.043950
     21 H230       -0.0160   -1.0440    1.9930 h1        1 03N      0.043950
     22 H131       -1.3980   -1.8550   -0.2440 hc        1 03N      0.056200
     23 H231       -1.9800   -1.3090    1.1460 hc        1 03N      0.056200
     24 H133        3.0580   -0.9070    2.4020 hn        1 03N      0.389800
     25 H233        3.2120    0.6680    2.3640 hn        1 03N      0.389800
     26 H134        2.9880   -0.1050   -1.2580 DU        1 03N      0.153000
     27 H2         -1.5730    0.5700   -3.5730 hn        1 03N      0.350800
@<TRIPOS>BOND
     1    1    2 1   
     2    1   12 1   
     3    1   27 1   
     4    2    3 1   
     5    2   13 1   
     6    2   14 1   
     7    3    4 1   
     8    3    8 1   
     9    3   15 1   
    10    4    5 1   
    11    4   16 1   
    12    4   17 1   
    13    5    6 1   
    14    5   18 1   
    15    5   19 1   
    16    6    7 1   
    17    6    9 1   
    18    7    8 1   
    19    7   20 1   
    20    7   21 1   
    21    8   22 1   
    22    8   23 1   
    23    9   10 1   
    24    9   11 2   
    25   10   24 1   
    26   10   25 1   
@<TRIPOS>SUBSTRUCTURE
     1 03N         1 TEMP              0 ****  ****    0 ROOT
