@<TRIPOS>MOLECULE
03N
   27    27     1     0     0
SMALL
bcc


@<TRIPOS>ATOM
      1 N24         3.9320   -0.6230   -0.2740 n3        1 03N     -0.915800
      2 C25         2.8600    0.2330   -0.7230 c3        1 03N      0.160800
      3 C26         1.6540    0.2660    0.2250 c3        1 03N     -0.065700
      4 C27         0.9070   -1.0580    0.2180 c3        1 03N     -0.106900
      5 C28        -0.3800   -0.9700    1.0380 c3        1 03N      0.178800
      6 N29        -1.2580    0.1570    0.7580 nh        1 03N     -0.696600
      7 C30        -0.5310    1.4170    0.6700 c3        1 03N      0.178800
      8 C31         0.7250    1.3940   -0.2000 c3        1 03N     -0.106900
      9 C32        -2.2010   -0.0370   -0.3440 c2        1 03N      0.738100
     10 N33        -3.3970    0.7410   -0.2180 nh        1 03N     -0.929800
     11 N34        -1.9280   -0.8240   -1.3510 n2        1 03N     -0.858100
     12 HN24        3.5950   -1.5410   -0.0580 hn        1 03N      0.347800
     13 H125        3.2810    1.2770   -0.7970 h1        1 03N      0.026700
     14 H225        2.4830   -0.0470   -1.7520 h1        1 03N      0.026700
     15 H26         2.0130    0.4730    1.2720 hc        1 03N      0.061700
     16 H127        0.6710   -1.3550   -0.8360 hc        1 03N      0.054200
     17 H227        1.5450   -1.8630    0.6670 hc        1 03N      0.054200
     18 H128       -0.9560   -1.9290    0.9200 h1        1 03N      0.056200
     19 H228       -0.1040   -0.8610    2.1270 h1        1 03N      0.056200
     20 H130       -1.2180    2.2260    0.2980 h1        1 03N      0.056200
     21 H230       -0.2340    1.6720    1.7280 h1        1 03N      0.056200
     22 H131        1.2490    2.3790   -0.0980 hc        1 03N      0.054200
     23 H231        0.4410    1.2640   -1.2760 hc        1 03N      0.054200
     24 H133       -3.5310    1.1690    0.6720 hn        1 03N      0.392300
     25 H233       -4.2140    0.2690   -0.5370 hn        1 03N      0.392300
     26 H134       -2.6560   -0.9430   -2.0210 hn        1 03N      0.389400
     27 H2          4.6370   -0.6910   -0.9800 hn        1 03N      0.347800
@<TRIPOS>BOND
     1    1    2 1   
     2    1   12 1   
     3    1   27 1   
     4    2    3 1   
     5    2   13 1   
     6    2   14 1   
     7    3    4 1   
     8    3    8 1   
     9    3   15 1   
    10    4    5 1   
    11    4   16 1   
    12    4   17 1   
    13    5    6 1   
    14    5   18 1   
    15    5   19 1   
    16    6    7 1   
    17    6    9 1   
    18    7    8 1   
    19    7   20 1   
    20    7   21 1   
    21    8   22 1   
    22    8   23 1   
    23    9   10 1   
    24    9   11 2   
    25   10   24 1   
    26   10   25 1   
    27   11   26 1   
@<TRIPOS>SUBSTRUCTURE
     1 03N         1 TEMP              0 ****  ****    0 ROOT
