@<TRIPOS>MOLECULE
03N
   29    29     1     0     0
SMALL
bcc


@<TRIPOS>ATOM
      1 N24        -0.1750   -0.0090    0.0180 n4        1 03N     -0.837600
      2 C25         1.2710    0.3490    0.0770 c3        1 03N      0.099800
      3 C26         1.9210    0.0730    1.4370 c3        1 03N     -0.093700
      4 C27         1.5220    1.1050    2.4800 c3        1 03N     -0.118400
      5 C28         2.2560    0.8520    3.8000 c3        1 03N      0.172800
      6 N29         3.6960    0.6770    3.7040 nh        1 03N     -0.752600
      7 C30         4.1320   -0.1640    2.5980 c3        1 03N      0.172800
      8 C31         3.4350    0.0870    1.2600 c3        1 03N     -0.118400
      9 C32         4.4780    1.8650    3.9240 c2        1 03N      0.671100
     10 N33         5.5660    1.6140    4.9560 n4        1 03N     -0.810600
     11 N34         4.4250    3.0700    3.4820 n2        1 03N     -0.705100
     12 HN24       -0.7060    0.5190    0.7190 hn        1 03N      0.470133
     13 H125        1.3620    1.4460   -0.1790 hx        1 03N      0.121700
     14 H225        1.8000   -0.2520   -0.7220 hx        1 03N      0.121700
     15 H26         1.6210   -0.9520    1.8030 hc        1 03N      0.085700
     16 H127        0.4220    1.0550    2.6920 hc        1 03N      0.071950
     17 H227        1.7480    2.1370    2.1020 hc        1 03N      0.071950
     18 H128        2.0150    1.6860    4.5190 h1        1 03N      0.091950
     19 H228        1.8710   -0.1120    4.2500 h1        1 03N      0.091950
     20 H130        3.9220   -1.2250    2.9260 h1        1 03N      0.091950
     21 H230        5.2440   -0.0590    2.4510 h1        1 03N      0.091950
     22 H131        3.7530   -0.7230    0.5500 hc        1 03N      0.071950
     23 H231        3.7600    1.0670    0.8250 hc        1 03N      0.071950
     24 H133        6.1920    0.8750    4.6160 hn        1 03N      0.483133
     25 H233        6.1100    2.4730    5.1260 hn        1 03N      0.483133
     26 H134        3.7350    3.3080    2.8010 hn        1 03N      0.474400
     27 H2         -0.5490    0.2080   -0.9150 hn        1 03N      0.470133
     28 H243       -0.3040   -1.0120    0.1990 hn        1 03N      0.470133
     29 H333        5.1300    1.3080    5.8350 hn        1 03N      0.483133
@<TRIPOS>BOND
     1    1    2 1   
     2    1   12 1   
     3    1   27 1   
     4    1   28 1   
     5    2    3 1   
     6    2   13 1   
     7    2   14 1   
     8    3    4 1   
     9    3    8 1   
    10    3   15 1   
    11    4    5 1   
    12    4   16 1   
    13    4   17 1   
    14    5    6 1   
    15    5   18 1   
    16    5   19 1   
    17    6    7 1   
    18    6    9 1   
    19    7    8 1   
    20    7   20 1   
    21    7   21 1   
    22    8   22 1   
    23    8   23 1   
    24    9   10 1   
    25    9   11 2   
    26   10   24 1   
    27   10   25 1   
    28   10   29 1   
    29   11   26 1   
@<TRIPOS>SUBSTRUCTURE
     1 03N         1 TEMP              0 ****  ****    0 ROOT
