@<TRIPOS>MOLECULE
03N
   29    29     1     0     0
SMALL
bcc


@<TRIPOS>ATOM
      1 N24        -0.1220   -0.0350   -0.0390 n4        1 03N     -0.837600
      2 C25         1.3240    0.3180    0.0500 c3        1 03N      0.099800
      3 C26         1.9390    0.0620    1.4280 c3        1 03N     -0.093700
      4 C27         1.5200    1.1130    2.4440 c3        1 03N     -0.118400
      5 C28         2.2210    0.8780    3.7860 c3        1 03N      0.172800
      6 N29         3.6620    0.6960    3.7270 nh        1 03N     -0.752600
      7 C30         4.1210   -0.1640    2.6470 c3        1 03N      0.172800
      8 C31         3.4580    0.0660    1.2880 c3        1 03N     -0.118400
      9 C32         4.4440    1.8850    3.9470 c2        1 03N      0.671100
     10 N33         5.5080    1.6450    5.0070 n4        1 03N     -0.810600
     11 N34         4.4050    3.0830    3.4860 n2        1 03N     -0.705100
     12 HN24       -0.2610   -1.0340    0.1560 hn        1 03N      0.470133
     13 H125        1.8680   -0.2990   -0.7270 hx        1 03N      0.121700
     14 H225        1.4260    1.4090   -0.2230 hx        1 03N      0.121700
     15 H26         1.6260   -0.9550    1.8040 hc        1 03N      0.085700
     16 H127        1.7590    2.1380    2.0550 hc        1 03N      0.071950
     17 H227        0.4150    1.0710    2.6310 hc        1 03N      0.071950
     18 H128        1.9660    1.7250    4.4850 h1        1 03N      0.091950
     19 H228        1.8210   -0.0760    4.2420 h1        1 03N      0.091950
     20 H130        5.2370   -0.0670    2.5240 h1        1 03N      0.091950
     21 H230        3.8990   -1.2200    2.9870 h1        1 03N      0.091950
     22 H131        3.7970    1.0380    0.8440 hc        1 03N      0.071950
     23 H231        3.7890   -0.7560    0.5990 hc        1 03N      0.071950
     24 H133        6.1390    0.8990    4.6920 hn        1 03N      0.483133
     25 H233        6.0510    2.5050    5.1760 hn        1 03N      0.483133
     26 H134        3.7320    3.3130    2.7860 hn        1 03N      0.474400
     27 H2         -0.4720    0.1680   -0.9840 hn        1 03N      0.470133
     28 H243       -0.6680    0.5080    0.6400 hn        1 03N      0.470133
     29 H333        5.0510    1.3530    5.8800 hn        1 03N      0.483133
@<TRIPOS>BOND
     1    1    2 1   
     2    1   12 1   
     3    1   27 1   
     4    1   28 1   
     5    2    3 1   
     6    2   13 1   
     7    2   14 1   
     8    3    4 1   
     9    3    8 1   
    10    3   15 1   
    11    4    5 1   
    12    4   16 1   
    13    4   17 1   
    14    5    6 1   
    15    5   18 1   
    16    5   19 1   
    17    6    7 1   
    18    6    9 1   
    19    7    8 1   
    20    7   20 1   
    21    7   21 1   
    22    8   22 1   
    23    8   23 1   
    24    9   10 1   
    25    9   11 2   
    26   10   24 1   
    27   10   25 1   
    28   10   29 1   
    29   11   26 1   
@<TRIPOS>SUBSTRUCTURE
     1 03N         1 TEMP              0 ****  ****    0 ROOT
