@<TRIPOS>MOLECULE
03N
   29    29     1     0     0
SMALL
bcc


@<TRIPOS>ATOM
      1 N24        -0.1190    0.0070   -0.0570 nz        1 03N     -0.837600
      2 C25         1.3340    0.3320    0.0410 c3        1 03N      0.099800
      3 C26         1.9330    0.0730    1.4260 c3        1 03N     -0.093700
      4 C27         1.5280    1.1390    2.4320 c3        1 03N     -0.118400
      5 C28         2.2120    0.9000    3.7810 c3        1 03N      0.172800
      6 N29         3.6500    0.6870    3.7350 nh        1 03N     -0.752600
      7 C30         4.1000   -0.1910    2.6640 c3        1 03N      0.172800
      8 C31         3.4520    0.0440    1.2990 c3        1 03N     -0.118400
      9 C32         4.4540    1.8610    3.9530 c2        1 03N      0.671100
     10 N33         5.5030    1.6070    5.0250 nz        1 03N     -0.810600
     11 N34         4.4460    3.0550    3.4810 n2        1 03N     -0.705100
     12 HN24       -0.6580    0.5660    0.6140 hn        1 03N      0.470133
     13 H125        1.4610    1.4190   -0.2390 hx        1 03N      0.121700
     14 H225        1.8720   -0.3010   -0.7270 hx        1 03N      0.121700
     15 H26         1.5950   -0.9350    1.8060 hc        1 03N      0.085700
     16 H127        1.7910    2.1560    2.0370 hc        1 03N      0.071950
     17 H227        0.4210    1.1210    2.6090 hc        1 03N      0.071950
     18 H128        1.9700    1.7570    4.4710 h1        1 03N      0.091950
     19 H228        1.7890   -0.0430    4.2400 h1        1 03N      0.091950
     20 H130        5.2180   -0.1170    2.5500 h1        1 03N      0.091950
     21 H230        3.8530   -1.2390    3.0090 h1        1 03N      0.091950
     22 H131        3.7710   -0.7900    0.6180 hc        1 03N      0.071950
     23 H231        3.8150    1.0060    0.8510 hc        1 03N      0.071950
     24 H133        6.1200    0.8460    4.7230 hn        1 03N      0.483133
     25 H233        5.0310    1.3330    5.8950 hn        1 03N      0.483133
     26 H134        3.7840    3.2940    2.7720 hn        1 03N      0.474400
     27 H2         -0.4570    0.2110   -1.0070 hn        1 03N      0.470133
     28 H243       -0.2790   -0.9870    0.1430 hn        1 03N      0.470133
     29 H333        6.0630    2.4570    5.1910 hn        1 03N      0.483133
@<TRIPOS>BOND
     1    1    2 1   
     2    1   12 1   
     3    1   27 1   
     4    1   28 1   
     5    2    3 1   
     6    2   13 1   
     7    2   14 1   
     8    3    4 1   
     9    3    8 1   
    10    3   15 1   
    11    4    5 1   
    12    4   16 1   
    13    4   17 1   
    14    5    6 1   
    15    5   18 1   
    16    5   19 1   
    17    6    7 1   
    18    6    9 1   
    19    7    8 1   
    20    7   20 1   
    21    7   21 1   
    22    8   22 1   
    23    8   23 1   
    24    9   10 1   
    25    9   11 2   
    26   10   24 1   
    27   10   25 1   
    28   10   29 1   
    29   11   26 1   
@<TRIPOS>SUBSTRUCTURE
     1 03N         1 TEMP              0 ****  ****    0 ROOT
