@<TRIPOS>MOLECULE
03O
   42    40     1     0     0
SMALL
bcc


@<TRIPOS>ATOM
      1 N1          1.4040   -1.1600   -0.2720 n2        1 03O     -0.250000
      2 C2          2.2840    0.0200   -0.3720 c3        1 03O      0.151000
      3 NA2         3.6800   -0.2150    0.0370 n8        1 03O     -0.363000
      4 N3          1.7270    1.2350    0.2460 ns        1 03O     -0.374000
      5 C4          0.9040    1.1680    1.3480 c2        1 03O      0.300000
      6 O4          0.5480    2.2070    1.9410 o         1 03O     -0.367000
      7 C4A         0.4160   -0.1990    1.7810 c2        1 03O     -0.063000
      8 N5         -0.0080   -0.5310    2.9460 n2        1 03O     -0.096000
      9 C6         -5.1450    2.2200    5.5140 c3        1 03O     -0.206000
     10 C7         -0.2620   -3.4760    0.7680 c2        1 03O     -0.057000
     11 N8         -0.5070   -2.2260    0.6800 n2        1 03O     -0.130000
     12 C8A         0.5150   -1.2370    0.6750 c2        1 03O      0.109000
     13 C9         -4.5960    2.5080    4.1250 c3        1 03O     -0.089000
     14 N10        -3.1870    2.7630    4.1010 n2        1 03O     -0.207000
     15 C11        -0.1190    0.3610    4.0490 c3        1 03O     -0.172000
     16 C12        -0.4340    6.1880    4.8620 c1        1 03O     -0.207000
     17 C13        -0.7990    5.2270    4.2510 c1        1 03O     -0.174000
     18 C14        -1.2030    4.0640    3.5180 c3        1 03O     -0.025000
     19 C15        -2.7000    3.8460    3.5950 c2        1 03O      0.089000
     20 C16        -3.4980    4.9480    3.0170 c2        1 03O     -0.489000
     21 C17        -4.8110    4.9340    2.9090 c1        1 03O      0.167000
     22 O           0.6720   10.3370    8.6780 o         1 03O     -0.208500
     23 HN21        4.0990   -0.9020   -0.5570 hn        1 03O      0.162000
     24 HN22        2.3220    0.2410   -1.4950 h3        1 03O      0.141000
     25 HN3         2.1810    2.0960    0.0370 hn        1 03O      0.249000
     26 H6         -4.6210    1.3490    5.9760 hc        1 03O      0.084000
     27 H71         0.7300   -3.9570    0.8600 h4        1 03O      0.127500
     28 H72        -5.0240    3.1030    6.1850 hc        1 03O      0.084000
     29 HN8        -1.1340   -4.1580    0.7630 h4        1 03O      0.127500
     30 H91        -6.2320    1.9810    5.4270 hc        1 03O      0.084000
     31 H92        -4.7770    1.6110    3.4640 h1        1 03O      0.093000
     32 HN1        -5.2340    3.3640    3.6760 h1        1 03O      0.093000
     33 H111        0.0460   -0.2440    4.9810 h1        1 03O      0.114333
     34 H112       -1.1640    0.7820    4.0710 h1        1 03O      0.114333
     35 H113        0.6010    1.2260    4.0330 h1        1 03O      0.114333
     36 H13        -0.9240    4.1700    2.4300 hc        1 03O      0.134000
     37 H14        -0.6410    3.1600    3.8990 hc        1 03O      0.134000
     38 H16        -2.9100    5.8220    2.6790 ha        1 03O      0.204000
     39 H17        -0.1090    7.0420    5.4040 ha        1 03O      0.231000
     40 OXT         0.4270    8.8530    6.8350 o         1 03O     -0.208500
     41 HA23        3.7610   -0.4980    0.9920 hn        1 03O      0.162000
     42 C           0.5490    9.5950    7.7570 c1        1 03O      0.417000
@<TRIPOS>BOND
     1    1    2 1   
     2    1   12 1   
     3    2    3 1   
     4    2    4 1   
     5    2   24 1   
     6    3   23 1   
     7    3   41 1   
     8    4    5 1   
     9    4   25 1   
    10    5    6 1   
    11    5    7 1   
    12    7    8 1   
    13    7   12 1   
    14    8   15 1   
    15    9   13 1   
    16    9   26 1   
    17    9   28 1   
    18    9   30 1   
    19   10   11 1   
    20   10   27 1   
    21   10   29 1   
    22   11   12 1   
    23   13   14 1   
    24   13   31 1   
    25   13   32 1   
    26   14   19 1   
    27   15   33 1   
    28   15   34 1   
    29   15   35 1   
    30   16   17 1   
    31   16   39 1   
    32   17   18 1   
    33   18   19 1   
    34   18   36 1   
    35   18   37 1   
    36   19   20 1   
    37   20   21 1   
    38   20   38 1   
    39   22   42 1   
    40   40   42 1   
@<TRIPOS>SUBSTRUCTURE
     1 03O         1 TEMP              0 ****  ****    0 ROOT
