@<TRIPOS>MOLECULE
03O
   41    38     1     0     0
SMALL
bcc


@<TRIPOS>ATOM
      1 N1          1.8460   -1.6570   -3.4110 n1        1 03O     -0.262000
      2 C2          3.3350   -1.5000   -3.3910 c1        1 03O      0.200000
      3 NA2         4.0340   -1.2300   -4.5970 n2        1 03O     -0.313000
      4 N3          4.1090   -1.6340   -2.0720 n         1 03O     -0.329000
      5 C4          3.3890   -1.7690   -0.8120 c2        1 03O      0.354000
      6 O4          4.0000   -1.8000    0.2380 o         1 03O     -0.387000
      7 C4A         1.9330   -1.8260   -0.8090 c2        1 03O     -0.204000
      8 N5          1.1510   -2.2140    0.2690 n3        1 03O     -0.182000
      9 C6         -0.3480   -1.8140    0.2150 c3        1 03O     -0.039000
     10 C7         -0.9080   -2.1030   -0.8210 c3        1 03O     -0.043000
     11 N8         -0.2690   -1.5330   -2.0620 n3        1 03O     -0.264000
     12 C8A         1.1320   -1.7370   -2.2060 c1        1 03O      0.143000
     13 C9         -0.4540   -0.1810    0.4210 c3        1 03O     -0.097000
     14 N10        -1.3670    0.1050    1.4710 n3        1 03O     -0.265000
     15 C11         1.7610   -2.5180    1.5190 c3        1 03O     -0.110000
     16 C12        -3.0480    3.9160    1.9010 c1        1 03O     -0.115000
     17 C13        -2.4700    3.2870    2.9920 c1        1 03O     -0.143500
     18 C14        -1.8970    2.0330    2.8460 c1        1 03O     -0.143500
     19 C15        -1.9030    1.4090    1.6080 c1        1 03O     -0.019000
     20 C16        -2.4820    2.0380    0.5170 c1        1 03O     -0.174000
     21 C17        -3.0540    3.2920    0.6640 c1        1 03O     -0.094000
     22 C          -3.6690    5.2860    2.0600 c2        1 03O      0.358000
     23 O          -2.9510    6.3160    1.9700 o         1 03O     -0.566500
     24 HN21        3.5750   -1.1580   -5.3850 hn        1 03O      0.198000
     25 HN22        4.9440   -1.1490   -4.5900 hn        1 03O      0.198000
     26 HN3         5.0160   -1.5380   -2.0670 hn        1 03O      0.247000
     27 H6         -0.8140   -2.2530    0.9540 h1        1 03O      0.105000
     28 H71        -1.8320   -1.7810   -0.7730 h1        1 03O      0.105000
     29 H72        -0.9230   -3.0800   -0.9020 h1        1 03O      0.105000
     30 HN8        -0.7800   -1.3460   -2.7940 hn        1 03O      0.219000
     31 H91        -0.7710    0.2330   -0.4090 h1        1 03O      0.081500
     32 H92         0.4280    0.1780    0.6480 h1        1 03O      0.081500
     33 HN1        -1.6090   -0.5500    2.0570 hn        1 03O      0.155000
     34 H111        2.1180   -1.6950    1.9170 h1        1 03O      0.082667
     35 H112        2.4930   -3.1570    1.3780 h1        1 03O      0.082667
     36 H113        1.0940   -2.9110    2.1220 h1        1 03O      0.082667
     37 H13        -2.4650    3.7260    3.8640 ha        1 03O      0.128000
     38 H14        -1.4900    1.5900    3.6140 ha        1 03O      0.128000
     39 H16        -2.4870    1.5980   -0.3540 ha        1 03O      0.108000
     40 H17        -3.4690    3.7310   -0.1020 ha        1 03O      0.152000
     41 OXT        -4.8980    5.3950    2.3130 o         1 03O     -0.566500
@<TRIPOS>BOND
     1    1    2 1   
     2    2    4 1   
     3    3   24 1   
     4    3   25 1   
     5    4    5 1   
     6    4   26 1   
     7    5    6 1   
     8    5    7 1   
     9    7    8 1   
    10    7   12 1   
    11    8    9 1   
    12    8   15 1   
    13    9   10 1   
    14    9   13 1   
    15    9   27 1   
    16   10   11 1   
    17   10   28 1   
    18   10   29 1   
    19   11   12 1   
    20   11   30 1   
    21   13   14 1   
    22   13   31 1   
    23   13   32 1   
    24   14   19 1   
    25   14   33 1   
    26   15   34 1   
    27   15   35 1   
    28   15   36 1   
    29   16   21 1   
    30   16   22 1   
    31   17   18 1   
    32   17   37 1   
    33   18   38 1   
    34   19   20 1   
    35   20   39 1   
    36   21   40 1   
    37   22   23 1   
    38   22   41 1   
@<TRIPOS>SUBSTRUCTURE
     1 03O         1 TEMP              0 ****  ****    0 ROOT
