@<TRIPOS>MOLECULE
03O
   42    41     1     0     0
SMALL
bcc


@<TRIPOS>ATOM
      1 N1          0.1410   -1.1670   -0.3550 n2        1 03O     -0.281000
      2 C2          1.3870   -0.7180   -0.1200 c2        1 03O      0.230000
      3 NA2         2.3360   -0.7240   -1.1680 nh        1 03O     -0.329000
      4 N3          1.7820   -0.1820    1.1160 n         1 03O     -0.329000
      5 C4          0.8480   -0.0380    2.1620 c2        1 03O      0.327000
      6 O4          1.2650    0.4930    3.2120 o         1 03O     -0.380000
      7 C4A        -0.5220   -0.5310    1.9220 c2        1 03O     -0.138000
      8 N5         -1.4900   -0.5120    2.9540 nh        1 03O     -0.225000
      9 C6         -2.2950    0.6880    3.0350 c3        1 03O     -0.047000
     10 C7         -2.5180   -2.4900   -0.1310 c2        1 03O     -0.066000
     11 N8         -2.1660   -1.3400    0.2960 n2        1 03O     -0.118000
     12 C8A        -0.8210   -1.0320    0.6460 c2        1 03O      0.123000
     13 C9         -1.5880    2.0300    3.3190 c3        1 03O     -0.088000
     14 N10        -0.9430    2.0660    4.6120 n3        1 03O     -0.276000
     15 C11        -1.0720   -1.1030    4.2040 c3        1 03O     -0.103000
     16 C12        -1.7610   10.5120    4.8630 c2        1 03O     -0.517000
     17 C13        -0.6590   11.1940    5.1070 c1        1 03O      0.319000
     18 C14         0.4400    3.5470    5.9520 c2        1 03O     -0.291000
     19 C15        -0.6380    3.3320    5.1590 c2        1 03O      0.107000
     20 C16        -1.5590    4.3980    4.9420 c1        1 03O     -0.132000
     21 C17        -2.3110    5.3170    4.7840 c1        1 03O     -0.219000
     22 O          -0.8190    8.3480    5.0750 oh        1 03O     -0.318000
     23 HN21        3.2700   -0.9350   -0.8970 hn        1 03O      0.215000
     24 HN22       -2.9860    6.1280    4.6420 ha        1 03O      0.245000
     25 HN3         2.6920    0.2040    1.2430 hn        1 03O      0.249000
     26 H6         -2.8120    0.8070    2.0400 h1        1 03O      0.104000
     27 H71        -1.8720   -3.3770   -0.2740 h4        1 03O      0.123500
     28 H72        -3.0800    0.5120    3.8240 h1        1 03O      0.104000
     29 HN8        -3.5880   -2.6250   -0.3790 h4        1 03O      0.123500
     30 H91        -2.3780    2.8330    3.2740 h1        1 03O      0.081000
     31 H92        -0.8480    2.2270    2.4870 h1        1 03O      0.081000
     32 HN1        -0.1560    1.4420    4.6550 hn        1 03O      0.207000
     33 H111       -1.8780   -0.9530    4.9690 h1        1 03O      0.079667
     34 H112       -0.1110   -0.6860    4.6090 h1        1 03O      0.079667
     35 H113       -0.9310   -2.2040    4.0350 h1        1 03O      0.079667
     36 H13         0.5910    4.5060    6.4590 ha        1 03O      0.123000
     37 H14         1.2010    2.7820    6.1400 ha        1 03O      0.123000
     38 H16        -1.0220    7.3960    5.0320 ho        1 03O      0.261000
     39 H17        -2.6960   11.0840    4.6560 ha        1 03O      0.225000
     40 OXT        -2.9830    8.4400    4.5910 o         1 03O     -0.366000
     41 HA23        2.0350   -1.1930   -1.9960 hn        1 03O      0.215000
     42 C          -1.9470    9.0710    4.8220 c2        1 03O      0.396000
@<TRIPOS>BOND
     1    1    2 1   
     2    1   12 1   
     3    2    3 1   
     4    2    4 1   
     5    3   23 1   
     6    3   41 1   
     7    4    5 1   
     8    4   25 1   
     9    5    6 1   
    10    5    7 1   
    11    7    8 1   
    12    7   12 1   
    13    8    9 1   
    14    8   15 1   
    15    9   13 1   
    16    9   26 1   
    17    9   28 1   
    18   10   11 1   
    19   10   27 1   
    20   10   29 1   
    21   11   12 1   
    22   13   14 1   
    23   13   30 1   
    24   13   31 1   
    25   14   19 1   
    26   14   32 1   
    27   15   33 1   
    28   15   34 1   
    29   15   35 1   
    30   16   17 1   
    31   16   39 1   
    32   16   42 1   
    33   18   19 1   
    34   18   36 1   
    35   18   37 1   
    36   19   20 1   
    37   20   21 1   
    38   21   24 1   
    39   22   38 1   
    40   22   42 1   
    41   40   42 1   
@<TRIPOS>SUBSTRUCTURE
     1 03O         1 TEMP              0 ****  ****    0 ROOT
