@<TRIPOS>MOLECULE
03O
   41    40     1     0     0
SMALL
bcc


@<TRIPOS>ATOM
      1 N1          0.5440   -0.7310    0.0260 n2        1 03O     -0.169000
      2 C2          1.7070   -0.8950    0.6280 c2        1 03O      0.092000
      3 NA2         2.7900   -1.5920   -0.0260 n3        1 03O     -0.289000
      4 N3          1.9890   -0.4410    1.9480 n         1 03O     -0.336000
      5 C4          1.0060    0.1330    2.7350 c2        1 03O      0.286000
      6 O4          1.2980    0.4740    3.8980 o         1 03O     -0.371000
      7 C4A        -0.4110    0.3620    2.1710 c3        1 03O      0.058000
      8 N5         -1.4680   -0.2140    2.9910 n3        1 03O     -0.262000
      9 C6         -1.6810    0.4240    4.2840 c3        1 03O     -0.073000
     10 C7         -2.6710    0.2750   -0.4470 c1        1 03O     -0.185000
     11 N8         -1.6450    0.0860    0.0840 n2        1 03O      0.157000
     12 C8A        -0.4970   -0.1120    0.7230 c2        1 03O     -0.250000
     13 C9         -2.0360    1.9230    4.2360 c3        1 03O     -0.069000
     14 N10        -0.8920    2.7990    4.1140 n3        1 03O     -0.307000
     15 C11        -1.3940   -1.6540    3.1130 c3        1 03O     -0.124000
     16 C12        -1.3690    8.8640    4.4830 c2        1 03O     -0.535000
     17 C13        -0.4060    8.3490    5.1700 c1        1 03O      0.018000
     18 C14        -0.0680    4.9210    4.9480 c2        1 03O     -0.294000
     19 C15        -1.0830    4.1570    4.4840 c2        1 03O      0.065000
     20 C16        -2.4050    4.7410    4.2730 c2        1 03O     -0.444000
     21 C17        -3.5180    4.1980    3.8500 c1        1 03O      0.118000
     22 O          -3.4020    9.8300    5.2830 o         1 03O     -0.530500
     23 HN21        2.4540   -2.1060   -0.8180 hn        1 03O      0.170500
     24 HN22        3.4850   -0.9310   -0.3210 hn        1 03O      0.170500
     25 HN3         2.8860   -0.6120    2.3440 hn        1 03O      0.244000
     26 H6         -0.5500    1.4890    2.1680 h1        1 03O      0.166000
     27 H71        -2.5680   -0.0970    4.7480 h1        1 03O      0.085000
     28 H72        -0.7940    0.2670    4.9680 h1        1 03O      0.085000
     29 HN8        -3.5800    0.5320   -0.9330 ha        1 03O      0.300000
     30 H91        -2.6300    2.1370    5.1750 h1        1 03O      0.092000
     31 H92        -2.7180    2.1210    3.3560 h1        1 03O      0.092000
     32 HN1        -0.0620    2.4070    4.5200 hn        1 03O      0.192000
     33 H111       -0.5460   -1.9950    3.7700 h1        1 03O      0.074000
     34 H112       -2.3560   -2.0270    3.5510 h1        1 03O      0.074000
     35 H113       -1.2610   -2.1060    2.0960 h1        1 03O      0.074000
     36 H13        -0.2010    5.9980    5.1380 ha        1 03O      0.135500
     37 H14         0.9340    4.5240    5.1420 ha        1 03O      0.135500
     38 H16        -2.4910    5.8480    4.5200 ha        1 03O      0.287000
     39 H17        -1.3340    9.4420    3.5530 ha        1 03O      0.181000
     40 OXT        -3.3830    7.6210    4.8940 o         1 03O     -0.530500
     41 C          -2.8510    8.7600    4.9410 c2        1 03O      0.418000
@<TRIPOS>BOND
     1    1    2 1   
     2    1   12 1   
     3    2    3 1   
     4    2    4 1   
     5    3   23 1   
     6    3   24 1   
     7    4    5 1   
     8    4   25 1   
     9    5    6 1   
    10    5    7 1   
    11    7    8 1   
    12    7   12 1   
    13    7   26 1   
    14    8    9 1   
    15    8   15 1   
    16    9   13 1   
    17    9   27 1   
    18    9   28 1   
    19   10   11 1   
    20   10   29 1   
    21   11   12 1   
    22   13   14 1   
    23   13   30 1   
    24   13   31 1   
    25   14   19 1   
    26   14   32 1   
    27   15   33 1   
    28   15   34 1   
    29   15   35 1   
    30   16   17 1   
    31   16   39 1   
    32   16   41 1   
    33   18   19 1   
    34   18   36 1   
    35   18   37 1   
    36   19   20 1   
    37   20   21 1   
    38   20   38 1   
    39   22   41 1   
    40   40   41 1   
@<TRIPOS>SUBSTRUCTURE
     1 03O         1 TEMP              0 ****  ****    0 ROOT
