@<TRIPOS>MOLECULE
03O
   41    43     1     0     0
SMALL
bcc


@<TRIPOS>ATOM
      1 N1          3.5750   -1.3330    1.2440 nc        1 03O     -0.687300
      2 C2          3.8140   -2.1390    0.2020 cd        1 03O      0.645800
      3 NA2         4.3220   -3.4530    0.4280 nh        1 03O     -0.874800
      4 N3          3.6430   -1.7380   -1.1320 n         1 03O     -0.487400
      5 C4          3.1820   -0.4440   -1.4480 c         1 03O      0.714700
      6 O4          3.0840   -0.1780   -2.6630 o         1 03O     -0.651500
      7 C4A         2.8760    0.4390   -0.3180 cd        1 03O     -0.111200
      8 N5          2.3910    1.7550   -0.5250 nh        1 03O     -0.603400
      9 C6          1.5920    2.2390    0.5990 c3        1 03O      0.161500
     10 C7          2.4340    2.1190    1.8990 c3        1 03O      0.188800
     11 N8          3.0660    0.8360    2.0990 nh        1 03O     -0.706000
     12 C8A         3.1600   -0.0210    0.9860 cc        1 03O      0.342600
     13 C9          0.2350    1.5340    0.8540 c3        1 03O      0.144800
     14 N10        -0.8070    1.9010   -0.0800 nh        1 03O     -0.707600
     15 C11         1.9060    2.0950   -1.8390 c3        1 03O      0.174100
     16 C12        -4.3400   -0.4570   -0.0510 ca        1 03O     -0.142600
     17 C13        -3.8960    0.1580   -1.2240 ca        1 03O     -0.087000
     18 C14        -2.7240    0.9070   -1.2420 ca        1 03O     -0.195500
     19 C15        -1.9620    1.0690   -0.0620 ca        1 03O      0.073600
     20 C16        -2.4170    0.4510    1.1210 ca        1 03O     -0.195500
     21 C17        -3.5910   -0.2970    1.1160 ca        1 03O     -0.087000
     22 O          -6.2550   -1.3960   -1.1280 o         1 03O     -0.833800
     23 HN21        4.3810   -3.6820    1.4010 hn        1 03O      0.403300
     24 HN22        3.8320   -4.1530   -0.0900 hn        1 03O      0.403300
     25 HN3         3.8690   -2.3500   -1.8850 hn        1 03O      0.336500
     26 H6          1.4050    3.3380    0.4180 h1        1 03O      0.079700
     27 H71         3.2610    2.8860    1.8530 h1        1 03O      0.054700
     28 H72         1.7800    2.3650    2.7800 h1        1 03O      0.054700
     29 HN8         2.8260    0.3820    2.9560 hn        1 03O      0.412800
     30 H91         0.4070    0.4180    0.8910 h1        1 03O      0.040700
     31 H92        -0.1260    1.8510    1.8750 h1        1 03O      0.040700
     32 HN1        -0.4540    1.9900   -1.0140 hn        1 03O      0.366800
     33 H111        1.1690    1.3540   -2.2510 h1        1 03O      0.047367
     34 H112        1.4310    3.1100   -1.8060 h1        1 03O      0.047367
     35 H113        2.7880    2.1260   -2.5350 h1        1 03O      0.047367
     36 H13        -4.4970    0.0290   -2.1390 ha        1 03O      0.151000
     37 H14        -2.3960    1.3760   -2.1800 ha        1 03O      0.106000
     38 H16        -1.8550    0.5570    2.0590 ha        1 03O      0.106000
     39 H17        -3.9520   -0.7830    2.0370 ha        1 03O      0.151000
     40 OXT        -5.9520   -1.8440    1.0390 o         1 03O     -0.833800
     41 C          -5.6100   -1.2930   -0.0460 c         1 03O      0.909200
@<TRIPOS>BOND
     1    1    2 2   
     2    1   12 1   
     3    2    3 1   
     4    2    4 1   
     5    3   23 1   
     6    3   24 1   
     7    4    5 1   
     8    4   25 1   
     9    5    6 2   
    10    5    7 1   
    11    7    8 1   
    12    7   12 2   
    13    8    9 1   
    14    8   15 1   
    15    9   10 1   
    16    9   13 1   
    17    9   26 1   
    18   10   11 1   
    19   10   27 1   
    20   10   28 1   
    21   11   12 1   
    22   11   29 1   
    23   13   14 1   
    24   13   30 1   
    25   13   31 1   
    26   14   19 1   
    27   14   32 1   
    28   15   33 1   
    29   15   34 1   
    30   15   35 1   
    31   16   17 ar  
    32   16   21 ar  
    33   16   41 1   
    34   17   18 ar  
    35   17   36 1   
    36   18   19 ar  
    37   18   37 1   
    38   19   20 ar  
    39   20   21 ar  
    40   20   38 1   
    41   21   39 1   
    42   22   41 1   
    43   40   41 1   
@<TRIPOS>SUBSTRUCTURE
     1 03O         1 TEMP              0 ****  ****    0 ROOT
