@<TRIPOS>MOLECULE
03P
   65    66     1     0     0
SMALL
bcc


@<TRIPOS>ATOM
      1 N1          0.8210   -1.1930   -0.0620 n3        1 03P     -0.223000
      2 N3          6.6590    2.4540   -0.5650 n4        1 03P     -0.112000
      3 C4          3.3610    0.6890    3.9380 c1        1 03P      0.431000
      4 C5          2.7320    1.1500    2.8570 c2        1 03P     -0.574000
      5 C7          5.2010    2.7310   -0.6340 c3        1 03P     -0.154000
      6 C8          7.2460    2.4330    0.8420 c2        1 03P      0.272000
      7 C10         0.6880    0.1140   -2.8450 c2        1 03P      0.199000
      8 C13        -1.1710    0.0340   -5.0460 c2        1 03P      0.020000
      9 C15         1.0250    0.6390   -4.1620 c2        1 03P     -0.218000
     10 C17        -2.5300    0.1620   -8.3860 ca        1 03P     -0.100000
     11 C20        -0.4100   -1.6110   -8.8300 ca        1 03P     -0.131000
     12 C21        -0.6700   -1.1730   -7.5270 ca        1 03P     -0.154000
     13 C22         0.7520   -2.5750   -9.0510 c3        1 03P      0.467000
     14 C24        10.2100    3.9080   -0.2150 c2        1 03P     -0.106000
     15 F2          0.4660   -3.8810   -8.7400 f         1 03P     -0.159333
     16 F           1.2290   -2.6160  -10.3360 f         1 03P     -0.159333
     17 F1          1.8610   -2.2860   -8.2860 f         1 03P     -0.159333
     18 C19        -1.1960   -1.1860   -9.8980 ca        1 03P     -0.082000
     19 C18        -2.2580   -0.3040   -9.6680 ca        1 03P     -0.096000
     20 C16        -1.7220   -0.2810   -7.3240 ca        1 03P      0.035000
     21 O1         -2.0950    0.2050   -6.0650 os        1 03P     -0.129000
     22 C12        -1.5440   -0.5580   -3.8770 c2        1 03P     -0.074000
     23 CL         -3.0510   -1.2540   -3.6240 cl        1 03P      0.105000
     24 C11        -0.6060   -0.6460   -2.7250 c3        1 03P     -0.185000
     25 C14         0.1470    0.6040   -5.1920 c2        1 03P      0.009000
     26 C1          1.4430   -0.0490   -0.5410 c2        1 03P      0.210000
     27 C           0.8700   -1.5870    1.2680 c1        1 03P      0.103000
     28 C3          2.1460    0.7290    0.4470 c2        1 03P     -0.352000
     29 C2          2.1010    0.3190    1.8390 c2        1 03P      0.215000
     30 N           1.4960   -0.8150    2.1920 n2        1 03P     -0.205000
     31 N2          2.9180    1.8980    0.0520 n4        1 03P      0.079000
     32 O           6.4350    2.5080    1.7500 o         1 03P     -0.196000
     33 C9          8.7390    2.3030    0.9320 c3        1 03P     -0.139000
     34 C23         9.4870    2.7810   -0.2610 c2        1 03P     -0.224000
     35 O2          6.8110    3.4460   -3.1710 oh        1 03P     -0.474000
     36 C25         9.5020    1.8940   -1.4530 c3        1 03P     -0.206000
     37 HN3         7.1550    3.1860   -1.1140 hn        1 03P      0.282500
     38 H4          2.5060    2.3250   -0.7890 hn        1 03P      0.258500
     39 H5          2.5380    2.2420    2.8230 ha        1 03P      0.194000
     40 H6          4.7400    1.0500    0.7280 hx        1 03P      0.169500
     41 H6A         2.8860    2.5840    0.8200 hn        1 03P      0.258500
     42 H7          4.9960    3.6170    0.0360 hx        1 03P      0.165500
     43 H7A         4.3350    0.7460   -1.0400 hx        1 03P      0.169500
     44 H15         2.0230    1.0850   -4.3040 ha        1 03P      0.159000
     45 H17        -3.3630    0.8540   -8.1910 ha        1 03P      0.171000
     46 H21        -0.0560   -1.5400   -6.6920 ha        1 03P      0.145000
     47 H24         6.7800    4.3520   -3.5000 ho        1 03P      0.241500
     48 H24A       10.2470    4.5630    0.6690 ha        1 03P      0.150500
     49 H24B       10.8290    4.2370   -1.0650 ha        1 03P      0.150500
     50 H19        -0.9830   -1.5440  -10.9200 ha        1 03P      0.173000
     51 H18        -2.8860    0.0240  -10.5120 ha        1 03P      0.167000
     52 H11        -1.1570   -0.3210   -1.7940 hc        1 03P      0.159500
     53 H14         0.4080    1.0210   -6.1840 ha        1 03P      0.186000
     54 HN4        -0.3490   -1.7450   -2.6130 hc        1 03P      0.159500
     55 H           0.3310   -1.8050   -0.6870 hn        1 03P      0.276000
     56 H9          9.0510    2.8700    1.8600 hc        1 03P      0.178500
     57 H9A         8.9650    1.2120    1.1240 hc        1 03P      0.178500
     58 HO2         7.1840    2.9480   -3.9080 ho        1 03P      0.241500
     59 H25         9.1000    0.8780   -1.2220 hc        1 03P      0.096000
     60 H25A        8.9090    2.3410   -2.2930 hc        1 03P      0.096000
     61 H25B       10.5530    1.7600   -1.8220 hc        1 03P      0.096000
     62 C6          4.3400    1.5230   -0.2190 c3        1 03P     -0.156000
     63 N4          1.5330    0.3660   -1.8650 n2        1 03P     -0.345000
     64 H32         6.8750    1.5580   -1.0220 hn        1 03P      0.282500
     65 H42         4.9730    3.0210   -1.7060 hx        1 03P      0.165500
@<TRIPOS>BOND
     1    1   26 1   
     2    1   27 1   
     3    1   55 1   
     4    2    5 1   
     5    2    6 1   
     6    2   37 1   
     7    2   64 1   
     8    3    4 1   
     9    4   29 1   
    10    4   39 1   
    11    5   42 1   
    12    5   62 1   
    13    5   65 1   
    14    6   32 1   
    15    6   33 1   
    16    7    9 1   
    17    7   24 1   
    18    7   63 1   
    19    8   21 1   
    20    8   22 1   
    21    8   25 1   
    22    9   25 1   
    23    9   44 1   
    24   10   19 1   
    25   10   20 1   
    26   10   45 1   
    27   11   12 1   
    28   11   13 1   
    29   11   18 1   
    30   12   20 1   
    31   12   46 1   
    32   13   15 1   
    33   13   16 1   
    34   13   17 1   
    35   14   34 1   
    36   14   48 1   
    37   14   49 1   
    38   18   19 1   
    39   18   50 1   
    40   19   51 1   
    41   20   21 1   
    42   22   23 1   
    43   22   24 1   
    44   24   52 1   
    45   24   54 1   
    46   25   53 1   
    47   26   28 1   
    48   26   63 1   
    49   27   30 1   
    50   28   29 1   
    51   28   31 1   
    52   29   30 1   
    53   31   38 1   
    54   31   41 1   
    55   31   62 1   
    56   33   34 1   
    57   33   56 1   
    58   33   57 1   
    59   34   36 1   
    60   35   47 1   
    61   35   58 1   
    62   36   59 1   
    63   36   60 1   
    64   36   61 1   
    65   40   62 1   
    66   43   62 1   
@<TRIPOS>SUBSTRUCTURE
     1 03P         1 TEMP              0 ****  ****    0 ROOT
