@<TRIPOS>MOLECULE
03P
   64    65     1     0     0
SMALL
bcc


@<TRIPOS>ATOM
      1 N1          0.3850   -0.5830   -0.6400 n3        1 03P     -0.209000
      2 N3          6.4820    2.1510   -1.0720 n4        1 03P      0.061000
      3 C4          3.4420   -0.1410    3.7320 c1        1 03P     -0.079000
      4 C5          2.8030   -0.2140    2.7220 c1        1 03P     -0.207000
      5 C7          5.3690    1.3350   -1.3990 c2        1 03P     -0.715000
      6 C8          6.1730    3.4130   -0.3020 c2        1 03P      0.232000
      7 C10         1.0360    0.6770   -3.1530 ca        1 03P     -0.029000
      8 C13        -0.5690    0.5580   -5.4490 ca        1 03P      0.093000
      9 C15         1.5400    0.1170   -4.3450 ca        1 03P     -0.112000
     10 C17        -1.2890    0.0580   -8.8730 ca        1 03P     -0.098000
     11 C20        -0.8700   -2.6440   -8.2760 ca        1 03P     -0.140000
     12 C21        -0.9650   -1.7240   -7.2300 ca        1 03P     -0.123000
     13 C22        -0.6470   -4.1170   -7.9480 c3        1 03P      0.467000
     14 C24         8.6590    4.1470    1.6320 c2        1 03P     -0.161000
     15 F2         -1.7980   -4.8140   -7.6760 f         1 03P     -0.160333
     16 F          -0.0360   -4.8360   -8.9450 f         1 03P     -0.160333
     17 F1          0.1460   -4.3300   -6.8440 f         1 03P     -0.160333
     18 C19        -0.9930   -2.2330   -9.6050 ca        1 03P     -0.084000
     19 C18        -1.2070   -0.8840   -9.8960 ca        1 03P     -0.111000
     20 C16        -1.1670   -0.3780   -7.5440 ca        1 03P      0.032000
     21 O1         -1.3840    0.5970   -6.5660 os        1 03P     -0.131000
     22 C12        -1.0850    1.1220   -4.2630 ca        1 03P     -0.068000
     23 CL         -2.6580    1.7350   -4.1710 cl        1 03P      0.057000
     24 C11        -0.2770    1.1860   -3.1260 ca        1 03P     -0.115000
     25 C14         0.7440    0.0670   -5.4810 ca        1 03P     -0.157000
     26 C1          1.5530    0.1590   -0.8100 c2        1 03P      0.215000
     27 C           0.0480   -1.1760    0.5590 c1        1 03P      0.056000
     28 C3          2.3930    0.2970    0.3470 c2        1 03P     -0.344000
     29 C2          1.9780   -0.3530    1.5740 c2        1 03P      0.244000
     30 N           0.8480   -1.0650    1.6490 n2        1 03P     -0.196000
     31 N2          3.6120    1.0740    0.3040 n4        1 03P     -0.006000
     32 O           5.1110    3.4810    0.3090 o         1 03P     -0.252000
     33 C9          7.2260    4.4890   -0.3500 c3        1 03P     -0.161000
     34 C23         8.4900    4.0490    0.3090 c2        1 03P     -0.166000
     35 O2          7.9860    3.5720   -3.2990 oh        1 03P     -0.443000
     36 C25         9.5670    3.5870   -0.6000 c3        1 03P     -0.186000
     37 HN3         7.1570    1.6270   -0.5020 hn        1 03P      0.246500
     38 H4          3.9160    1.2560    1.2660 hn        1 03P      0.233500
     39 H5          4.0100   -0.0750    4.6300 ha        1 03P      0.246000
     40 H6          5.4610    0.0000    0.3070 hx        1 03P      0.116500
     41 H6A         3.4290    1.9940   -0.1250 hn        1 03P      0.233500
     42 H7          4.9940    1.4550   -2.4170 hx        1 03P      0.162000
     43 H7A         4.3080   -0.4610   -1.0390 hx        1 03P      0.116500
     44 H15         2.5670   -0.2800   -4.3930 ha        1 03P      0.147000
     45 H17        -1.4640    1.1230   -9.0880 ha        1 03P      0.165000
     46 H21        -0.8820   -2.0550   -6.1830 ha        1 03P      0.161000
     47 H24         7.6530    3.7220   -4.1900 ho        1 03P      0.225500
     48 H24A        7.8780    4.5290    2.3040 ha        1 03P      0.135000
     49 H24B        9.6010    3.8610    2.1240 ha        1 03P      0.135000
     50 H19        -0.9190   -2.9740  -10.4180 ha        1 03P      0.165000
     51 H18        -1.3100   -0.5620  -10.9440 ha        1 03P      0.158000
     52 H11        -0.6790    1.6510   -2.2090 ha        1 03P      0.166000
     53 H14         1.1400   -0.3660   -6.4140 ha        1 03P      0.169000
     54 HN4         2.8310    0.9730   -2.1960 hn        1 03P      0.251000
     55 H          -0.2460   -0.7000   -1.4110 hn        1 03P      0.279000
     56 H9          7.4200    4.7620   -1.4280 hc        1 03P      0.152500
     57 H9A         6.8080    5.3980    0.1660 hc        1 03P      0.152500
     58 HO2         8.9400    3.6760   -3.3830 ho        1 03P      0.225500
     59 H25        10.4580    3.2290   -0.0280 hc        1 03P      0.088667
     60 H25A        9.2090    2.7540   -1.2560 hc        1 03P      0.088667
     61 H25B        9.8910    4.4290   -1.2640 hc        1 03P      0.088667
     62 C6          4.7710    0.4030   -0.4860 c3        1 03P      0.026000
     63 N4          1.8680    0.7830   -2.0070 nh        1 03P     -0.268000
     64 H32         6.9520    2.4290   -1.9490 hn        1 03P      0.246500
@<TRIPOS>BOND
     1    1   26 1   
     2    1   27 1   
     3    1   55 1   
     4    2    5 1   
     5    2    6 1   
     6    2   37 1   
     7    2   64 1   
     8    3    4 1   
     9    3   39 1   
    10    4   29 1   
    11    5   42 1   
    12    5   62 1   
    13    6   32 1   
    14    6   33 1   
    15    7    9 1   
    16    7   24 1   
    17    7   63 1   
    18    8   21 1   
    19    8   22 1   
    20    8   25 1   
    21    9   25 1   
    22    9   44 1   
    23   10   19 1   
    24   10   20 1   
    25   10   45 1   
    26   11   12 1   
    27   11   13 1   
    28   11   18 1   
    29   12   20 1   
    30   12   46 1   
    31   13   15 1   
    32   13   16 1   
    33   13   17 1   
    34   14   34 1   
    35   14   48 1   
    36   14   49 1   
    37   18   19 1   
    38   18   50 1   
    39   19   51 1   
    40   20   21 1   
    41   22   23 1   
    42   22   24 1   
    43   24   52 1   
    44   25   53 1   
    45   26   28 1   
    46   26   63 1   
    47   27   30 1   
    48   28   29 1   
    49   28   31 1   
    50   29   30 1   
    51   31   38 1   
    52   31   41 1   
    53   31   62 1   
    54   33   34 1   
    55   33   56 1   
    56   33   57 1   
    57   34   36 1   
    58   35   47 1   
    59   35   58 1   
    60   36   59 1   
    61   36   60 1   
    62   36   61 1   
    63   40   62 1   
    64   43   62 1   
    65   54   63 1   
@<TRIPOS>SUBSTRUCTURE
     1 03P         1 TEMP              0 ****  ****    0 ROOT
