@<TRIPOS>MOLECULE
03P
   63    66     1     0     0
SMALL
bcc


@<TRIPOS>ATOM
      1 N1          1.8330   -3.7440   -0.6440 nb        1 03P     -0.749000
      2 N3          5.0690    1.6020    0.0870 n         1 03P     -0.571900
      3 C4          6.3590   -2.9250   -0.5700 cc        1 03P     -0.095100
      4 C5          5.9880   -4.2630   -0.5400 cd        1 03P     -0.296800
      5 C7          5.0780    0.1990    0.3900 c3        1 03P      0.074000
      6 C8          4.0840    2.1850   -0.6840 c         1 03P      0.674100
      7 C10         0.7980   -1.0590   -0.5090 ca        1 03P      0.160600
      8 C13        -1.9050   -0.2940   -0.4840 ca        1 03P      0.055100
      9 C15         0.3470    0.0330   -1.2910 ca        1 03P     -0.162000
     10 C17        -3.0670    1.4790    1.3530 ca        1 03P     -0.160000
     11 C20        -5.8340    1.8200    1.1910 ca        1 03P     -0.139300
     12 C21        -5.2010    0.9930    0.2660 ca        1 03P     -0.104000
     13 C22        -7.3460    2.0000    1.1250 c3        1 03P      0.687200
     14 C24         1.8700    4.0900    0.0160 c3        1 03P     -0.111100
     15 F2         -8.0530    1.1250    1.9150 f         1 03P     -0.236967
     16 F          -7.7900    3.2390    1.5230 f         1 03P     -0.236967
     17 F1         -7.8910    1.8370   -0.1260 f         1 03P     -0.236967
     18 C19        -5.1090    2.4730    2.1920 ca        1 03P     -0.116000
     19 C18        -3.7290    2.2980    2.2670 ca        1 03P     -0.103000
     20 C16        -3.8080    0.8320    0.3570 ca        1 03P      0.121100
     21 O1         -3.2580    0.0170   -0.6260 os        1 03P     -0.235200
     22 C12        -1.4750   -1.3700    0.3070 ca        1 03P      0.025400
     23 CL         -2.5560   -2.2360    1.2880 cl        1 03P     -0.066400
     24 C11        -0.1290   -1.7460    0.3010 ca        1 03P     -0.117000
     25 C14        -0.9870    0.4100   -1.2740 ca        1 03P     -0.105000
     26 C1          2.6720   -2.6720   -0.6050 ca        1 03P      0.685200
     27 C           2.3810   -4.9950   -0.6320 ca        1 03P      0.641900
     28 C3          4.0930   -2.9080   -0.6110 ca        1 03P     -0.315800
     29 C2          4.5400   -4.2970   -0.5780 ca        1 03P      0.448100
     30 N           3.6800   -5.3470   -0.5860 nb        1 03P     -0.676000
     31 N2          5.2300   -2.0910   -0.6010 na        1 03P     -0.058400
     32 O           3.1730    1.4790   -1.1750 o         1 03P     -0.657100
     33 C9          4.1710    3.6770   -0.9270 c3        1 03P     -0.183400
     34 C23         2.8020    4.3330   -1.1640 c3        1 03P      0.170800
     35 O2          2.2270    3.8500   -2.3710 oh        1 03P     -0.599800
     36 C25         3.0070    5.8310   -1.3780 c3        1 03P     -0.111100
     37 HN3         5.8260    2.1540    0.4100 hn        1 03P      0.319500
     38 H4          7.3620   -2.4910   -0.5670 h4        1 03P      0.168000
     39 H5          6.6400   -5.1300   -0.4990 ha        1 03P      0.175000
     40 H6          4.5840   -0.4030   -1.6720 h1        1 03P      0.069200
     41 H6A         6.3530   -0.4690   -1.2600 h1        1 03P      0.069200
     42 H7          5.8930    0.0040    1.1420 h1        1 03P      0.070700
     43 H7A         4.0930   -0.0770    0.8630 h1        1 03P      0.070700
     44 H15         1.0620    0.6050   -1.9080 ha        1 03P      0.156000
     45 H17        -1.9780    1.3370    1.4140 ha        1 03P      0.152000
     46 H21        -5.7670    0.4780   -0.5250 ha        1 03P      0.170000
     47 H24         2.3010    4.5300    0.9450 hc        1 03P      0.049200
     48 H24A        0.8810    4.5660   -0.1860 hc        1 03P      0.049200
     49 H24B        1.7140    2.9950    0.1670 hc        1 03P      0.049200
     50 H19        -5.6310    3.1240    2.9100 ha        1 03P      0.151000
     51 H18        -3.1550    2.8090    3.0540 ha        1 03P      0.142000
     52 H11         0.1910   -2.5880    0.9360 ha        1 03P      0.172000
     53 H14        -1.3400    1.2500   -1.8910 ha        1 03P      0.155000
     54 HN4         2.7510   -0.6550   -0.9040 hn        1 03P      0.449800
     55 H           1.6410   -5.8230   -0.6620 h5        1 03P      0.055100
     56 H9          4.6690    4.1980   -0.0690 hc        1 03P      0.077700
     57 H9A         4.7990    3.8250   -1.8470 hc        1 03P      0.077700
     58 HO2         2.0100    2.9170   -2.2350 ho        1 03P      0.424000
     59 H25         3.4460    6.2870   -0.4600 hc        1 03P      0.049200
     60 H25A        3.6880    6.0060   -2.2440 hc        1 03P      0.049200
     61 H25B        2.0250    6.3130   -1.5970 hc        1 03P      0.049200
     62 C6          5.3190   -0.6860   -0.8630 c3        1 03P      0.015300
     63 N4          2.1760   -1.3640   -0.4880 nh        1 03P     -0.733300
@<TRIPOS>BOND
     1    1   26 ar  
     2    1   27 ar  
     3    2    5 1   
     4    2    6 1   
     5    2   37 1   
     6    3    4 2   
     7    3   31 1   
     8    3   38 1   
     9    4   29 1   
    10    4   39 1   
    11    5   42 1   
    12    5   43 1   
    13    5   62 1   
    14    6   32 2   
    15    6   33 1   
    16    7    9 ar  
    17    7   24 ar  
    18    7   63 1   
    19    8   21 1   
    20    8   22 ar  
    21    8   25 ar  
    22    9   25 ar  
    23    9   44 1   
    24   10   19 ar  
    25   10   20 ar  
    26   10   45 1   
    27   11   12 ar  
    28   11   13 1   
    29   11   18 ar  
    30   12   20 ar  
    31   12   46 1   
    32   13   15 1   
    33   13   16 1   
    34   13   17 1   
    35   14   34 1   
    36   14   47 1   
    37   14   48 1   
    38   14   49 1   
    39   18   19 ar  
    40   18   50 1   
    41   19   51 1   
    42   20   21 1   
    43   22   23 1   
    44   22   24 ar  
    45   24   52 1   
    46   25   53 1   
    47   26   28 ar  
    48   26   63 1   
    49   27   30 ar  
    50   27   55 1   
    51   28   29 ar  
    52   28   31 1   
    53   29   30 ar  
    54   31   62 1   
    55   33   34 1   
    56   33   56 1   
    57   33   57 1   
    58   34   35 1   
    59   34   36 1   
    60   35   58 1   
    61   36   59 1   
    62   36   60 1   
    63   36   61 1   
    64   40   62 1   
    65   41   62 1   
    66   54   63 1   
@<TRIPOS>SUBSTRUCTURE
     1 03P         1 TEMP              0 ****  ****    0 ROOT
