@<TRIPOS>MOLECULE
03P
   64    66     1     0     0
SMALL
bcc


@<TRIPOS>ATOM
      1 N1          0.6510    0.4630   -1.1770 n7        1 03P     -0.207000
      2 N3          7.4460    0.3470    0.1630 ny        1 03P      0.061000
      3 C4          3.4730    0.9480    3.3450 c1        1 03P     -0.067000
      4 C5          2.8950    0.8380    2.3020 c1        1 03P     -0.215000
      5 C7          6.4200    0.1370   -0.8000 c2        1 03P     -0.723000
      6 C8          7.3470    1.7280    0.7720 c2        1 03P      0.239000
      7 C10         1.8120    0.7140   -3.7990 ca        1 03P     -0.038000
      8 C13         0.3480    0.6350   -6.1890 ca        1 03P      0.097000
      9 C15         2.0780   -0.2800   -4.7630 ca        1 03P     -0.111000
     10 C17        -0.3430   -0.3840   -9.4880 ca        1 03P     -0.097000
     11 C20        -1.0860   -2.8110   -8.3090 ca        1 03P     -0.141000
     12 C21        -0.8670   -1.6980   -7.4940 ca        1 03P     -0.120000
     13 C22        -1.4970   -4.1310   -7.6640 c3        1 03P      0.467000
     14 C24         7.0660    4.8010    1.3930 c3        1 03P     -0.253000
     15 F2         -2.8460   -4.2520   -7.4400 f         1 03P     -0.159667
     16 F          -1.1680   -5.2470   -8.3920 f         1 03P     -0.159667
     17 F1         -0.9280   -4.3520   -6.4310 f         1 03P     -0.159667
     18 C19        -0.9490   -2.7210   -9.6950 ca        1 03P     -0.082000
     19 C18        -0.5820   -1.5060  -10.2780 ca        1 03P     -0.112000
     20 C16        -0.4900   -0.4950   -8.0970 ca        1 03P      0.029000
     21 O1         -0.3630    0.6930   -7.3730 os        1 03P     -0.130000
     22 C12         0.0710    1.6340   -5.2310 ca        1 03P     -0.070000
     23 Cl         -1.1270    2.8020   -5.4710 cl        1 03P      0.057000
     24 C11         0.8110    1.6730   -4.0470 ca        1 03P     -0.113000
     25 C14         1.3540   -0.3110   -5.9470 ca        1 03P     -0.157000
     26 C1          2.0190    0.6590   -1.3540 c2        1 03P      0.204000
     27 C           0.0650    0.3800    0.0700 c1        1 03P      0.057000
     28 C3          2.8030    0.7970   -0.1600 c2        1 03P     -0.338000
     29 C2          2.1230    0.6960    1.1190 c2        1 03P      0.244000
     30 N           0.8060    0.4840    1.2020 n2        1 03P     -0.194000
     31 N2          4.2270    1.0460   -0.2060 ny        1 03P     -0.003000
     32 O           6.9190    1.7670    1.9220 o         1 03P     -0.235000
     33 C9          7.7420    2.8780   -0.1040 c3        1 03P     -0.174000
     34 C23         6.8180    4.0940    0.0680 c3        1 03P      0.099000
     35 O2          5.4810    3.5790    0.0230 oh        1 03P     -0.384000
     36 C25         7.0370    5.0540   -1.0950 c3        1 03P     -0.253000
     37 HN3         7.3750   -0.3440    0.9210 hn        1 03P      0.232500
     38 H4          4.5150    1.4860    0.6800 hn        1 03P      0.238000
     39 H5          3.9960    1.0500    4.2670 ha        1 03P      0.247000
     40 H6          4.9810   -0.8060    0.5310 hx        1 03P      0.116500
     41 H6A         4.4520    1.7320   -0.9400 hn        1 03P      0.238000
     42 H7          4.5780   -0.7950   -1.2580 hx        1 03P      0.116500
     43 H7A         6.7200    0.2340   -1.8450 hx        1 03P      0.172000
     44 H15         2.8620   -1.0350   -4.5960 ha        1 03P      0.147000
     45 H17        -0.0600    0.5810   -9.9350 ha        1 03P      0.165000
     46 H21        -0.9890   -1.7700   -6.4020 ha        1 03P      0.161000
     47 H24         6.3690    5.6680    1.4990 hc        1 03P      0.102167
     48 H24A        6.8940    4.1010    2.2470 hc        1 03P      0.102167
     49 H24B        8.1140    5.1810    1.4350 hc        1 03P      0.102167
     50 H19        -1.1290   -3.6080  -10.3240 ha        1 03P      0.165000
     51 H18        -0.4810   -1.4350  -11.3730 ha        1 03P      0.158000
     52 H11         0.6050    2.4720   -3.3140 ha        1 03P      0.165000
     53 H14         1.5680   -1.0840   -6.7040 ha        1 03P      0.171000
     54 HN4         3.5330    0.4640   -2.7190 hn        1 03P      0.238000
     55 H           0.0530    0.3780   -1.9790 hn        1 03P      0.280000
     56 H9          8.7880    3.1830    0.1750 hc        1 03P      0.143500
     57 H9A         7.7310    2.5700   -1.1850 hc        1 03P      0.143500
     58 HO2         4.8890    4.3280    0.1630 ho        1 03P      0.232000
     59 H25         8.1100    5.3560   -1.1460 hc        1 03P      0.102167
     60 H25A        6.4140    5.9700   -0.9540 hc        1 03P      0.102167
     61 H25B        6.7460    4.5720   -2.0590 hc        1 03P      0.102167
     62 C6          5.0800   -0.2250   -0.4280 c3        1 03P      0.029000
     63 N4          2.5950    0.7920   -2.6140 nu        1 03P     -0.261000
     64 H32         8.3550    0.2470   -0.2960 hn        1 03P      0.232500
@<TRIPOS>BOND
     1    1   26 1   
     2    1   27 1   
     3    1   55 1   
     4    2    5 1   
     5    2    6 1   
     6    2   37 1   
     7    2   64 1   
     8    3    4 1   
     9    3   39 1   
    10    4   29 1   
    11    5   43 1   
    12    5   62 1   
    13    6   32 1   
    14    6   33 1   
    15    7    9 1   
    16    7   24 1   
    17    7   63 1   
    18    8   21 1   
    19    8   22 1   
    20    8   25 1   
    21    9   25 1   
    22    9   44 1   
    23   10   19 1   
    24   10   20 1   
    25   10   45 1   
    26   11   12 1   
    27   11   13 1   
    28   11   18 1   
    29   12   20 1   
    30   12   46 1   
    31   13   15 1   
    32   13   16 1   
    33   13   17 1   
    34   14   34 1   
    35   14   47 1   
    36   14   48 1   
    37   14   49 1   
    38   18   19 1   
    39   18   50 1   
    40   19   51 1   
    41   20   21 1   
    42   22   23 1   
    43   22   24 1   
    44   24   52 1   
    45   25   53 1   
    46   26   28 1   
    47   26   63 1   
    48   27   30 1   
    49   28   29 1   
    50   28   31 1   
    51   29   30 1   
    52   31   38 1   
    53   31   41 1   
    54   31   62 1   
    55   33   34 1   
    56   33   56 1   
    57   33   57 1   
    58   34   35 1   
    59   34   36 1   
    60   35   58 1   
    61   36   59 1   
    62   36   60 1   
    63   36   61 1   
    64   40   62 1   
    65   42   62 1   
    66   54   63 1   
@<TRIPOS>SUBSTRUCTURE
     1 03P         1 TEMP              0 ****  ****    0 ROOT
