@<TRIPOS>MOLECULE
03P
   63    54     1     0     0
SMALL
bcc


@<TRIPOS>ATOM
      1 N1         -3.1960   -0.2030    0.7310 n1        1 03P     -0.201000
      2 N3          3.5880   -0.3740    2.7570 n         1 03P     -0.384000
      3 C4          0.2170   -0.2780    3.7360 c1        1 03P     -0.055000
      4 C5         -1.0590   -0.3480    4.2410 c1        1 03P     -0.200000
      5 C6          1.3740   -0.4750    1.7990 c3        1 03P     -0.042000
      6 C7          2.4550    0.4120    2.4310 c3        1 03P     -0.038000
      7 C8          4.4260   -0.0170    3.9380 c2        1 03P      0.316000
      8 C10        -2.3750    0.1310   -1.6470 c1        1 03P      0.068000
      9 C13        -3.9940    0.4230   -3.8900 c1        1 03P      0.008000
     10 C15        -2.8090    1.4020   -2.0740 c1        1 03P     -0.172000
     11 C17        -4.0360    2.4660   -6.2790 c1        1 03P     -0.120000
     12 C20        -3.0810    0.7180   -8.2340 c1        1 03P     -0.129000
     13 C21        -3.6790    0.2070   -7.0650 c1        1 03P     -0.144000
     14 C22        -2.6130   -0.2450   -9.3320 c3        1 03P      0.466000
     15 C24         4.3490   -1.6120    6.7680 c3        1 03P     -0.228500
     16 F2         -3.0520    0.1830  -10.5240 f         1 03P     -0.166000
     17 F          -1.2280   -0.3020   -9.3410 f         1 03P     -0.166000
     18 F1         -3.0940   -1.4300   -9.0940 f         1 03P     -0.166000
     19 C19        -2.9660    2.0970   -8.4170 c1        1 03P     -0.109500
     20 C18        -3.4430    2.9710   -7.4410 c1        1 03P     -0.109500
     21 C16        -4.1520    1.0690   -6.0960 c1        1 03P      0.073000
     22 O1         -4.8630    0.5430   -4.9500 o         1 03P     -0.146000
     23 C12        -3.5620   -0.8620   -3.4660 c1        1 03P     -0.044000
     24 CL         -4.0430   -2.3050   -4.3810 cl        1 03P      0.016000
     25 C11        -2.7510   -0.9860   -2.3410 c2        1 03P     -0.120000
     26 C14        -3.6200    1.5230   -3.2020 c2        1 03P     -0.096000
     27 N4         -1.4120    0.0230   -0.5670 n3        1 03P     -0.235000
     28 C1         -1.8680   -0.1630    0.7930 c1        1 03P      0.115000
     29 C          -3.9340   -0.2960    1.8750 c1        1 03P     -0.037000
     30 C3         -1.2160   -0.2160    2.0430 c1        1 03P     -0.122000
     31 C2         -1.9410   -0.3080    3.1750 c1        1 03P      0.005000
     32 N          -3.3040   -0.3490    3.1060 n1        1 03P     -0.131000
     33 N2          0.1320   -0.1960    2.3940 n2        1 03P     -0.146000
     34 O           4.3940    1.1160    4.3900 o         1 03P     -0.397000
     35 C9          5.3270   -1.0380    4.5490 c3        1 03P     -0.211000
     36 C23         5.4140   -0.8070    6.0770 c3        1 03P      0.099000
     37 O2          5.2250    0.5430    6.3600 oh        1 03P     -0.330000
     38 C25         6.8330   -1.2530    6.5890 c3        1 03P     -0.228500
     39 HN3         3.8410   -1.0530    2.2110 hn        1 03P      0.230000
     40 H4          1.0110   -0.2990    4.2370 DU        1 03P      0.187500
     41 H5         -1.3070   -0.4160    5.2120 DU        1 03P      0.187500
     42 H6          1.6130   -1.4640    1.9480 h1        1 03P      0.102000
     43 H6A         1.3270   -0.3030    0.8970 h1        1 03P      0.102000
     44 H7          2.7210    1.1220    1.7820 h1        1 03P      0.115500
     45 H7A         2.0870    0.8450    3.2810 h1        1 03P      0.115500
     46 H15        -2.5370    2.2130   -1.5720 ha        1 03P      0.139000
     47 H17        -4.3790    3.0960   -5.5760 ha        1 03P      0.159000
     48 H21        -3.7580   -0.7540   -6.9410 ha        1 03P      0.162000
     49 H24         3.4840   -1.1070    6.7460 hc        1 03P      0.087667
     50 H24A        4.6000   -1.7640    7.6610 hc        1 03P      0.087667
     51 H24B        4.2350   -2.4910    6.3000 hc        1 03P      0.087667
     52 H19        -2.5370    2.4610   -9.2540 ha        1 03P      0.149500
     53 H18        -3.3620    3.9480   -7.5710 ha        1 03P      0.149500
     54 H11        -2.4530   -1.8650   -2.0470 ha        1 03P      0.168000
     55 H14        -3.9210    2.4150   -3.4990 ha        1 03P      0.156000
     56 HN4        -0.4480    0.1190   -0.7540 hn        1 03P      0.205000
     57 H          -4.8760   -0.3230    1.8250 ha        1 03P      0.194000
     58 H9          6.2280   -0.9640    4.1550 hc        1 03P      0.117000
     59 H9A         4.9760   -1.9150    4.3790 hc        1 03P      0.117000
     60 HO2         5.6120    0.7350    7.0960 ho        1 03P      0.227000
     61 H25         6.9870   -2.1710    6.3490 hc        1 03P      0.087667
     62 H25A        7.5400   -0.6740    6.1640 hc        1 03P      0.087667
     63 H25B        6.8750   -1.1570    7.5610 hc        1 03P      0.087667
@<TRIPOS>BOND
     1    1   29 1   
     2    2    6 1   
     3    2    7 1   
     4    2   39 1   
     5    3    4 1   
     6    3   33 1   
     7    4   31 1   
     8    5    6 1   
     9    5   33 1   
    10    5   42 1   
    11    5   43 1   
    12    6   44 1   
    13    6   45 1   
    14    7   34 1   
    15    7   35 1   
    16    8   25 1   
    17    8   27 1   
    18    9   23 1   
    19    9   26 1   
    20   10   26 1   
    21   10   46 1   
    22   11   21 1   
    23   11   47 1   
    24   12   13 1   
    25   12   14 1   
    26   13   48 1   
    27   14   16 1   
    28   14   17 1   
    29   14   18 1   
    30   15   36 1   
    31   15   49 1   
    32   15   50 1   
    33   15   51 1   
    34   19   20 1   
    35   19   52 1   
    36   20   53 1   
    37   21   22 1   
    38   23   25 1   
    39   25   54 1   
    40   26   55 1   
    41   27   28 1   
    42   27   56 1   
    43   28   30 1   
    44   29   57 1   
    45   31   32 1   
    46   35   36 1   
    47   35   58 1   
    48   35   59 1   
    49   36   37 1   
    50   36   38 1   
    51   37   60 1   
    52   38   61 1   
    53   38   62 1   
    54   38   63 1   
@<TRIPOS>SUBSTRUCTURE
     1 03P         1 TEMP              0 ****  ****    0 ROOT
