@<TRIPOS>MOLECULE
03Q
   53    56     1     0     0
SMALL
bcc


@<TRIPOS>ATOM
      1 O1          0.6330    0.9080   -0.0070 oh        1 03Q     -0.600800
      2 C2          1.8720    0.2260    0.0920 c3        1 03Q      0.127400
      3 C3          2.2620    0.2210    1.5670 c3        1 03Q      0.127400
      4 O4          1.9590   -1.0850    2.0590 os        1 03Q     -0.432600
      5 C5          2.1730   -1.1930    3.4640 c3        1 03Q      0.104400
      6 C6          1.6110   -2.5770    3.8370 c3        1 03Q      0.038300
      7 N7          1.8450   -2.9760    5.1940 na        1 03Q     -0.053400
      8 C8          2.9420   -3.7750    5.5640 cc        1 03Q     -0.088100
      9 C9          3.1020   -3.7990    6.9430 cd        1 03Q     -0.297800
     10 C10         2.0820   -2.9320    7.4990 ca        1 03Q      0.447100
     11 N11         1.7950   -2.6030    8.7820 nb        1 03Q     -0.665000
     12 C12         0.7540   -1.7580    8.9200 ca        1 03Q      0.635900
     13 N13        -0.0420   -1.2170    7.9500 nb        1 03Q     -0.737000
     14 C14         0.2250   -1.5360    6.6550 ca        1 03Q      0.650200
     15 N15        -0.5160   -0.9770    5.5850 nh        1 03Q     -0.700300
     16 C16        -1.5560   -0.0540    5.8380 ca        1 03Q     -0.005700
     17 C17        -1.3190    1.1380    6.5820 ca        1 03Q      0.451200
     18 N18        -2.2410    2.0900    6.7670 nb        1 03Q     -0.691000
     19 C19        -3.4660    1.9080    6.2120 ca        1 03Q      0.609600
     20 O20        -4.4570    2.8750    6.3390 os        1 03Q     -0.355400
     21 C21        -4.2040    3.9600    7.1810 ca        1 03Q      0.103100
     22 C22        -4.2710    5.2350    6.6050 ca        1 03Q     -0.098000
     23 C23        -4.1690    6.3530    7.4310 ca        1 03Q     -0.126000
     24 C24        -3.9910    6.2020    8.8060 ca        1 03Q     -0.087000
     25 C25        -3.9180    4.9220    9.3610 ca        1 03Q     -0.157300
     26 C26        -4.0230    3.7850    8.5580 ca        1 03Q     -0.078000
     27 C27        -3.7400    4.7690   10.8660 c3        1 03Q      0.688200
     28 F28        -4.9150    4.8330   11.5790 f         1 03Q     -0.236633
     29 F29        -3.1730    3.5840   11.2640 f         1 03Q     -0.236633
     30 F30        -2.9490    5.7320   11.4450 f         1 03Q     -0.236633
     31 C31        -3.8130    0.7570    5.4570 ca        1 03Q     -0.094900
     32 CL32       -5.3460    0.5410    4.7750 cl        1 03Q     -0.050400
     33 C33        -2.8390   -0.2290    5.2810 ca        1 03Q     -0.113000
     34 C34         1.3210   -2.4130    6.3640 ca        1 03Q     -0.304800
     35 HO1         0.2860    0.7300   -0.8890 ho        1 03Q      0.404000
     36 H2          2.6480    0.7770   -0.5030 h1        1 03Q      0.039200
     37 H2A         1.7810   -0.8250   -0.2920 h1        1 03Q      0.039200
     38 H3          3.3610    0.4110    1.6840 h1        1 03Q      0.048200
     39 H3A         1.6780    0.9940    2.1340 h1        1 03Q      0.048200
     40 H5          1.6360   -0.3730    4.0070 h1        1 03Q      0.048700
     41 H5A         3.2720   -1.1270    3.6790 h1        1 03Q      0.048700
     42 H6          2.0910   -3.3440    3.1620 h1        1 03Q      0.070200
     43 H6A         0.5070   -2.5920    3.6230 h1        1 03Q      0.070200
     44 H8          3.5200   -4.2970    4.7970 h4        1 03Q      0.173000
     45 H9          3.8380   -4.3560    7.5150 ha        1 03Q      0.176000
     46 H12         0.4900   -1.4590    9.9570 h5        1 03Q      0.058100
     47 HN15       -0.7720   -1.6710    4.9070 hn        1 03Q      0.415800
     48 H17        -0.3400    1.3350    7.0590 h4        1 03Q      0.049100
     49 H22        -4.4130    5.3400    5.5190 ha        1 03Q      0.156000
     50 H23        -4.2250    7.3620    6.9940 ha        1 03Q      0.146000
     51 H24        -3.9000    7.0860    9.4570 ha        1 03Q      0.152000
     52 H26        -3.9520    2.7760    8.9930 ha        1 03Q      0.168000
     53 H33        -3.0860   -1.1330    4.7000 ha        1 03Q      0.154000
@<TRIPOS>BOND
     1    1    2 1   
     2    1   35 1   
     3    2    3 1   
     4    2   36 1   
     5    2   37 1   
     6    3    4 1   
     7    3   38 1   
     8    3   39 1   
     9    4    5 1   
    10    5    6 1   
    11    5   40 1   
    12    5   41 1   
    13    6    7 1   
    14    6   42 1   
    15    6   43 1   
    16    7    8 1   
    17    7   34 1   
    18    8    9 2   
    19    8   44 1   
    20    9   10 1   
    21    9   45 1   
    22   10   11 ar  
    23   10   34 ar  
    24   11   12 ar  
    25   12   13 ar  
    26   12   46 1   
    27   13   14 ar  
    28   14   15 1   
    29   14   34 ar  
    30   15   16 1   
    31   15   47 1   
    32   16   17 ar  
    33   16   33 ar  
    34   17   18 ar  
    35   17   48 1   
    36   18   19 ar  
    37   19   20 1   
    38   19   31 ar  
    39   20   21 1   
    40   21   22 ar  
    41   21   26 ar  
    42   22   23 ar  
    43   22   49 1   
    44   23   24 ar  
    45   23   50 1   
    46   24   25 ar  
    47   24   51 1   
    48   25   26 ar  
    49   25   27 1   
    50   26   52 1   
    51   27   28 1   
    52   27   29 1   
    53   27   30 1   
    54   31   32 1   
    55   31   33 ar  
    56   33   53 1   
@<TRIPOS>SUBSTRUCTURE
     1 03Q         1 TEMP              0 ****  ****    0 ROOT
