@<TRIPOS>MOLECULE
03Q
   53    56     1     0     0
SMALL
bcc


@<TRIPOS>ATOM
      1 O1         -4.7550    4.4670   -1.6810 oh        1 03Q     -0.600800
      2 C2         -5.8330    3.6230   -2.0500 c3        1 03Q      0.127400
      3 C3         -5.2560    2.2240   -2.2460 c3        1 03Q      0.127400
      4 O4         -5.5970    1.4800   -1.0760 os        1 03Q     -0.432600
      5 C5         -5.0200    0.1770   -1.0790 c3        1 03Q      0.104400
      6 C6         -5.3230   -0.3850    0.3220 c3        1 03Q      0.038300
      7 N7         -4.9580   -1.7590    0.5110 na        1 03Q     -0.053400
      8 C8         -5.8750   -2.8100    0.3380 cc        1 03Q     -0.088100
      9 C9         -5.2290   -4.0400    0.3100 cd        1 03Q     -0.297800
     10 C10        -3.8100   -3.7700    0.4260 ca        1 03Q      0.447100
     11 N11        -2.7430   -4.6060    0.4520 nb        1 03Q     -0.665000
     12 C12        -1.5530   -3.9860    0.5770 ca        1 03Q      0.635900
     13 N13        -1.2940   -2.6500    0.6980 nb        1 03Q     -0.737000
     14 C14        -2.3490   -1.7920    0.6770 ca        1 03Q      0.650200
     15 N15        -2.1660   -0.3880    0.7410 nh        1 03Q     -0.700300
     16 C16        -0.8670    0.1620    0.8160 ca        1 03Q     -0.005700
     17 C17         0.1200   -0.1390   -0.1670 ca        1 03Q      0.451200
     18 N18         1.3300    0.4290   -0.2000 nb        1 03Q     -0.691000
     19 C19         1.6310    1.3430    0.7570 ca        1 03Q      0.609600
     20 O20         2.8590    1.9940    0.7600 os        1 03Q     -0.355400
     21 C21         3.8250    1.5680   -0.1540 ca        1 03Q      0.103100
     22 C22         4.3160    2.5300   -1.0470 ca        1 03Q     -0.098000
     23 C23         5.3810    2.1910   -1.8810 ca        1 03Q     -0.126000
     24 C24         5.9370    0.9130   -1.8340 ca        1 03Q     -0.087000
     25 C25         5.4280   -0.0340   -0.9420 ca        1 03Q     -0.157300
     26 C26         4.3670    0.2790   -0.0910 ca        1 03Q     -0.078000
     27 C27         6.0560   -1.4210   -0.8860 c3        1 03Q      0.688200
     28 F28         7.1680   -1.5020   -0.0820 f         1 03Q     -0.236633
     29 F29         5.2300   -2.4110   -0.4130 f         1 03Q     -0.236633
     30 F30         6.4900   -1.8970   -2.1000 f         1 03Q     -0.236633
     31 C31         0.7280    1.7150    1.7880 ca        1 03Q     -0.094900
     32 CL32        1.1180    2.8530    2.9770 cl        1 03Q     -0.050400
     33 C33        -0.5290    1.1050    1.8080 ca        1 03Q     -0.113000
     34 C34        -3.6750   -2.3180    0.5290 ca        1 03Q     -0.304800
     35 HO1        -5.1420    5.2870   -1.3550 ho        1 03Q      0.404000
     36 H2         -6.6220    3.6120   -1.2530 h1        1 03Q      0.039200
     37 H2A        -6.2770    3.9880   -3.0140 h1        1 03Q      0.039200
     38 H3         -5.7170    1.7300   -3.1410 h1        1 03Q      0.048200
     39 H3A        -4.1410    2.2680   -2.3650 h1        1 03Q      0.048200
     40 H5         -5.5020   -0.4420   -1.8810 h1        1 03Q      0.048700
     41 H5A        -3.9170    0.2370   -1.2660 h1        1 03Q      0.048700
     42 H6         -4.8060    0.2530    1.0910 h1        1 03Q      0.070200
     43 H6A        -6.4330   -0.2920    0.5050 h1        1 03Q      0.070200
     44 H8         -6.9450   -2.5970    0.2720 h4        1 03Q      0.173000
     45 H9         -5.6810   -5.0240    0.2240 ha        1 03Q      0.176000
     46 H12        -0.6520   -4.6360    0.5970 h5        1 03Q      0.058100
     47 HN15       -2.8050    0.0410    1.3840 hn        1 03Q      0.415800
     48 H17        -0.0710   -0.8800   -0.9670 h4        1 03Q      0.049100
     49 H22         3.8680    3.5340   -1.0740 ha        1 03Q      0.156000
     50 H23         5.7810    2.9360   -2.5850 ha        1 03Q      0.146000
     51 H24         6.7720    0.6430   -2.5000 ha        1 03Q      0.152000
     52 H26         3.9570   -0.4710    0.6030 ha        1 03Q      0.168000
     53 H33        -1.2470    1.3760    2.6000 ha        1 03Q      0.154000
@<TRIPOS>BOND
     1    1    2 1   
     2    1   35 1   
     3    2    3 1   
     4    2   36 1   
     5    2   37 1   
     6    3    4 1   
     7    3   38 1   
     8    3   39 1   
     9    4    5 1   
    10    5    6 1   
    11    5   40 1   
    12    5   41 1   
    13    6    7 1   
    14    6   42 1   
    15    6   43 1   
    16    7    8 1   
    17    7   34 1   
    18    8    9 2   
    19    8   44 1   
    20    9   10 1   
    21    9   45 1   
    22   10   11 ar  
    23   10   34 ar  
    24   11   12 ar  
    25   12   13 ar  
    26   12   46 1   
    27   13   14 ar  
    28   14   15 1   
    29   14   34 ar  
    30   15   16 1   
    31   15   47 1   
    32   16   17 ar  
    33   16   33 ar  
    34   17   18 ar  
    35   17   48 1   
    36   18   19 ar  
    37   19   20 1   
    38   19   31 ar  
    39   20   21 1   
    40   21   22 ar  
    41   21   26 ar  
    42   22   23 ar  
    43   22   49 1   
    44   23   24 ar  
    45   23   50 1   
    46   24   25 ar  
    47   24   51 1   
    48   25   26 ar  
    49   25   27 1   
    50   26   52 1   
    51   27   28 1   
    52   27   29 1   
    53   27   30 1   
    54   31   32 1   
    55   31   33 ar  
    56   33   53 1   
@<TRIPOS>SUBSTRUCTURE
     1 03Q         1 TEMP              0 ****  ****    0 ROOT
