@<TRIPOS>MOLECULE
03Q
   53    47     1     0     0
SMALL
bcc


@<TRIPOS>ATOM
      1 O1          5.7100   -3.7780   -6.2670 oh        1 03Q     -0.329000
      2 C2          4.3450   -3.4610   -5.9530 c3        1 03Q     -0.022000
      3 C3          4.3090   -2.2720   -4.9670 c3        1 03Q     -0.024000
      4 O4          3.0790   -2.2700   -4.2720 os        1 03Q     -0.286000
      5 C5          3.0970   -1.5180   -3.0860 c3        1 03Q     -0.042000
      6 C6          2.0060   -2.0570   -2.1140 c3        1 03Q     -0.027000
      7 N7          2.5680   -2.2560   -0.8390 n3        1 03Q     -0.143000
      8 C8          3.4180   -3.3170   -0.8470 c1        1 03Q     -0.043000
      9 C9          3.8880   -3.4920    0.4250 c1        1 03Q     -0.197000
     10 C10         3.3100   -2.5110    1.2380 c1        1 03Q      0.008000
     11 N11         3.4290   -2.2330    2.5850 n1        1 03Q     -0.135000
     12 C12         2.7470   -1.2200    3.1210 c1        1 03Q     -0.033000
     13 N13         1.9130   -0.4400    2.3210 n1        1 03Q     -0.211000
     14 C14         1.7970   -0.7050    1.0270 c1        1 03Q      0.121000
     15 N15         0.7300    0.0810    0.5080 n2        1 03Q     -0.220000
     16 C16        -0.1590    0.7780    1.4150 c2        1 03Q     -0.025000
     17 C17        -1.3150    0.1560    1.8720 c2        1 03Q     -0.013000
     18 N18        -2.2030    0.8500    2.6410 n1        1 03Q     -0.166000
     19 C19        -1.9580    2.1450    2.9610 c1        1 03Q      0.113000
     20 O20        -2.8950    2.8730    3.7160 os        1 03Q     -0.140000
     21 C21        -4.1710    2.7720    3.1110 c2        1 03Q      0.056000
     22 C22        -4.9300    1.6220    3.2820 c2        1 03Q     -0.093000
     23 C23        -6.2380    1.5620    2.7710 c1        1 03Q     -0.124000
     24 C24        -6.7750    2.6610    2.0890 c1        1 03Q     -0.086000
     25 C25        -6.0190    3.8080    1.9180 c1        1 03Q     -0.153000
     26 C26        -4.7110    3.8720    2.4280 c2        1 03Q     -0.080000
     27 C27        -6.6360    5.0630    1.1650 c2        1 03Q      0.467000
     28 F28        -7.8860    5.3180    1.6540 f         1 03Q     -0.165000
     29 F29        -5.8570    6.1240    1.3630 f         1 03Q     -0.165000
     30 F30        -6.7170    4.8000   -0.1660 f         1 03Q     -0.165000
     31 C31        -0.8010    2.7720    2.5050 c1        1 03Q     -0.109000
     32 CL32       -0.3530    4.3620    3.1510 cl        1 03Q      0.029000
     33 C33         0.0850    2.0860    1.7390 c2        1 03Q     -0.116000
     34 C34         2.5060   -1.7590    0.4690 c2        1 03Q     -0.125000
     35 HO1         5.7340   -4.4270   -6.9230 ho        1 03Q      0.207000
     36 H2          3.9100   -4.2510   -5.5370 h1        1 03Q      0.076000
     37 H2A         3.8710   -3.2220   -6.7690 h1        1 03Q      0.076000
     38 H3          4.4040   -1.4430   -5.4580 h1        1 03Q      0.084000
     39 H3A         5.0490   -2.3590   -4.3210 h1        1 03Q      0.084000
     40 H5          3.9890   -1.5950   -2.6590 h1        1 03Q      0.079000
     41 H5A         2.9140   -0.5700   -3.2940 h1        1 03Q      0.079000
     42 H6          1.6590   -2.9080   -2.4550 h1        1 03Q      0.122500
     43 H6A         1.2730   -1.4080   -2.0510 h1        1 03Q      0.122500
     44 H8          3.6570   -3.8660   -1.6370 DU        1 03Q      0.177000
     45 H9          4.5180   -4.1810    0.7140 DU        1 03Q      0.177000
     46 H12         2.8350   -1.0220    4.0880 ha        1 03Q      0.193000
     47 HN15        0.6470    0.2080   -0.4240 hn        1 03Q      0.202000
     48 H17        -1.4960   -0.7920    1.6390 h4        1 03Q      0.187000
     49 H22        -4.5460    0.8330    3.7720 ha        1 03Q      0.157000
     50 H23        -6.7630    0.7670    2.8890 ha        1 03Q      0.147000
     51 H24        -7.6810    2.6190    1.7360 ha        1 03Q      0.153000
     52 H26        -4.1830    4.6760    2.3080 ha        1 03Q      0.167000
     53 H33         0.8980    2.5270    1.4170 ha        1 03Q      0.151000
@<TRIPOS>BOND
     1    1    2 1   
     2    1   35 1   
     3    2    3 1   
     4    2   36 1   
     5    2   37 1   
     6    3    4 1   
     7    3   38 1   
     8    3   39 1   
     9    4    5 1   
    10    5    6 1   
    11    5   40 1   
    12    5   41 1   
    13    6    7 1   
    14    6   42 1   
    15    6   43 1   
    16    7    8 1   
    17    7   34 1   
    18    8    9 1   
    19    9   10 1   
    20   10   34 1   
    21   11   12 1   
    22   12   46 1   
    23   13   14 1   
    24   14   34 1   
    25   15   16 1   
    26   15   47 1   
    27   16   17 1   
    28   16   33 1   
    29   17   18 1   
    30   17   48 1   
    31   19   20 1   
    32   19   31 1   
    33   20   21 1   
    34   21   22 1   
    35   21   26 1   
    36   22   23 1   
    37   22   49 1   
    38   23   50 1   
    39   24   25 1   
    40   24   51 1   
    41   25   26 1   
    42   26   52 1   
    43   27   28 1   
    44   27   29 1   
    45   27   30 1   
    46   31   33 1   
    47   33   53 1   
@<TRIPOS>SUBSTRUCTURE
     1 03Q         1 TEMP              0 ****  ****    0 ROOT
