@<TRIPOS>MOLECULE
03Q
   54    57     1     0     0
SMALL
bcc


@<TRIPOS>ATOM
      1 O1         -0.1540   -0.3650    2.3160 oh        1 03Q     -0.658800
      2 C2          0.9170   -0.3170    1.3810 c3        1 03Q      0.090400
      3 C3          2.1190    0.3120    2.0750 c3        1 03Q      0.115400
      4 O4          2.4150   -0.2980    3.3260 os        1 03Q     -0.466600
      5 C5          2.9210   -1.6250    3.2560 c3        1 03Q      0.096400
      6 C6          1.8090   -2.6240    3.6260 c3        1 03Q     -0.005700
      7 N7          1.7350   -3.0020    5.0090 na        1 03Q     -0.073400
      8 C8          2.2480   -4.2320    5.4770 cc        1 03Q     -0.060100
      9 C9          2.1920   -4.3110    6.8570 cd        1 03Q     -0.270800
     10 C10         1.6360   -3.0580    7.3320 ca        1 03Q      0.463100
     11 N11         1.3750   -2.6200    8.5720 nb        1 03Q     -0.597000
     12 C12         0.8520   -1.3690    8.6470 ca        1 03Q      0.640900
     13 N13         0.5570   -0.5330    7.6190 nb        1 03Q     -0.677000
     14 C14         0.8010   -0.9720    6.3560 ca        1 03Q      0.488200
     15 N15         0.4760   -0.0460    5.2450 n4        1 03Q     -0.595100
     16 C16        -0.7510    0.7160    5.4490 ca        1 03Q     -0.196700
     17 C17        -0.7860    1.8150    6.3450 ca        1 03Q      0.507200
     18 N18        -1.8900    2.5360    6.5620 nb        1 03Q     -0.692000
     19 C19        -3.0280    2.1910    5.9000 ca        1 03Q      0.688600
     20 O20        -4.1970    2.8860    6.0830 os        1 03Q     -0.328400
     21 C21        -4.2150    3.9260    7.0280 ca        1 03Q      0.068100
     22 C22        -4.5150    5.2080    6.5510 ca        1 03Q     -0.086000
     23 C23        -4.6840    6.2380    7.4750 ca        1 03Q     -0.119000
     24 C24        -4.5420    5.9940    8.8420 ca        1 03Q     -0.067000
     25 C25        -4.2350    4.7080    9.2920 ca        1 03Q     -0.156300
     26 C26        -4.0700    3.6540    8.3910 ca        1 03Q     -0.073000
     27 C27        -4.0910    4.4390   10.7880 c3        1 03Q      0.689200
     28 F28        -5.2620    4.0740   11.4040 f         1 03Q     -0.229967
     29 F29        -3.2160    3.4250   11.0960 f         1 03Q     -0.229967
     30 F30        -3.6390    5.5120   11.5150 f         1 03Q     -0.229967
     31 C31        -3.0890    1.1000    4.9720 ca        1 03Q     -0.120900
     32 CL32       -4.5000    0.6930    4.1490 cl        1 03Q     -0.001400
     33 C33        -1.9290    0.3600    4.7610 ca        1 03Q     -0.038000
     34 C34         1.3670   -2.2450    6.1170 ca        1 03Q     -0.240800
     35 HO1        -0.9740   -0.4070    1.8090 ho        1 03Q      0.433000
     36 H2          0.6400    0.3000    0.4860 h1        1 03Q      0.056200
     37 H2A         1.1500   -1.3670    1.0550 h1        1 03Q      0.056200
     38 H3          1.9050    1.3800    2.3540 h1        1 03Q      0.079200
     39 H3A         3.0100    0.2640    1.3950 h1        1 03Q      0.079200
     40 H5          3.7780   -1.6510    3.9830 h1        1 03Q      0.083200
     41 H5A         3.3010   -1.8670    2.2290 h1        1 03Q      0.083200
     42 H6          1.9860   -3.5710    3.0340 h1        1 03Q      0.083200
     43 H6A         0.8110   -2.2080    3.2990 h1        1 03Q      0.083200
     44 H8          2.6070   -4.9810    4.7610 h4        1 03Q      0.194000
     45 H9          2.4990   -5.1430    7.4910 ha        1 03Q      0.203000
     46 H12         0.6340   -0.9760    9.6660 h5        1 03Q      0.091100
     47 HN15        0.4020   -0.5820    4.3610 hn        1 03Q      0.479800
     48 H17         0.1040    2.1360    6.9240 h4        1 03Q      0.061100
     49 H22        -4.6280    5.3870    5.4720 ha        1 03Q      0.160000
     50 H23        -4.9290    7.2530    7.1240 ha        1 03Q      0.159000
     51 H24        -4.6660    6.8140    9.5700 ha        1 03Q      0.167000
     52 H26        -3.8270    2.6410    8.7470 ha        1 03Q      0.165000
     53 H33        -1.9380   -0.4850    4.0500 ha        1 03Q      0.167000
     54 H152        1.2670    0.6100    5.1360 hn        1 03Q      0.479800
@<TRIPOS>BOND
     1    1    2 1   
     2    1   35 1   
     3    2    3 1   
     4    2   36 1   
     5    2   37 1   
     6    3    4 1   
     7    3   38 1   
     8    3   39 1   
     9    4    5 1   
    10    5    6 1   
    11    5   40 1   
    12    5   41 1   
    13    6    7 1   
    14    6   42 1   
    15    6   43 1   
    16    7    8 1   
    17    7   34 1   
    18    8    9 2   
    19    8   44 1   
    20    9   10 1   
    21    9   45 1   
    22   10   11 ar  
    23   10   34 ar  
    24   11   12 ar  
    25   12   13 ar  
    26   12   46 1   
    27   13   14 ar  
    28   14   15 1   
    29   14   34 ar  
    30   15   16 1   
    31   15   47 1   
    32   15   54 1   
    33   16   17 ar  
    34   16   33 ar  
    35   17   18 ar  
    36   17   48 1   
    37   18   19 ar  
    38   19   20 1   
    39   19   31 ar  
    40   20   21 1   
    41   21   22 ar  
    42   21   26 ar  
    43   22   23 ar  
    44   22   49 1   
    45   23   24 ar  
    46   23   50 1   
    47   24   25 ar  
    48   24   51 1   
    49   25   26 ar  
    50   25   27 1   
    51   26   52 1   
    52   27   28 1   
    53   27   29 1   
    54   27   30 1   
    55   31   32 1   
    56   31   33 ar  
    57   33   53 1   
@<TRIPOS>SUBSTRUCTURE
     1 03Q         1 TEMP              0 ****  ****    0 ROOT
