@<TRIPOS>MOLECULE
03Q
   53    56     1     0     0
SMALL
bcc


@<TRIPOS>ATOM
      1 O1          0.6270    0.9050   -0.0100 oh        1 03Q     -0.600800
      2 C2          1.8650    0.2210    0.0880 c3        1 03Q      0.127400
      3 C3          2.2570    0.2170    1.5630 c3        1 03Q      0.127400
      4 O4          1.9530   -1.0880    2.0570 os        1 03Q     -0.432600
      5 C5          2.1690   -1.1960    3.4610 c3        1 03Q      0.104400
      6 C6          1.6080   -2.5780    3.8360 c3        1 03Q      0.038300
      7 N7          1.8440   -2.9770    5.1930 na        1 03Q     -0.053400
      8 C8          2.9410   -3.7750    5.5610 cc        1 03Q     -0.088100
      9 C9          3.1040   -3.7980    6.9400 cd        1 03Q     -0.297800
     10 C10         2.0850   -2.9300    7.4970 ca        1 03Q      0.447100
     11 N11         1.8010   -2.6000    8.7810 nb        1 03Q     -0.665000
     12 C12         0.7600   -1.7540    8.9200 ca        1 03Q      0.635900
     13 N13        -0.0380   -1.2150    7.9500 nb        1 03Q     -0.737000
     14 C14         0.2270   -1.5350    6.6560 ca        1 03Q      0.650200
     15 N15        -0.5170   -0.9770    5.5860 nu        1 03Q     -0.700300
     16 C16        -1.5560   -0.0550    5.8410 ca        1 03Q     -0.005700
     17 C17        -1.3190    1.1390    6.5830 ca        1 03Q      0.452200
     18 N18        -2.2400    2.0900    6.7690 nb        1 03Q     -0.691000
     19 C19        -3.4670    1.9060    6.2170 ca        1 03Q      0.609600
     20 O20        -4.4580    2.8730    6.3460 os        1 03Q     -0.355400
     21 C21        -4.2040    3.9600    7.1850 ca        1 03Q      0.103100
     22 C22        -4.2750    5.2340    6.6060 ca        1 03Q     -0.098000
     23 C23        -4.1710    6.3540    7.4300 ca        1 03Q     -0.126000
     24 C24        -3.9880    6.2050    8.8050 ca        1 03Q     -0.087000
     25 C25        -3.9120    4.9260    9.3620 ca        1 03Q     -0.157300
     26 C26        -4.0180    3.7880    8.5610 ca        1 03Q     -0.078000
     27 C27        -3.7290    4.7760   10.8670 c3        1 03Q      0.688200
     28 F28        -4.9010    4.8410   11.5830 f         1 03Q     -0.236633
     29 F29        -3.1600    3.5910   11.2650 f         1 03Q     -0.236633
     30 F30        -2.9360    5.7400   11.4410 f         1 03Q     -0.236633
     31 C31        -3.8160    0.7550    5.4640 ca        1 03Q     -0.094900
     32 Cl32       -5.3500    0.5370    4.7870 cl        1 03Q     -0.050400
     33 C33        -2.8410   -0.2310    5.2870 ca        1 03Q     -0.113000
     34 C34         1.3220   -2.4130    6.3630 ca        1 03Q     -0.304800
     35 HO1         0.2790    0.7280   -0.8910 ho        1 03Q      0.404000
     36 H2          1.7720   -0.8300   -0.2950 h1        1 03Q      0.039200
     37 H2A         2.6420    0.7710   -0.5090 h1        1 03Q      0.039200
     38 H3          1.6750    0.9910    2.1300 h1        1 03Q      0.048200
     39 H3A         3.3570    0.4060    1.6780 h1        1 03Q      0.048200
     40 H5          1.6330   -0.3750    4.0040 h1        1 03Q      0.048700
     41 H5A         3.2690   -1.1290    3.6750 h1        1 03Q      0.048700
     42 H6          2.0860   -3.3460    3.1600 h1        1 03Q      0.070200
     43 H6A         0.5030   -2.5930    3.6240 h1        1 03Q      0.070200
     44 H8          3.5180   -4.2990    4.7940 h4        1 03Q      0.173000
     45 H9          3.8410   -4.3550    7.5110 ha        1 03Q      0.176000
     46 H12         0.4980   -1.4540    9.9570 h5        1 03Q      0.058100
     47 HN15       -0.7740   -1.6710    4.9100 hn        1 03Q      0.415800
     48 H17        -0.3390    1.3370    7.0570 h4        1 03Q      0.049100
     49 H22        -4.4200    5.3360    5.5210 ha        1 03Q      0.156000
     50 H23        -4.2290    7.3610    6.9920 ha        1 03Q      0.146000
     51 H24        -3.8960    7.0900    9.4540 ha        1 03Q      0.152000
     52 H26        -3.9450    2.7800    8.9980 ha        1 03Q      0.168000
     53 H33        -3.0890   -1.1360    4.7080 ha        1 03Q      0.154000
@<TRIPOS>BOND
     1    1    2 1   
     2    1   35 1   
     3    2    3 1   
     4    2   36 1   
     5    2   37 1   
     6    3    4 1   
     7    3   38 1   
     8    3   39 1   
     9    4    5 1   
    10    5    6 1   
    11    5   40 1   
    12    5   41 1   
    13    6    7 1   
    14    6   42 1   
    15    6   43 1   
    16    7    8 1   
    17    7   34 1   
    18    8    9 2   
    19    8   44 1   
    20    9   10 1   
    21    9   45 1   
    22   10   11 ar  
    23   10   34 ar  
    24   11   12 ar  
    25   12   13 ar  
    26   12   46 1   
    27   13   14 ar  
    28   14   15 1   
    29   14   34 ar  
    30   15   16 1   
    31   15   47 1   
    32   16   17 ar  
    33   16   33 ar  
    34   17   18 ar  
    35   17   48 1   
    36   18   19 ar  
    37   19   20 1   
    38   19   31 ar  
    39   20   21 1   
    40   21   22 ar  
    41   21   26 ar  
    42   22   23 ar  
    43   22   49 1   
    44   23   24 ar  
    45   23   50 1   
    46   24   25 ar  
    47   24   51 1   
    48   25   26 ar  
    49   25   27 1   
    50   26   52 1   
    51   27   28 1   
    52   27   29 1   
    53   27   30 1   
    54   31   32 1   
    55   31   33 ar  
    56   33   53 1   
@<TRIPOS>SUBSTRUCTURE
     1 03Q         1 TEMP              0 ****  ****    0 ROOT
