@<TRIPOS>MOLECULE
03R
   64    57     1     0     0
SMALL
bcc


@<TRIPOS>ATOM
      1 C1         -0.8680   -0.8290   -2.4030 c1        1 03R      0.234000
      2 N2          0.4070   -0.8620   -2.8800 n1        1 03R     -0.219000
      3 C3         -1.1010   -0.5650   -1.0610 c1        1 03R      0.024000
      4 O4         -1.9450   -1.1280   -3.2570 os        1 03R     -0.145000
      5 C5          1.4560   -0.6350   -2.0400 c1        1 03R      0.136000
      6 C6         -0.0520   -0.3380   -0.2190 c1        1 03R      0.053000
      7 F7         -2.3560   -0.4470   -0.6120 f         1 03R     -0.084000
      8 C8         -1.6290   -0.7280   -4.5670 c2        1 03R      0.082000
      9 C9          1.2260   -0.3700   -0.6990 c1        1 03R     -0.059000
     10 O10         2.7690   -0.6010   -2.5480 os        1 03R     -0.160000
     11 N11        -0.2840   -0.1650    1.1740 n3        1 03R     -0.251000
     12 C12        -2.3860    0.3790   -4.9200 c1        1 03R     -0.103000
     13 C13        -1.7030   -1.8870   -5.3240 c2        1 03R     -0.152000
     14 F14         2.2580   -0.2040    0.1360 f         1 03R     -0.106000
     15 C15         3.6750   -0.3970   -1.4920 c2        1 03R      0.066000
     16 C16        -1.5120    0.3860    1.6260 c3        1 03R     -0.021000
     17 C17        -3.2170    0.3270   -6.0290 c1        1 03R     -0.134167
     18 C18        -2.2460    1.6650   -4.1450 c2        1 03R      0.367000
     19 C19        -2.5330   -1.9400   -6.4330 c1        1 03R     -0.148000
     20 C20         3.8460   -1.7700   -1.3970 c2        1 03R     -0.094000
     21 C21         4.5610    0.4580   -0.8560 c1        1 03R     -0.106000
     22 C22        -1.3370    0.9220    3.0320 c3        1 03R     -0.200000
     23 C23        -2.5750   -0.6860    1.6250 c3        1 03R     -0.213000
     24 C24        -3.2900   -0.8330   -6.7850 c1        1 03R     -0.134167
     25 O25        -1.4040    2.5250   -4.5040 o         1 03R     -0.563500
     26 O26        -2.9960    1.8900   -3.1620 o         1 03R     -0.563500
     27 C27         4.9030   -2.2880   -0.6640 c1        1 03R     -0.117000
     28 C28         5.6190   -0.0590   -0.1230 c1        1 03R     -0.134167
     29 C29        -2.4860    1.8500    3.3650 c3        1 03R     -0.106000
     30 C30         5.7900   -1.4320   -0.0270 c1        1 03R     -0.134167
     31 C31         5.0310   -3.7820   -0.4760 c2        1 03R      0.125000
     32 C32        -2.1970    2.5640    4.6700 c2        1 03R     -0.088000
     33 N33         4.3540   -4.3820    0.4670 n1        1 03R     -0.321000
     34 N34         5.8850   -4.5320   -1.3230 n3        1 03R     -0.329000
     35 C35        -2.3440    3.9410    4.5990 c2        1 03R     -0.106000
     36 C36        -2.0040    1.9500    5.8980 c1        1 03R     -0.146000
     37 C37        -2.2980    4.7030    5.7550 c1        1 03R     -0.117000
     38 C38        -1.9570    2.7130    7.0540 c1        1 03R     -0.134167
     39 C39        -2.1040    4.0890    6.9830 c1        1 03R     -0.134167
     40 H11         0.3490   -0.4210    1.7760 hn        1 03R      0.176000
     41 H13        -1.1470   -2.6560   -5.0940 ha        1 03R      0.131000
     42 H16        -1.7810    1.1110    1.0320 h1        1 03R      0.119000
     43 H17        -3.7500    1.1070   -6.2780 ha        1 03R      0.127167
     44 H19        -2.5850   -2.7590   -6.9670 ha        1 03R      0.111000
     45 H20         3.2210   -2.3730   -1.8460 ha        1 03R      0.158000
     46 H21         4.4410    1.4250   -0.9230 ha        1 03R      0.153000
     47 H221       -0.4930    1.4140    3.0910 hc        1 03R      0.112000
     48 H222       -1.3250    0.1760    3.6670 hc        1 03R      0.112000
     49 H231       -3.4240   -0.3040    1.3170 hc        1 03R      0.074667
     50 H232       -2.3060   -1.4110    1.0250 hc        1 03R      0.074667
     51 H233       -2.6850   -1.0380    2.5350 hc        1 03R      0.074667
     52 H24        -3.8750   -0.8700   -7.5660 ha        1 03R      0.127167
     53 H28         6.2380    0.5420    0.3320 ha        1 03R      0.127167
     54 H291       -3.3110    1.3300    3.4530 hc        1 03R      0.076500
     55 H292       -2.5910    2.5080    2.6510 hc        1 03R      0.076500
     56 H30         6.5360   -1.7960    0.4900 ha        1 03R      0.127167
     57 H33         3.8030   -3.8970    1.0130 DU        1 03R      0.145000
     58 H341        5.9500   -5.4370   -1.2190 hn        1 03R      0.195500
     59 H342        6.3500   -4.1140   -1.9900 hn        1 03R      0.195500
     60 H35        -2.5120    4.3700    3.7380 ha        1 03R      0.215000
     61 H36        -1.9300    0.9800    5.9510 ha        1 03R      0.109000
     62 H37        -2.3890    5.6740    5.7040 ha        1 03R      0.166000
     63 H38        -1.8260    2.2800    7.9200 ha        1 03R      0.127167
     64 H39        -1.9080    4.6570    7.7510 ha        1 03R      0.127167
@<TRIPOS>BOND
     1    1    3 1   
     2    1    4 1   
     3    2    5 1   
     4    3    7 1   
     5    4    8 1   
     6    5   10 1   
     7    6    9 1   
     8    6   11 1   
     9    8   12 1   
    10    8   13 1   
    11    9   14 1   
    12   10   15 1   
    13   11   16 1   
    14   11   40 1   
    15   12   18 1   
    16   13   19 1   
    17   13   41 1   
    18   15   20 1   
    19   15   21 1   
    20   16   22 1   
    21   16   23 1   
    22   16   42 1   
    23   17   24 1   
    24   17   43 1   
    25   18   25 1   
    26   18   26 1   
    27   19   44 1   
    28   20   27 1   
    29   20   45 1   
    30   21   46 1   
    31   22   29 1   
    32   22   47 1   
    33   22   48 1   
    34   23   49 1   
    35   23   50 1   
    36   23   51 1   
    37   24   52 1   
    38   27   31 1   
    39   28   30 1   
    40   28   53 1   
    41   29   32 1   
    42   29   54 1   
    43   29   55 1   
    44   30   56 1   
    45   31   33 1   
    46   31   34 1   
    47   32   35 1   
    48   32   36 1   
    49   34   58 1   
    50   34   59 1   
    51   35   37 1   
    52   35   60 1   
    53   36   61 1   
    54   37   62 1   
    55   38   39 1   
    56   38   63 1   
    57   39   64 1   
@<TRIPOS>SUBSTRUCTURE
     1 03R         1 TEMP              0 ****  ****    0 ROOT
