@<TRIPOS>MOLECULE
03R
   65    68     1     0     0
SMALL
bcc


@<TRIPOS>ATOM
      1 C1          0.9220   -0.6080   -0.1160 ca        1 03R      0.617600
      2 N2          2.2650   -0.4560   -0.0300 nb        1 03R     -0.744000
      3 C3          0.0220   -0.4470    0.9640 ca        1 03R     -0.077400
      4 O4          0.3410   -1.0470   -1.3040 os        1 03R     -0.366400
      5 C5          2.7420   -0.1150    1.1840 ca        1 03R      0.638600
      6 C6          0.5320   -0.0930    2.2620 ca        1 03R      0.183600
      7 F7         -1.3040   -0.6290    0.7720 f         1 03R     -0.114900
      8 C8          0.9550   -0.6640   -2.5000 ca        1 03R      0.142100
      9 C9          1.9400    0.0890    2.3510 ca        1 03R     -0.050400
     10 O10         4.0960    0.0850    1.4060 os        1 03R     -0.350400
     11 N11        -0.3560    0.1650    3.2980 nh        1 03R     -0.727600
     12 C12         1.0810   -1.6450   -3.4990 ca        1 03R     -0.175600
     13 C13         1.3110    0.6680   -2.7360 ca        1 03R     -0.150000
     14 F14         2.5520    0.4630    3.4940 f         1 03R     -0.107900
     15 C15         4.9680   -0.0720    0.3220 ca        1 03R      0.094100
     16 C16        -0.2020   -0.3360    4.6580 c3        1 03R      0.216500
     17 C17         1.5540   -1.2490   -4.7590 ca        1 03R     -0.058000
     18 C18         0.7170   -3.0630   -3.3190 c         1 03R      0.651700
     19 C19         1.8000    1.0290   -3.9900 ca        1 03R     -0.081000
     20 C20         5.6990    1.0580   -0.0640 ca        1 03R     -0.109000
     21 C21         5.1880   -1.3260   -0.2580 ca        1 03R     -0.108000
     22 C22         0.3510    0.7180    5.6300 c3        1 03R     -0.083400
     23 C23         0.6110   -1.6210    4.7900 c3        1 03R     -0.123100
     24 C24         1.9180    0.0730   -5.0000 ca        1 03R     -0.146000
     25 O25         0.3600   -3.8300   -4.2170 o         1 03R     -0.496000
     26 O26         0.7940   -3.6650   -2.0980 oh        1 03R     -0.572100
     27 C27         6.6850    0.9130   -1.0420 ca        1 03R     -0.178900
     28 C28         6.1700   -1.4450   -1.2400 ca        1 03R     -0.118000
     29 C29        -0.5980    1.8890    5.7980 c3        1 03R     -0.035100
     30 C30         6.9180   -0.3350   -1.6310 ca        1 03R     -0.104000
     31 C31         7.5150    2.0900   -1.4600 ce        1 03R      0.639800
     32 C32        -0.1030    2.8470    6.8250 ca        1 03R     -0.081300
     33 N33         8.8150    2.1150   -1.4120 n2        1 03R     -0.830100
     34 N34         6.7720    3.1630   -1.9910 nh        1 03R     -0.892800
     35 C35         1.0180    3.6430    6.5600 ca        1 03R     -0.127000
     36 C36        -0.7570    2.9720    8.0550 ca        1 03R     -0.127000
     37 C37         1.4780    4.5490    7.5140 ca        1 03R     -0.127500
     38 C38        -0.2950    3.8800    9.0080 ca        1 03R     -0.127500
     39 C39         0.8220    4.6690    8.7390 ca        1 03R     -0.131000
     40 H11        -1.3110    0.1340    2.9940 hn        1 03R      0.420800
     41 H13         1.2080    1.4150   -1.9350 ha        1 03R      0.152000
     42 H16        -1.2580   -0.5750    5.0070 h1        1 03R      0.050700
     43 H17         1.6280   -2.0070   -5.5570 ha        1 03R      0.164000
     44 H19         2.0880    2.0740   -4.1830 ha        1 03R      0.144000
     45 H20         5.5060    2.0270    0.4200 ha        1 03R      0.150000
     46 H21         4.5910   -2.1950    0.0550 ha        1 03R      0.152000
     47 H221        1.3500    1.0890    5.2820 hc        1 03R      0.061200
     48 H222        0.5030    0.2140    6.6210 hc        1 03R      0.061200
     49 H231        0.5160   -2.0040    5.8350 hc        1 03R      0.051700
     50 H232        0.2370   -2.4070    4.0910 hc        1 03R      0.051700
     51 H233        1.6920   -1.4350    4.5800 hc        1 03R      0.051700
     52 H24         2.2970    0.3640   -5.9910 ha        1 03R      0.147000
     53 H28         6.3550   -2.4230   -1.7090 ha        1 03R      0.145000
     54 H291       -0.7100    2.4280    4.8190 hc        1 03R      0.050200
     55 H292       -1.6150    1.5090    6.0860 hc        1 03R      0.050200
     56 H30         7.6890   -0.4380   -2.4100 ha        1 03R      0.148000
     57 H33         9.2300    1.2600   -1.1120 hn        1 03R      0.396400
     58 H341        5.8810    3.2800   -1.5640 hn        1 03R      0.399800
     59 H342        7.2740    4.0160   -2.1140 hn        1 03R      0.399800
     60 H35         1.5360    3.5490    5.5940 ha        1 03R      0.131500
     61 H36        -1.6400    2.3530    8.2720 ha        1 03R      0.131500
     62 H37         2.3600    5.1710    7.2990 ha        1 03R      0.131000
     63 H38        -0.8160    3.9730    9.9720 ha        1 03R      0.131000
     64 H39         1.1850    5.3850    9.4910 ha        1 03R      0.131000
     65 H343        1.0730   -3.0330   -1.4210 ho        1 03R      0.436000
@<TRIPOS>BOND
     1    1    2 ar  
     2    1    3 ar  
     3    1    4 1   
     4    2    5 ar  
     5    3    6 ar  
     6    3    7 1   
     7    4    8 1   
     8    5    9 ar  
     9    5   10 1   
    10    6    9 ar  
    11    6   11 1   
    12    8   12 ar  
    13    8   13 ar  
    14    9   14 1   
    15   10   15 1   
    16   11   16 1   
    17   11   40 1   
    18   12   17 ar  
    19   12   18 1   
    20   13   19 ar  
    21   13   41 1   
    22   15   20 ar  
    23   15   21 ar  
    24   16   22 1   
    25   16   23 1   
    26   16   42 1   
    27   17   24 ar  
    28   17   43 1   
    29   18   25 2   
    30   18   26 1   
    31   19   24 ar  
    32   19   44 1   
    33   20   27 ar  
    34   20   45 1   
    35   21   28 ar  
    36   21   46 1   
    37   22   29 1   
    38   22   47 1   
    39   22   48 1   
    40   23   49 1   
    41   23   50 1   
    42   23   51 1   
    43   24   52 1   
    44   26   65 1   
    45   27   30 ar  
    46   27   31 1   
    47   28   30 ar  
    48   28   53 1   
    49   29   32 1   
    50   29   54 1   
    51   29   55 1   
    52   30   56 1   
    53   31   33 2   
    54   31   34 1   
    55   32   35 ar  
    56   32   36 ar  
    57   33   57 1   
    58   34   58 1   
    59   34   59 1   
    60   35   37 ar  
    61   35   60 1   
    62   36   38 ar  
    63   36   61 1   
    64   37   39 ar  
    65   37   62 1   
    66   38   39 ar  
    67   38   63 1   
    68   39   64 1   
@<TRIPOS>SUBSTRUCTURE
     1 03R         1 TEMP              0 ****  ****    0 ROOT
