@<TRIPOS>MOLECULE
03R
   64    67     1     0     0
SMALL
bcc


@<TRIPOS>ATOM
      1 C1         30.9370    6.7180    7.6150 ca        1 03R      0.724600
      2 N2         30.5230    6.5930    8.8960 nb        1 03R     -0.724000
      3 C3         32.2060    7.2610    7.2380 ca        1 03R     -0.049400
      4 O4         30.1950    6.2180    6.5630 os        1 03R     -0.355400
      5 C5         31.3450    7.1000    9.8400 ca        1 03R      0.632600
      6 C6         33.0690    7.7780    8.2410 ca        1 03R      0.126600
      7 F7         32.5610    7.2990    5.9320 f         1 03R     -0.131900
      8 C8         28.8090    6.0980    6.7230 ca        1 03R      0.128100
      9 C9         32.6210    7.6810    9.5890 ca        1 03R     -0.044400
     10 O10        31.0120    7.0150   11.1890 os        1 03R     -0.368400
     11 N11        34.3460    8.2860    7.9100 nh        1 03R     -0.706600
     12 C12        27.9700    7.1540    7.1030 ca        1 03R     -0.128600
     13 C13        28.2960    4.8460    6.3420 ca        1 03R     -0.158000
     14 F14        33.3630    8.1270   10.6270 f         1 03R     -0.129900
     15 C15        29.6550    7.0700   11.5210 ca        1 03R      0.102100
     16 C16        34.6110    9.7090    8.1410 c3        1 03R      0.197500
     17 C17        26.5870    6.9250    7.0790 ca        1 03R     -0.093000
     18 C18        28.4660    8.5170    7.5540 c         1 03R      0.912200
     19 C19        26.9190    4.6560    6.3180 ca        1 03R     -0.141000
     20 C20        29.2680    6.2380   12.5810 ca        1 03R     -0.130000
     21 C21        28.7570    7.9570   10.9160 ca        1 03R     -0.106000
     22 C22        35.6120    9.9260    9.2890 c3        1 03R     -0.076400
     23 C23        33.3760   10.5680    8.4020 c3        1 03R     -0.124100
     24 C24        26.0640    5.6960    6.6870 ca        1 03R     -0.165000
     25 O25        27.6600    9.2570    8.1860 o         1 03R     -0.827300
     26 O26        29.6610    8.8460    7.2980 o         1 03R     -0.827300
     27 C27        27.9530    6.3170   13.0460 ca        1 03R     -0.151900
     28 C28        27.4510    8.0180   11.4020 ca        1 03R     -0.108000
     29 C29        36.9760    9.3450    8.9720 c3        1 03R     -0.038100
     30 C30        27.0470    7.2110   12.4660 ca        1 03R     -0.117000
     31 C31        27.5000    5.4130   14.1490 ce        1 03R      0.658800
     32 C32        37.9640    9.6380   10.0470 ca        1 03R     -0.067300
     33 N33        26.8860    5.9200   15.1760 n2        1 03R     -0.834100
     34 N34        27.8570    4.0540   13.9660 nh        1 03R     -0.957800
     35 C35        37.8170    9.0580   11.3140 ca        1 03R     -0.129000
     36 C36        39.0550   10.4800    9.8050 ca        1 03R     -0.129000
     37 C37        38.7450    9.3180   12.3190 ca        1 03R     -0.132500
     38 C38        39.9830   10.7380   10.8130 ca        1 03R     -0.132500
     39 C39        39.8310   10.1580   12.0710 ca        1 03R     -0.143000
     40 H11        34.5640    8.0530    6.9570 hn        1 03R      0.383800
     41 H13        28.9860    4.0410    6.0550 ha        1 03R      0.128000
     42 H16        35.1040   10.1040    7.1990 h1        1 03R      0.030700
     43 H17        25.9280    7.7520    7.3880 ha        1 03R      0.157000
     44 H19        26.5070    3.6840    6.0120 ha        1 03R      0.110000
     45 H20        30.0010    5.5580   13.0360 ha        1 03R      0.146000
     46 H21        29.0430    8.5810   10.0460 ha        1 03R      0.206000
     47 H221       35.2150    9.4690   10.2330 hc        1 03R      0.054700
     48 H222       35.7030   11.0310    9.4560 hc        1 03R      0.054700
     49 H231       32.5940   10.4010    7.6210 hc        1 03R      0.056033
     50 H232       33.6680   11.6450    8.3950 hc        1 03R      0.056033
     51 H233       32.9330   10.3240    9.3990 hc        1 03R      0.056033
     52 H24        24.9760    5.5410    6.6720 ha        1 03R      0.112000
     53 H28        26.7400    8.7050   10.9140 ha        1 03R      0.162000
     54 H291       37.3400    9.7590    7.9930 hc        1 03R      0.050700
     55 H292       36.8910    8.2310    8.8520 hc        1 03R      0.050700
     56 H30        26.0180    7.2760   12.8470 ha        1 03R      0.135000
     57 H33        26.5910    5.2710   15.8750 hn        1 03R      0.367400
     58 H341       27.2620    3.3820   14.3920 hn        1 03R      0.392800
     59 H342       28.1330    3.8170   13.0400 hn        1 03R      0.392800
     60 H35        36.9580    8.3960   11.5090 ha        1 03R      0.136000
     61 H36        39.1800   10.9420    8.8150 ha        1 03R      0.136000
     62 H37        38.6200    8.8600   13.3110 ha        1 03R      0.124000
     63 H38        40.8370   11.4020   10.6130 ha        1 03R      0.124000
     64 H39        40.5620   10.3630   12.8650 ha        1 03R      0.122000
@<TRIPOS>BOND
     1    1    2 ar  
     2    1    3 ar  
     3    1    4 1   
     4    2    5 ar  
     5    3    6 ar  
     6    3    7 1   
     7    4    8 1   
     8    5    9 ar  
     9    5   10 1   
    10    6    9 ar  
    11    6   11 1   
    12    8   12 ar  
    13    8   13 ar  
    14    9   14 1   
    15   10   15 1   
    16   11   16 1   
    17   11   40 1   
    18   12   17 ar  
    19   12   18 1   
    20   13   19 ar  
    21   13   41 1   
    22   15   20 ar  
    23   15   21 ar  
    24   16   22 1   
    25   16   23 1   
    26   16   42 1   
    27   17   24 ar  
    28   17   43 1   
    29   18   25 1   
    30   18   26 1   
    31   19   24 ar  
    32   19   44 1   
    33   20   27 ar  
    34   20   45 1   
    35   21   28 ar  
    36   21   46 1   
    37   22   29 1   
    38   22   47 1   
    39   22   48 1   
    40   23   49 1   
    41   23   50 1   
    42   23   51 1   
    43   24   52 1   
    44   27   30 ar  
    45   27   31 1   
    46   28   30 ar  
    47   28   53 1   
    48   29   32 1   
    49   29   54 1   
    50   29   55 1   
    51   30   56 1   
    52   31   33 2   
    53   31   34 1   
    54   32   35 ar  
    55   32   36 ar  
    56   33   57 1   
    57   34   58 1   
    58   34   59 1   
    59   35   37 ar  
    60   35   60 1   
    61   36   38 ar  
    62   36   61 1   
    63   37   39 ar  
    64   37   62 1   
    65   38   39 ar  
    66   38   63 1   
    67   39   64 1   
@<TRIPOS>SUBSTRUCTURE
     1 03R         1 TEMP              0 ****  ****    0 ROOT
