@<TRIPOS>MOLECULE
03R
   66    70     1     0     0
SMALL
bcc


@<TRIPOS>ATOM
      1 C1          1.8340    1.2030    0.5040 c3        1 03R      0.668000
      2 N2          3.2640    1.1210    0.4370 n2        1 03R     -0.604200
      3 C3          1.1780    0.9200    1.8360 c2        1 03R     -0.018700
      4 O4          1.3170    2.4960    0.1060 os        1 03R     -0.335900
      5 C5          3.9280    0.7640    1.5210 ce        1 03R      0.347100
      6 C6          1.9660    0.6410    2.9430 cf        1 03R      0.034000
      7 F7         -0.1670    0.9990    1.9020 f         1 03R     -0.150500
      8 C8          1.5110    2.8580   -1.2070 ca        1 03R      0.201100
      9 C9          3.3770    0.5170    2.8130 cf        1 03R     -0.135500
     10 O10         5.3300    0.6540    1.4570 os        1 03R     -0.229200
     11 N11         1.3500    0.4720    4.2610 n4        1 03R     -0.636800
     12 C12         1.6190    1.8760   -2.2120 ca        1 03R     -0.250600
     13 C13         1.5260    4.2230   -1.5290 ca        1 03R     -0.160000
     14 F14         4.1590    0.2080    3.8760 f         1 03R     -0.165500
     15 C15         5.8260   -0.3180    0.5950 ca        1 03R      0.136100
     16 C16         0.6840   -0.8760    4.4250 c3        1 03R      0.134500
     17 C17         1.7470    2.2670   -3.5490 ca        1 03R     -0.036000
     18 C18         1.5710    0.4880   -1.7770 c         1 03R      0.809200
     19 C19         1.6470    4.5880   -2.8660 ca        1 03R     -0.051000
     20 C20         5.3460   -0.5440   -0.6980 ca        1 03R     -0.142000
     21 C21         6.9220   -1.0500    1.0920 ca        1 03R     -0.093000
     22 C22        -0.3360   -0.8540    5.5660 c3        1 03R     -0.106400
     23 C23         1.7120   -1.9730    4.6670 c3        1 03R     -0.127100
     24 C24         1.7600    3.6190   -3.8720 ca        1 03R     -0.171000
     25 O25         1.7410   -0.5470   -2.4420 o         1 03R     -0.716500
     26 O26         1.2840    0.2480   -0.4550 os        1 03R     -0.460900
     27 C27         5.9180   -1.5680   -1.4630 ca        1 03R     -0.236900
     28 C28         7.5080   -2.0260    0.2920 ca        1 03R     -0.105000
     29 C29        -1.5060    0.0780    5.3170 c3        1 03R     -0.057100
     30 C30         7.0030   -2.3060   -0.9790 ca        1 03R     -0.107000
     31 C31         5.3800   -1.8550   -2.8110 ce        1 03R      0.590800
     32 C32        -1.2410    1.4860    5.7240 ca        1 03R     -0.135300
     33 N33         5.9700   -1.8990   -3.9470 n2        1 03R     -0.721100
     34 N34         3.9090   -2.1440   -2.7950 n4        1 03R     -0.817600
     35 C35        -1.2740    2.5150    4.7740 ca        1 03R     -0.143500
     36 C36        -1.0120    1.8020    7.0690 ca        1 03R     -0.143500
     37 C37        -1.0730    3.8390    5.1650 ca        1 03R     -0.118000
     38 C38        -0.8080    3.1250    7.4560 ca        1 03R     -0.118000
     39 C39        -0.8370    4.1450    6.5050 ca        1 03R     -0.116000
     40 H11         2.0780    0.5800    4.9780 hn        1 03R      0.466800
     41 H13         1.4370    4.9750   -0.7320 ha        1 03R      0.164000
     42 H16         0.1440   -1.0690    3.4470 hx        1 03R      0.114700
     43 H17         1.8210    1.4980   -4.3340 ha        1 03R      0.144000
     44 H19         1.6580    5.6560   -3.1370 ha        1 03R      0.151000
     45 H20         4.5510    0.0920   -1.1210 ha        1 03R      0.182000
     46 H21         7.3040   -0.8340    2.1030 ha        1 03R      0.175000
     47 H221       -0.7230   -1.9060    5.6600 hc        1 03R      0.077700
     48 H222        0.1670   -0.5970    6.5360 hc        1 03R      0.077700
     49 H231        2.5450   -1.9200    3.9220 hc        1 03R      0.072033
     50 H232        1.2040   -2.9630    4.5640 hc        1 03R      0.072033
     51 H233        2.1440   -1.9000    5.6950 hc        1 03R      0.072033
     52 H24         1.8530    3.9330   -4.9220 ha        1 03R      0.150000
     53 H28         8.3740   -2.5950    0.6710 ha        1 03R      0.162000
     54 H291       -2.3880   -0.2980    5.9070 hc        1 03R      0.074200
     55 H292       -1.7990    0.0370    4.2320 hc        1 03R      0.074200
     56 H30         7.4580   -3.1020   -1.5880 ha        1 03R      0.148000
     57 H33         6.9490   -1.7000   -3.9660 hn        1 03R      0.474400
     58 H341        3.4740   -1.6770   -1.9780 hn        1 03R      0.478467
     59 H342        3.4330   -1.7890   -3.6370 hn        1 03R      0.478467
     60 H35        -1.4850    2.2830    3.7160 ha        1 03R      0.142500
     61 H36        -1.0120    1.0020    7.8270 ha        1 03R      0.142500
     62 H37        -1.1110    4.6430    4.4130 ha        1 03R      0.148500
     63 H38        -0.6360    3.3660    8.5170 ha        1 03R      0.148500
     64 H39        -0.6850    5.1910    6.8130 ha        1 03R      0.149000
     65 H112        0.6380    1.2120    4.3840 hn        1 03R      0.466800
     66 H343        3.7590   -3.1530   -2.7260 hn        1 03R      0.478467
@<TRIPOS>BOND
     1    1    2 1   
     2    1    3 1   
     3    1    4 1   
     4    1   26 1   
     5    2    5 1   
     6    3    6 2   
     7    3    7 1   
     8    4    8 1   
     9    5    9 2   
    10    5   10 1   
    11    6    9 1   
    12    6   11 1   
    13    8   12 ar  
    14    8   13 ar  
    15    9   14 1   
    16   10   15 1   
    17   11   16 1   
    18   11   40 1   
    19   11   65 1   
    20   12   17 ar  
    21   12   18 1   
    22   13   19 ar  
    23   13   41 1   
    24   15   20 ar  
    25   15   21 ar  
    26   16   22 1   
    27   16   23 1   
    28   16   42 1   
    29   17   24 ar  
    30   17   43 1   
    31   18   25 2   
    32   18   26 1   
    33   19   24 ar  
    34   19   44 1   
    35   20   27 ar  
    36   20   45 1   
    37   21   28 ar  
    38   21   46 1   
    39   22   29 1   
    40   22   47 1   
    41   22   48 1   
    42   23   49 1   
    43   23   50 1   
    44   23   51 1   
    45   24   52 1   
    46   27   30 ar  
    47   27   31 1   
    48   28   30 ar  
    49   28   53 1   
    50   29   32 1   
    51   29   54 1   
    52   29   55 1   
    53   30   56 1   
    54   31   33 2   
    55   31   34 1   
    56   32   35 ar  
    57   32   36 ar  
    58   33   57 1   
    59   34   58 1   
    60   34   59 1   
    61   34   66 1   
    62   35   37 ar  
    63   35   60 1   
    64   36   38 ar  
    65   36   61 1   
    66   37   39 ar  
    67   37   62 1   
    68   38   39 ar  
    69   38   63 1   
    70   39   64 1   
@<TRIPOS>SUBSTRUCTURE
     1 03R         1 TEMP              0 ****  ****    0 ROOT
