@<TRIPOS>MOLECULE
03R
   65    68     1     0     0
SMALL
bcc


@<TRIPOS>ATOM
      1 C1          0.8560    0.2610   -0.2690 ca        1 03R      0.647600
      2 N2          2.1890    0.4680   -0.1730 nb        1 03R     -0.731000
      3 C3         -0.0380    0.2220    0.8360 ca        1 03R     -0.072400
      4 O4          0.2400    0.0250   -1.4930 os        1 03R     -0.347400
      5 C5          2.6600    0.6700    1.0770 ca        1 03R      0.629600
      6 C6          0.4660    0.4320    2.1590 ca        1 03R      0.168600
      7 F7         -1.3550   -0.0060    0.6260 f         1 03R     -0.118900
      8 C8          0.9210    0.4110   -2.6480 ca        1 03R      0.157100
      9 C9          1.8670    0.6700    2.2620 ca        1 03R     -0.041400
     10 O10         3.9960    1.0000    1.2890 os        1 03R     -0.360400
     11 N11        -0.4160    0.5110    3.2360 nu        1 03R     -0.722600
     12 C12         1.8690   -0.4240   -3.2640 ca        1 03R     -0.123600
     13 C13         0.5110    1.6080   -3.2530 ca        1 03R     -0.139000
     14 F14         2.4700    0.9170    3.4440 f         1 03R     -0.112900
     15 C15         4.9480    0.2580    0.5830 ca        1 03R      0.083100
     16 C16        -0.2320   -0.2410    4.4720 c3        1 03R      0.211500
     17 C17         2.3840   -0.0460   -4.5130 ca        1 03R     -0.068000
     18 C18         2.3200   -1.6660   -2.6280 c         1 03R      0.660700
     19 C19         1.0360    1.9620   -4.4930 ca        1 03R     -0.086000
     20 C20         5.2460    0.5510   -0.7520 ca        1 03R     -0.081000
     21 C21         5.6830   -0.6870    1.3120 ca        1 03R     -0.113000
     22 C22         0.2960    0.6280    5.6250 c3        1 03R     -0.081400
     23 C23         0.6340   -1.4930    4.3510 c3        1 03R     -0.122100
     24 C24         1.9680    1.1350   -5.1230 ca        1 03R     -0.138000
     25 O25         1.8280   -2.3070   -1.6970 o         1 03R     -0.527000
     26 O26         3.4690   -2.1880   -3.1680 oh        1 03R     -0.629100
     27 C27         6.3130   -0.1190   -1.3580 ca        1 03R     -0.193900
     28 C28         6.7470   -1.3370    0.6890 ca        1 03R     -0.129000
     29 C29        -0.6930    1.7080    6.0210 c3        1 03R     -0.035100
     30 C30         7.0630   -1.0550   -0.6390 ca        1 03R     -0.114000
     31 C31         6.6810    0.1640   -2.7840 ce        1 03R      0.645800
     32 C32        -0.2150    2.4740    7.2050 ca        1 03R     -0.080300
     33 N33         7.8820    0.4780   -3.1760 n2        1 03R     -0.840100
     34 N34         5.5990    0.1170   -3.6820 nv        1 03R     -0.903800
     35 C35         0.8680    3.3540    7.0820 ca        1 03R     -0.127500
     36 C36        -0.8480    2.3370    8.4450 ca        1 03R     -0.127500
     37 C37         1.3110    4.0820    8.1840 ca        1 03R     -0.128500
     38 C38        -0.4030    3.0670    9.5460 ca        1 03R     -0.128500
     39 C39         0.6760    3.9400    9.4190 ca        1 03R     -0.133000
     40 H11        -1.3720    0.4850    2.9320 hn        1 03R      0.412800
     41 H13        -0.2300    2.2450   -2.7460 ha        1 03R      0.158000
     42 H16        -1.2720   -0.5850    4.7760 h1        1 03R      0.047700
     43 H17         3.1220   -0.6960   -5.0090 ha        1 03R      0.153000
     44 H19         0.7150    2.8980   -4.9750 ha        1 03R      0.145000
     45 H20         4.6510    1.2940   -1.3060 ha        1 03R      0.172000
     46 H21         5.4260   -0.8930    2.3610 ha        1 03R      0.152000
     47 H221        0.4810   -0.0490    6.5000 hc        1 03R      0.060200
     48 H222        1.2750    1.0970    5.3470 hc        1 03R      0.060200
     49 H231        1.7020   -1.2220    4.1700 hc        1 03R      0.050033
     50 H232        0.2810   -2.1450    3.5160 hc        1 03R      0.050033
     51 H233        0.5720   -2.0720    5.3040 hc        1 03R      0.050033
     52 H24         2.3820    1.4190   -6.1020 ha        1 03R      0.146000
     53 H28         7.3380   -2.0760    1.2500 ha        1 03R      0.141000
     54 H291       -1.6900    1.2410    6.2430 hc        1 03R      0.050700
     55 H292       -0.8410    2.4170    5.1620 hc        1 03R      0.050700
     56 H30         7.9040   -1.5750   -1.1230 ha        1 03R      0.142000
     57 H33         8.5400    0.5750   -2.4340 hn        1 03R      0.393400
     58 H341        4.8860   -0.5310   -3.4250 hn        1 03R      0.406800
     59 H342        5.8410    0.0910   -4.6480 hn        1 03R      0.406800
     60 H35         1.3680    3.4670    6.1080 ha        1 03R      0.132500
     61 H36        -1.7010    1.6510    8.5520 ha        1 03R      0.132500
     62 H37         2.1620    4.7700    8.0800 ha        1 03R      0.130500
     63 H38        -0.9070    2.9530   10.5180 ha        1 03R      0.130500
     64 H39         1.0260    4.5150   10.2880 ha        1 03R      0.130000
     65 H343        3.6990   -3.0050   -2.6950 ho        1 03R      0.450000
@<TRIPOS>BOND
     1    1    2 ar  
     2    1    3 ar  
     3    1    4 1   
     4    2    5 ar  
     5    3    6 ar  
     6    3    7 1   
     7    4    8 1   
     8    5    9 ar  
     9    5   10 1   
    10    6    9 ar  
    11    6   11 1   
    12    8   12 ar  
    13    8   13 ar  
    14    9   14 1   
    15   10   15 1   
    16   11   16 1   
    17   11   40 1   
    18   12   17 ar  
    19   12   18 1   
    20   13   19 ar  
    21   13   41 1   
    22   15   20 ar  
    23   15   21 ar  
    24   16   22 1   
    25   16   23 1   
    26   16   42 1   
    27   17   24 ar  
    28   17   43 1   
    29   18   25 2   
    30   18   26 1   
    31   19   24 ar  
    32   19   44 1   
    33   20   27 ar  
    34   20   45 1   
    35   21   28 ar  
    36   21   46 1   
    37   22   29 1   
    38   22   47 1   
    39   22   48 1   
    40   23   49 1   
    41   23   50 1   
    42   23   51 1   
    43   24   52 1   
    44   26   65 1   
    45   27   30 ar  
    46   27   31 1   
    47   28   30 ar  
    48   28   53 1   
    49   29   32 1   
    50   29   54 1   
    51   29   55 1   
    52   30   56 1   
    53   31   33 2   
    54   31   34 1   
    55   32   35 ar  
    56   32   36 ar  
    57   33   57 1   
    58   34   58 1   
    59   34   59 1   
    60   35   37 ar  
    61   35   60 1   
    62   36   38 ar  
    63   36   61 1   
    64   37   39 ar  
    65   37   62 1   
    66   38   39 ar  
    67   38   63 1   
    68   39   64 1   
@<TRIPOS>SUBSTRUCTURE
     1 03R         1 TEMP              0 ****  ****    0 ROOT
