@<TRIPOS>MOLECULE
03S
    8     7     1     0     0
SMALL
bcc


@<TRIPOS>ATOM
      1 S10         0.0920   -0.1060    0.1620 s6        1 03S      1.427800
      2 O11         1.4860    0.1610    0.2030 o         1 03S     -0.758200
      3 O12        -0.5750    0.1720    1.3830 o         1 03S     -0.758200
      4 C13        -0.5600    1.0550   -0.9880 c3        1 03S     -0.334300
      5 H113       -1.0500    0.5350   -1.8390 h1        1 03S      0.060700
      6 H213        0.2460    1.7020   -1.3970 h1        1 03S      0.060700
      7 H313       -1.3150    1.7100   -0.5030 h1        1 03S      0.060700
      8 OXT        -0.2250   -1.3780   -0.3810 o         1 03S     -0.758200
@<TRIPOS>BOND
     1    1    2 1   
     2    1    3 1   
     3    1    4 1   
     4    1    8 1   
     5    4    5 1   
     6    4    6 1   
     7    4    7 1   
@<TRIPOS>SUBSTRUCTURE
     1 03S         1 TEMP              0 ****  ****    0 ROOT
