@<TRIPOS>MOLECULE
03S
    8     7     1     0     0
SMALL
bcc


@<TRIPOS>ATOM
      1 S10        -0.0680   -0.0000    0.0070 s6        1 03S      1.429800
      2 O11        -0.3380   -1.1870    0.7350 o         1 03S     -0.758200
      3 O12        -0.3380    1.1870    0.7360 o         1 03S     -0.758200
      4 C13         1.6720    0.0000   -0.2300 c3        1 03S     -0.323300
      5 H113        1.9920   -0.8990   -0.7970 h1        1 03S      0.055700
      6 H213        1.9920    0.8990   -0.7970 h1        1 03S      0.055700
      7 H313        2.2020    0.0000    0.7470 h1        1 03S      0.055700
      8 OXT        -0.6150    0.0000   -1.3020 o         1 03S     -0.758200
@<TRIPOS>BOND
     1    1    2 1   
     2    1    3 1   
     3    1    4 1   
     4    1    8 1   
     5    4    5 1   
     6    4    6 1   
     7    4    7 1   
@<TRIPOS>SUBSTRUCTURE
     1 03S         1 TEMP              0 ****  ****    0 ROOT
