@<TRIPOS>MOLECULE
03S
    8     7     1     0     0
SMALL
bcc


@<TRIPOS>ATOM
      1 S10         0.0920   -0.1540    0.1090 s6        1 03S      1.427800
      2 O11         1.4720    0.1520    0.2340 o         1 03S     -0.758200
      3 O12        -0.6290   -0.0300    1.3250 o         1 03S     -0.758200
      4 C13        -0.5590    1.1020   -0.9360 c3        1 03S     -0.334300
      5 H113       -1.0050    0.6610   -1.8540 h1        1 03S      0.060700
      6 H213        0.2380    1.8110   -1.2470 h1        1 03S      0.060700
      7 H313       -1.3510    1.6810   -0.4130 h1        1 03S      0.060700
      8 OXT        -0.1600   -1.3700   -0.5780 o         1 03S     -0.758200
@<TRIPOS>BOND
     1    1    2 1   
     2    1    3 1   
     3    1    4 1   
     4    1    8 1   
     5    4    5 1   
     6    4    6 1   
     7    4    7 1   
@<TRIPOS>SUBSTRUCTURE
     1 03S         1 TEMP              0 ****  ****    0 ROOT
