@<TRIPOS>MOLECULE
03S
    8     7     1     0     0
SMALL
bcc


@<TRIPOS>ATOM
      1 S10         0.0920   -0.1540    0.1090 s6        1 03S      1.427800
      2 O11         1.4720    0.1510    0.2330 o         1 03S     -0.758200
      3 O12        -0.6280   -0.0290    1.3260 o         1 03S     -0.758200
      4 C13        -0.5590    1.1020   -0.9360 c3        1 03S     -0.334300
      5 H113       -1.0030    0.6610   -1.8550 h1        1 03S      0.060700
      6 H213        0.2370    1.8120   -1.2450 h1        1 03S      0.060700
      7 H313       -1.3520    1.6800   -0.4140 h1        1 03S      0.060700
      8 OXT        -0.1600   -1.3700   -0.5770 o         1 03S     -0.758200
@<TRIPOS>BOND
     1    1    2 1   
     2    1    3 1   
     3    1    4 1   
     4    1    8 1   
     5    4    5 1   
     6    4    6 1   
     7    4    7 1   
@<TRIPOS>SUBSTRUCTURE
     1 03S         1 TEMP              0 ****  ****    0 ROOT
