@<TRIPOS>MOLECULE
03S
    8     5     1     0     0
SMALL
bcc


@<TRIPOS>ATOM
      1 S10         0.2820   -0.6730    0.3440 ss        1 03S      2.859000
      2 O11         1.7920   -0.6730    0.3440 o         1 03S     -1.081000
      3 O12        -0.0110   -0.6730    1.8250 o         1 03S     -1.081000
      4 C13        -0.3610    0.7820   -0.4400 c2        1 03S     -0.902000
      5 H113        0.0000    1.5750    0.0000 ha        1 03S      0.095000
      6 H213       -0.1030    0.7860   -1.3810 ha        1 03S      0.095000
      7 H313       -1.3350    0.7860   -0.3690 ha        1 03S      0.095000
      8 OXT        -0.2660   -1.9110   -0.3230 os        1 03S     -1.081000
@<TRIPOS>BOND
     1    1    2 1   
     2    1    3 1   
     3    4    5 1   
     4    4    6 1   
     5    4    7 1   
@<TRIPOS>SUBSTRUCTURE
     1 03S         1 TEMP              0 ****  ****    0 ROOT
