@<TRIPOS>MOLECULE
03T
   20    16     1     0     0
SMALL
bcc


@<TRIPOS>ATOM
      1 N          -2.7150    2.6040    1.5110 n3        1 03T     -1.008500
      2 S          -1.0720    2.6040    1.5110 s4        1 03T      1.758700
      3 O1         -0.5510    2.6040    2.8500 o         1 03T     -0.544400
      4 S1         -0.0440   -0.0420    1.3660 ss        1 03T      0.219800
      5 C2         -0.4590    1.2250    0.5820 c1        1 03T     -0.911900
      6 O2         -0.5510    3.8450    1.0090 o         1 03T     -0.544400
      7 C3         -0.1350    1.0110   -0.8110 cg        1 03T      0.002000
      8 C4          0.9980   -1.1380   -2.0610 c1        1 03T     -0.011500
      9 C5          1.5260   -2.4250   -1.9080 c1        1 03T     -0.062500
     10 C6          1.5710   -3.0240   -0.6290 c1        1 03T     -0.062500
     11 C7          1.0870   -2.3310    0.4860 c1        1 03T     -0.051500
     12 C8          0.5640   -1.0570    0.3370 c1        1 03T     -0.080900
     13 C9          0.5180   -0.4500   -0.9580 cg        1 03T     -0.105000
     14 HN         -3.1710    3.1440    0.9340 hn        1 03T      0.447300
     15 HNA        -3.1710    2.0850    2.1060 hn        1 03T      0.447300
     16 H3         -0.2870    1.6450   -1.5370 DU        1 03T      0.180000
     17 H4          0.9670   -0.7250   -2.9450 ha        1 03T      0.084500
     18 H5          1.8640   -2.9090   -2.6850 ha        1 03T      0.080000
     19 H6          1.9400   -3.9210   -0.5240 ha        1 03T      0.080000
     20 H7          1.1190   -2.7460    1.3690 ha        1 03T      0.083500
@<TRIPOS>BOND
     1    1    2 1   
     2    1   14 1   
     3    1   15 1   
     4    2    3 1   
     5    2    6 1   
     6    4    5 1   
     7    4   12 1   
     8    5    7 3   
     9    7   13 1   
    10    8   13 3   
    11    8   17 1   
    12    9   10 3   
    13    9   18 1   
    14   10   19 1   
    15   11   12 3   
    16   11   20 1   
@<TRIPOS>SUBSTRUCTURE
     1 03T         1 TEMP              0 ****  ****    0 ROOT
