@<TRIPOS>MOLECULE
03T
   21    22     1     0     0
SMALL
bcc


@<TRIPOS>ATOM
      1 N          -0.0090   -0.2100   -0.0100 nz        1 03T     -0.781500
      2 S           1.9390   -0.0980    0.0150 sy        1 03T      1.540800
      3 O1          2.1200    0.0520    1.3700 o         1 03T     -0.573300
      4 S1          2.5020   -2.9760    0.2240 ss        1 03T      0.307500
      5 C2          2.2530   -1.5100   -0.5800 cc        1 03T     -0.686500
      6 O2          2.0970    0.9590   -0.8540 o         1 03T     -0.573300
      7 C3          2.4780   -1.6940   -1.9690 cd        1 03T      0.074800
      8 C4          3.1290   -3.5600   -3.5710 ca        1 03T     -0.050000
      9 C5          3.4570   -4.8910   -3.6630 ca        1 03T     -0.126000
     10 C6          3.4970   -5.7120   -2.5060 ca        1 03T     -0.031000
     11 C7          3.2100   -5.2040   -1.2560 ca        1 03T     -0.131000
     12 C8          2.8710   -3.8440   -1.1280 ca        1 03T     -0.047100
     13 C9          2.8280   -3.0130   -2.2980 ca        1 03T     -0.127800
     14 HN         -0.3930    0.5440   -0.5740 hn        1 03T      0.450133
     15 HNA        -0.3760   -0.1140    0.9330 hn        1 03T      0.450133
     16 H3          2.4080   -0.8790   -2.7050 ha        1 03T      0.191000
     17 H4          3.0980   -2.9110   -4.4600 ha        1 03T      0.162000
     18 H5          3.6980   -5.3410   -4.6410 ha        1 03T      0.168000
     19 H6          3.7670   -6.7760   -2.6190 ha        1 03T      0.167000
     20 H7          3.2480   -5.8490   -0.3630 ha        1 03T      0.166000
     21 HN3        -0.3400   -1.0890   -0.3900 hn        1 03T      0.450133
@<TRIPOS>BOND
     1    1    2 1   
     2    1   14 1   
     3    1   15 1   
     4    1   21 1   
     5    2    3 2   
     6    2    5 1   
     7    2    6 2   
     8    4    5 1   
     9    4   12 1   
    10    5    7 2   
    11    7   13 1   
    12    7   16 1   
    13    8    9 ar  
    14    8   13 ar  
    15    8   17 1   
    16    9   10 ar  
    17    9   18 1   
    18   10   11 ar  
    19   10   19 1   
    20   11   12 ar  
    21   11   20 1   
    22   12   13 ar  
@<TRIPOS>SUBSTRUCTURE
     1 03T         1 TEMP              0 ****  ****    0 ROOT
