@<TRIPOS>MOLECULE
03T
   21    22     1     0     0
SMALL
bcc


@<TRIPOS>ATOM
      1 N          -0.0130   -0.2060   -0.0230 n4        1 03T     -0.781500
      2 S           1.9350   -0.0980    0.0130 sy        1 03T      1.540800
      3 O1          2.1080    0.0520    1.3700 o         1 03T     -0.573300
      4 S1          2.4900   -2.9770    0.2250 ss        1 03T      0.307500
      5 C2          2.2490   -1.5110   -0.5800 cc        1 03T     -0.686500
      6 O2          2.1000    0.9590   -0.8540 o         1 03T     -0.573300
      7 C3          2.4830   -1.6940   -1.9670 cd        1 03T      0.074800
      8 C4          3.1400   -3.5610   -3.5660 ca        1 03T     -0.050000
      9 C5          3.4660   -4.8930   -3.6560 ca        1 03T     -0.126000
     10 C6          3.4970   -5.7140   -2.4990 ca        1 03T     -0.031000
     11 C7          3.2030   -5.2060   -1.2500 ca        1 03T     -0.131000
     12 C8          2.8660   -3.8450   -1.1250 ca        1 03T     -0.047100
     13 C9          2.8320   -3.0140   -2.2950 ca        1 03T     -0.127800
     14 HN         -0.3920    0.5480   -0.5900 hn        1 03T      0.450133
     15 HNA        -0.3860   -0.1090    0.9180 hn        1 03T      0.450133
     16 H3          2.4190   -0.8790   -2.7040 ha        1 03T      0.191000
     17 H4          3.1160   -2.9110   -4.4550 ha        1 03T      0.162000
     18 H5          3.7120   -5.3430   -4.6330 ha        1 03T      0.168000
     19 H6          3.7660   -6.7790   -2.6110 ha        1 03T      0.167000
     20 H7          3.2340   -5.8510   -0.3580 ha        1 03T      0.166000
     21 HN3        -0.3440   -1.0840   -0.4060 hn        1 03T      0.450133
@<TRIPOS>BOND
     1    1    2 1   
     2    1   14 1   
     3    1   15 1   
     4    1   21 1   
     5    2    3 2   
     6    2    5 1   
     7    2    6 2   
     8    4    5 1   
     9    4   12 1   
    10    5    7 2   
    11    7   13 1   
    12    7   16 1   
    13    8    9 ar  
    14    8   13 ar  
    15    8   17 1   
    16    9   10 ar  
    17    9   18 1   
    18   10   11 ar  
    19   10   19 1   
    20   11   12 ar  
    21   11   20 1   
    22   12   13 ar  
@<TRIPOS>SUBSTRUCTURE
     1 03T         1 TEMP              0 ****  ****    0 ROOT
