@<TRIPOS>MOLECULE
03T
   20    21     1     0     0
SMALL
bcc


@<TRIPOS>ATOM
      1 N           2.8500   -0.0720   -1.4300 n3        1 03T     -1.025700
      2 S           2.3860   -0.2780    0.0890 sy        1 03T      1.549800
      3 O1          2.9470    0.7490    0.8760 o         1 03T     -0.656800
      4 S1         -0.1380    1.3600   -0.0890 ss        1 03T      0.202500
      5 C2          0.7230   -0.0720    0.0200 cc        1 03T     -0.445500
      6 O2          2.6400   -1.6090    0.4810 o         1 03T     -0.656800
      7 C3         -0.1300   -1.1630    0.0860 cd        1 03T      0.013800
      8 C4         -2.6500   -1.6030    0.0760 ca        1 03T     -0.069000
      9 C5         -3.8970   -1.0150    0.0110 ca        1 03T     -0.143000
     10 C6         -4.0290    0.3880   -0.0950 ca        1 03T     -0.097000
     11 C7         -2.9180    1.2070   -0.1350 ca        1 03T     -0.109000
     12 C8         -1.6380    0.6310   -0.0710 ca        1 03T     -0.079100
     13 C9         -1.5060   -0.7840    0.0350 ca        1 03T     -0.116800
     14 HN          3.2040    0.7820   -1.7810 hn        1 03T      0.447300
     15 HNA         2.8320   -0.7870   -2.1120 hn        1 03T      0.447300
     16 H3          0.2040   -2.2040    0.1820 ha        1 03T      0.180000
     17 H4         -2.5350   -2.6930    0.1620 ha        1 03T      0.142000
     18 H5         -4.8050   -1.6350    0.0430 ha        1 03T      0.138000
     19 H6         -5.0380    0.8260   -0.1440 ha        1 03T      0.137000
     20 H7         -3.0260    2.2990   -0.2150 ha        1 03T      0.141000
@<TRIPOS>BOND
     1    1    2 1   
     2    1   14 1   
     3    1   15 1   
     4    2    3 2   
     5    2    5 1   
     6    2    6 2   
     7    4    5 1   
     8    4   12 1   
     9    5    7 2   
    10    7   13 1   
    11    7   16 1   
    12    8    9 ar  
    13    8   13 ar  
    14    8   17 1   
    15    9   10 ar  
    16    9   18 1   
    17   10   11 ar  
    18   10   19 1   
    19   11   12 ar  
    20   11   20 1   
    21   12   13 ar  
@<TRIPOS>SUBSTRUCTURE
     1 03T         1 TEMP              0 ****  ****    0 ROOT
