@<TRIPOS>MOLECULE
03U
   44    45     1     0     0
SMALL
bcc


@<TRIPOS>ATOM
      1 C1         -4.1560    1.6970   -0.4820 ca        1 03U     -0.090500
      2 C2         -3.4050    0.6680    0.1050 cp        1 03U     -0.059000
      3 C3         -5.5430    1.7100   -0.3850 ca        1 03U     -0.166000
      4 C4         -4.0670   -0.3550    0.7980 ca        1 03U     -0.090500
      5 C5         -6.1970    0.6810    0.3170 ca        1 03U      0.130900
      6 C6         -5.4530   -0.3550    0.9100 ca        1 03U     -0.166000
      7 C7         -1.9460    0.6890    0.0160 cp        1 03U     -0.025000
      8 C8         -1.1920   -0.4230   -0.3840 ca        1 03U     -0.068600
      9 C9         -1.2600    1.8660    0.3500 ca        1 03U     -0.097000
     10 C10         0.2040   -0.3790   -0.4270 ca        1 03U     -0.124000
     11 C11         0.1240    1.9340    0.3050 ca        1 03U     -0.167000
     12 C12         0.8880    0.8040   -0.0820 ca        1 03U      0.077600
     13 F13        -7.5480    0.6890    0.4220 f         1 03U     -0.140900
     14 C14        -1.8420   -1.6780   -0.8180 c         1 03U      0.645700
     15 O15        -1.8760   -2.6370    0.1620 os        1 03U     -0.436900
     16 O16        -2.3120   -1.9620   -1.9200 o         1 03U     -0.517000
     17 C17        -2.4330   -3.9010   -0.2020 c3        1 03U      0.122700
     18 N18         2.2860    0.9190   -0.0930 n         1 03U     -0.467100
     19 C19         3.2060   -0.0300   -0.5280 c         1 03U      0.706300
     20 C20         4.6380    0.3980   -0.4560 ce        1 03U     -0.170900
     21 O21         2.8870   -1.1540   -0.9460 o         1 03U     -0.561100
     22 C22         5.6030   -0.4390    0.0210 c2        1 03U      0.207900
     23 C23         4.9490    1.6880   -0.9440 cg        1 03U      0.201500
     24 N24         5.1820    2.7540   -1.3510 n1        1 03U     -0.365800
     25 O25         5.2010   -1.6410    0.5330 oh        1 03U     -0.459100
     26 C26         7.0640   -0.1290    0.0280 c3        1 03U     -0.100200
     27 C27         7.6240   -0.0700    1.4280 c3        1 03U     -0.099100
     28 H1         -3.6420    2.4980   -1.0350 ha        1 03U      0.148000
     29 H3         -6.1320    2.5120   -0.8520 ha        1 03U      0.150000
     30 H4         -3.4810   -1.1700    1.2550 ha        1 03U      0.148000
     31 H6         -5.9730   -1.1560    1.4560 ha        1 03U      0.150000
     32 H9         -1.8360    2.7530    0.6600 ha        1 03U      0.143000
     33 H10         0.7570   -1.2820   -0.7380 ha        1 03U      0.185000
     34 H11         0.6210    2.8790    0.5760 ha        1 03U      0.136000
     35 H17        -2.3340   -4.5110    0.7300 h1        1 03U      0.051367
     36 H17A       -3.5020   -3.7750   -0.4980 h1        1 03U      0.051367
     37 H17B       -1.8520   -4.3460   -1.0450 h1        1 03U      0.051367
     38 HN18        2.6460    1.7980    0.2060 hn        1 03U      0.323500
     39 H26         7.5940   -0.9250   -0.5640 hc        1 03U      0.080700
     40 H26A        7.2500    0.8490   -0.4940 hc        1 03U      0.080700
     41 H27         7.1450    0.7530    2.0120 hc        1 03U      0.049033
     42 H27A        7.4530   -1.0310    1.9710 hc        1 03U      0.049033
     43 H27B        8.7240    0.1210    1.3850 hc        1 03U      0.049033
     44 H171        5.9900   -2.1580    0.7640 ho        1 03U      0.434000
@<TRIPOS>BOND
     1    1    2 ar  
     2    1    3 ar  
     3    1   28 1   
     4    2    4 ar  
     5    2    7 1   
     6    3    5 ar  
     7    3   29 1   
     8    4    6 ar  
     9    4   30 1   
    10    5    6 ar  
    11    5   13 1   
    12    6   31 1   
    13    7    8 ar  
    14    7    9 ar  
    15    8   10 ar  
    16    8   14 1   
    17    9   11 ar  
    18    9   32 1   
    19   10   12 ar  
    20   10   33 1   
    21   11   12 ar  
    22   11   34 1   
    23   12   18 1   
    24   14   15 1   
    25   14   16 2   
    26   15   17 1   
    27   17   35 1   
    28   17   36 1   
    29   17   37 1   
    30   18   19 1   
    31   18   38 1   
    32   19   20 1   
    33   19   21 2   
    34   20   22 2   
    35   20   23 1   
    36   22   25 1   
    37   22   26 1   
    38   23   24 3   
    39   25   44 1   
    40   26   27 1   
    41   26   39 1   
    42   26   40 1   
    43   27   41 1   
    44   27   42 1   
    45   27   43 1   
@<TRIPOS>SUBSTRUCTURE
     1 03U         1 TEMP              0 ****  ****    0 ROOT
