@<TRIPOS>MOLECULE
03U
   44    45     1     0     0
SMALL
bcc


@<TRIPOS>ATOM
      1 C1         -0.0410    0.0540   -0.0950 ca        1 03U     -0.089500
      2 C2          1.3450   -0.1410    0.0040 cp        1 03U     -0.063000
      3 C3         -0.8360    0.0940    1.0440 ca        1 03U     -0.166500
      4 C4          1.9280   -0.2950    1.2690 ca        1 03U     -0.089500
      5 C5         -0.2400   -0.0570    2.3110 ca        1 03U      0.132900
      6 C6          1.1490   -0.2520    2.4200 ca        1 03U     -0.166500
      7 C7          2.1660   -0.1500   -1.2050 cp        1 03U     -0.018000
      8 C8          3.0980   -1.1580   -1.4870 ca        1 03U     -0.071600
      9 C9          2.0250    0.8950   -2.1320 ca        1 03U     -0.099000
     10 C10         3.8850   -1.1210   -2.6410 ca        1 03U     -0.118000
     11 C11         2.7930    0.9480   -3.2840 ca        1 03U     -0.161000
     12 C12         3.7480   -0.0640   -3.5610 ca        1 03U      0.070600
     13 F13        -1.0060   -0.0150    3.4260 f         1 03U     -0.139900
     14 C14         3.2590   -2.3300   -0.5980 c         1 03U      0.645700
     15 O15         4.2980   -2.2010    0.2870 os        1 03U     -0.435900
     16 O16         2.6130   -3.3780   -0.5840 o         1 03U     -0.517000
     17 C17         4.5510   -3.3190    1.1400 c3        1 03U      0.122700
     18 N18         4.4930    0.0380   -4.7480 n         1 03U     -0.452100
     19 C19         5.5650   -0.7480   -5.1360 c         1 03U      0.714300
     20 C20         6.2140   -0.4400   -6.4330 ce        1 03U     -0.254900
     21 O21         5.9830   -1.6940   -4.4270 o         1 03U     -0.644100
     22 C22         7.2710   -1.1710   -6.9190 c2        1 03U      0.272900
     23 C23         5.7240    0.6490   -7.1950 cg        1 03U      0.207500
     24 N24         5.3180    1.5450   -7.8180 n1        1 03U     -0.377800
     25 O25         7.8470   -2.2340   -6.3220 oh        1 03U     -0.483100
     26 C26         7.9360   -0.8700   -8.2310 c3        1 03U     -0.069200
     27 C27         9.0350    0.1520   -8.0630 c3        1 03U     -0.094100
     28 H1         -0.5050    0.1690   -1.0870 ha        1 03U      0.148500
     29 H3         -1.9230    0.2390    0.9680 ha        1 03U      0.150000
     30 H4          3.0160   -0.4550    1.3500 ha        1 03U      0.148500
     31 H6          1.6060   -0.3700    3.4130 ha        1 03U      0.150000
     32 H9          1.2930    1.6930   -1.9310 ha        1 03U      0.145000
     33 H10         4.6120   -1.9340   -2.8150 ha        1 03U      0.184000
     34 H11         2.6510    1.7890   -3.9810 ha        1 03U      0.139000
     35 H17         3.6610   -3.5160    1.7840 h1        1 03U      0.052367
     36 H17A        5.4340   -2.9940    1.7440 h1        1 03U      0.052367
     37 H17B        4.7860   -4.2220    0.5260 h1        1 03U      0.052367
     38 HN18        4.2250    0.7900   -5.3460 hn        1 03U      0.330500
     39 H26         8.3670   -1.8230   -8.6460 hc        1 03U      0.079700
     40 H26A        7.1650   -0.4950   -8.9560 hc        1 03U      0.079700
     41 H27         9.5220    0.3420   -9.0500 hc        1 03U      0.050700
     42 H27A        8.6250    1.1170   -7.6780 hc        1 03U      0.050700
     43 H27B        9.8100   -0.2180   -7.3490 hc        1 03U      0.050700
     44 H171        7.4390   -2.4430   -5.4580 ho        1 03U      0.482000
@<TRIPOS>BOND
     1    1    2 ar  
     2    1    3 ar  
     3    1   28 1   
     4    2    4 ar  
     5    2    7 1   
     6    3    5 ar  
     7    3   29 1   
     8    4    6 ar  
     9    4   30 1   
    10    5    6 ar  
    11    5   13 1   
    12    6   31 1   
    13    7    8 ar  
    14    7    9 ar  
    15    8   10 ar  
    16    8   14 1   
    17    9   11 ar  
    18    9   32 1   
    19   10   12 ar  
    20   10   33 1   
    21   11   12 ar  
    22   11   34 1   
    23   12   18 1   
    24   14   15 1   
    25   14   16 2   
    26   15   17 1   
    27   17   35 1   
    28   17   36 1   
    29   17   37 1   
    30   18   19 1   
    31   18   38 1   
    32   19   20 1   
    33   19   21 2   
    34   20   22 2   
    35   20   23 1   
    36   22   25 1   
    37   22   26 1   
    38   23   24 3   
    39   25   44 1   
    40   26   27 1   
    41   26   39 1   
    42   26   40 1   
    43   27   41 1   
    44   27   42 1   
    45   27   43 1   
@<TRIPOS>SUBSTRUCTURE
     1 03U         1 TEMP              0 ****  ****    0 ROOT
