@<TRIPOS>MOLECULE
03U
   45    46     1     0     0
SMALL
bcc


@<TRIPOS>ATOM
      1 C1          0.8400    0.6790    0.3000 ca        1 03U     -0.071000
      2 C2          1.9640   -0.0730   -0.0760 cp        1 03U     -0.122000
      3 C3          0.5050    0.8330    1.6390 ca        1 03U     -0.165000
      4 C4          2.7590   -0.6670    0.9160 ca        1 03U     -0.071000
      5 C5          1.3120    0.2380    2.6290 ca        1 03U      0.171900
      6 C6          2.4460   -0.5130    2.2610 ca        1 03U     -0.165000
      7 C7          2.3080   -0.2060   -1.4870 cp        1 03U      0.094000
      8 C8          2.6610   -1.4360   -2.0700 ca        1 03U     -0.087600
      9 C9          2.2910    0.9420   -2.3040 ca        1 03U     -0.116000
     10 C10         3.0140   -1.5190   -3.4200 ca        1 03U     -0.057000
     11 C11         2.6270    0.8800   -3.6470 ca        1 03U     -0.080000
     12 C12         2.9920   -0.3590   -4.2080 ca        1 03U     -0.079400
     13 F13         0.9990    0.3890    3.9330 f         1 03U     -0.116900
     14 C14         2.6240   -2.7030   -1.3010 c         1 03U      0.631700
     15 O15         3.8630   -3.1240   -0.9070 os        1 03U     -0.436900
     16 O16         1.6420   -3.3920   -1.0360 o         1 03U     -0.482000
     17 C17         3.9160   -4.3570   -0.1780 c3        1 03U      0.120700
     18 N18         3.3250   -0.4370   -5.6340 n4        1 03U     -0.521200
     19 C19         4.6130    0.3020   -5.9520 c         1 03U      0.595300
     20 C20         5.8360   -0.4530   -5.9620 ce        1 03U     -0.297900
     21 O21         4.4620    1.5030   -6.1950 o         1 03U     -0.513100
     22 C22         7.0720    0.1430   -6.2260 c2        1 03U      0.350900
     23 C23         5.7970   -1.8410   -5.6940 cg        1 03U      0.165500
     24 N24         5.7740   -2.9840   -5.4750 n1        1 03U     -0.301800
     25 O25         7.2640    1.4350   -6.4950 oh        1 03U     -0.423100
     26 C26         8.3290   -0.6670   -6.2280 c3        1 03U     -0.080200
     27 C27         9.5700    0.1270   -6.5460 c3        1 03U     -0.102100
     28 H1          0.2030    1.1400   -0.4720 ha        1 03U      0.147500
     29 H3         -0.3830    1.4120    1.9360 ha        1 03U      0.166500
     30 H4          3.6440   -1.2600    0.6290 ha        1 03U      0.147500
     31 H6          3.0720   -0.9730    3.0410 ha        1 03U      0.166500
     32 H9          2.0120    1.9130   -1.8580 ha        1 03U      0.177000
     33 H10         3.2980   -2.5010   -3.8370 ha        1 03U      0.168000
     34 H11         2.6150    1.7990   -4.2610 ha        1 03U      0.168000
     35 H17         3.5070   -5.1860   -0.8050 h1        1 03U      0.064700
     36 H17A        3.3300   -4.2630    0.7670 h1        1 03U      0.064700
     37 H17B        5.0080   -4.4910    0.0230 h1        1 03U      0.064700
     38 HN18        3.4010   -1.4210   -5.9170 hn        1 03U      0.468300
     39 H26         8.4250   -1.1460   -5.2120 hc        1 03U      0.106200
     40 H26A        8.1970   -1.4980   -6.9780 hc        1 03U      0.106200
     41 H27         9.7240    0.9410   -5.7970 hc        1 03U      0.065033
     42 H27A       10.4590   -0.5510   -6.5270 hc        1 03U      0.065033
     43 H27B        9.4960    0.5920   -7.5590 hc        1 03U      0.065033
     44 H171        6.4370    1.9600   -6.4910 ho        1 03U      0.482000
     45 H182        2.5620    0.0100   -6.1640 hn        1 03U      0.468300
@<TRIPOS>BOND
     1    1    2 ar  
     2    1    3 ar  
     3    1   28 1   
     4    2    4 ar  
     5    2    7 1   
     6    3    5 ar  
     7    3   29 1   
     8    4    6 ar  
     9    4   30 1   
    10    5    6 ar  
    11    5   13 1   
    12    6   31 1   
    13    7    8 ar  
    14    7    9 ar  
    15    8   10 ar  
    16    8   14 1   
    17    9   11 ar  
    18    9   32 1   
    19   10   12 ar  
    20   10   33 1   
    21   11   12 ar  
    22   11   34 1   
    23   12   18 1   
    24   14   15 1   
    25   14   16 2   
    26   15   17 1   
    27   17   35 1   
    28   17   36 1   
    29   17   37 1   
    30   18   19 1   
    31   18   38 1   
    32   18   45 1   
    33   19   20 1   
    34   19   21 2   
    35   20   22 2   
    36   20   23 1   
    37   22   25 1   
    38   22   26 1   
    39   23   24 3   
    40   25   44 1   
    41   26   27 1   
    42   26   39 1   
    43   26   40 1   
    44   27   41 1   
    45   27   42 1   
    46   27   43 1   
@<TRIPOS>SUBSTRUCTURE
     1 03U         1 TEMP              0 ****  ****    0 ROOT
