@<TRIPOS>MOLECULE
03U
   44    39     1     0     0
SMALL
bcc


@<TRIPOS>ATOM
      1 C1         -0.5970    0.7240    4.4900 c1        1 03U     -0.091000
      2 C2         -1.1840    0.1350    3.3620 c2        1 03U     -0.071000
      3 C3         -1.2710    0.7370    5.6930 c1        1 03U     -0.172000
      4 C4         -2.4510   -0.4370    3.4580 c1        1 03U     -0.083000
      5 C5         -2.5320    0.1680    5.7900 c2        1 03U      0.096000
      6 C6         -3.1240   -0.4210    4.6660 c1        1 03U     -0.167000
      7 C7         -0.4820    0.2140    2.0150 c2        1 03U     -0.018000
      8 C8          0.2020   -0.9050    1.5150 c2        1 03U     -0.053000
      9 C9         -0.5970    1.3530    1.2510 c1        1 03U     -0.100000
     10 C10         0.7640   -0.8640    0.2470 c1        1 03U     -0.118000
     11 C11        -0.0350    1.3960   -0.0200 c2        1 03U     -0.163000
     12 C12         0.6490    0.2800   -0.5240 c2        1 03U      0.080000
     13 F13        -3.2250    0.2920    6.9110 f         1 03U     -0.106000
     14 C14         0.4310   -2.1270    2.4150 c2        1 03U      0.350000
     15 O15         1.7090   -2.4460    2.8390 os        1 03U     -0.263000
     16 O16        -0.4710   -2.8610    2.6560 o         1 03U     -0.346000
     17 C17         1.8040   -3.7320    3.4500 c3        1 03U     -0.066000
     18 N18         1.2300    0.8470   -1.7610 n         1 03U     -0.316000
     19 C19         1.3930    0.0140   -2.9260 c2        1 03U      0.388000
     20 C20         1.9560    0.6090   -4.2240 c2        1 03U     -0.267000
     21 O21         1.0550   -1.1450   -2.8920 o         1 03U     -0.370000
     22 C22         1.0730    1.0900   -5.2200 c1        1 03U      0.222000
     23 C23         3.4890    0.6830   -4.4420 c1        1 03U     -0.106000
     24 N24         4.6220    0.7390   -4.6040 n1        1 03U     -0.043000
     25 O25         1.5770    1.6240   -6.3940 oh        1 03U     -0.228000
     26 C26        -0.5130    1.0120   -4.9900 c2        1 03U     -0.144000
     27 C27        -1.2260    1.4150   -6.2590 c3        1 03U     -0.210000
     28 H1          0.3130    1.1360    4.4240 DU        1 03U      0.154250
     29 H3         -0.8390    1.1680    6.5190 DU        1 03U      0.154250
     30 H4         -2.8680   -0.8520    2.6670 ha        1 03U      0.166000
     31 H6         -4.0470   -0.8360    4.7400 ha        1 03U      0.153000
     32 H9         -1.0790    2.1380    1.6060 DU        1 03U      0.154250
     33 H10         1.2350   -1.6370   -0.0980 DU        1 03U      0.154250
     34 H11        -0.1140    2.1750   -0.5410 ha        1 03U      0.138000
     35 H17         2.6290   -3.7890    3.9600 h1        1 03U      0.091667
     36 H17A        1.0190   -3.8690    4.0640 h1        1 03U      0.091667
     37 H17B        1.8010   -4.4100    2.7680 h1        1 03U      0.091667
     38 HN18        1.4490    1.7210   -1.7970 hn        1 03U      0.240000
     39 H26        -0.7760    1.6400   -4.2480 ha        1 03U      0.139000
     40 H26A       -0.7710    0.0670   -4.7390 ha        1 03U      0.139000
     41 H27        -0.9310    0.8540   -6.9890 hc        1 03U      0.086333
     42 H27A       -1.0170    2.3630   -6.4640 hc        1 03U      0.086333
     43 H27B       -2.1790    1.3150   -6.1420 hc        1 03U      0.086333
     44 H171        1.9270    2.4220   -6.2310 ho        1 03U      0.241000
@<TRIPOS>BOND
     1    1    2 1   
     2    1    3 1   
     3    2    4 1   
     4    2    7 1   
     5    3    5 1   
     6    4   30 1   
     7    5    6 1   
     8    5   13 1   
     9    6   31 1   
    10    7    8 1   
    11    7    9 1   
    12    8   10 1   
    13    8   14 1   
    14    9   11 1   
    15   10   12 1   
    16   11   12 1   
    17   11   34 1   
    18   12   18 1   
    19   14   15 1   
    20   14   16 1   
    21   15   17 1   
    22   17   35 1   
    23   17   36 1   
    24   17   37 1   
    25   18   19 1   
    26   18   38 1   
    27   19   20 1   
    28   19   21 1   
    29   20   22 1   
    30   20   23 1   
    31   22   25 1   
    32   23   24 1   
    33   25   44 1   
    34   26   27 1   
    35   26   39 1   
    36   26   40 1   
    37   27   41 1   
    38   27   42 1   
    39   27   43 1   
@<TRIPOS>SUBSTRUCTURE
     1 03U         1 TEMP              0 ****  ****    0 ROOT
