@<TRIPOS>MOLECULE
03U
   44    45     1     0     0
SMALL
bcc


@<TRIPOS>ATOM
      1 C1         -0.0850   -0.6430   -0.0990 ca        1 03U     -0.086000
      2 C2          1.2730   -0.3200    0.0400 cp        1 03U     -0.073000
      3 C3         -0.9230   -0.6890    1.0100 ca        1 03U     -0.169500
      4 C4          1.7840   -0.0350    1.3130 ca        1 03U     -0.086000
      5 C5         -0.4000   -0.3990    2.2840 ca        1 03U      0.131900
      6 C6          0.9600   -0.0710    2.4330 ca        1 03U     -0.169500
      7 C7          2.1190   -0.2490   -1.1510 cp        1 03U     -0.014000
      8 C8          3.3200   -0.9570   -1.2910 ca        1 03U     -0.075600
      9 C9          1.7010    0.5580   -2.2230 ca        1 03U     -0.102000
     10 C10         4.0810   -0.8740   -2.4610 ca        1 03U     -0.114000
     11 C11         2.4510    0.6690   -3.3820 ca        1 03U     -0.159000
     12 C12         3.6650   -0.0500   -3.5240 ca        1 03U      0.067600
     13 F13        -1.2100   -0.4370    3.3690 f         1 03U     -0.139900
     14 C14         3.8410   -1.8230   -0.2120 c         1 03U      0.649700
     15 O15         3.7650   -3.1570   -0.5100 os        1 03U     -0.425900
     16 O16         4.3450   -1.4980    0.8650 o         1 03U     -0.535000
     17 C17         4.2660   -4.0620    0.4760 c3        1 03U      0.123700
     18 N18         4.3770    0.0820   -4.7290 ns        1 03U     -0.453100
     19 C19         5.6730   -0.3380   -4.9820 c         1 03U      0.715300
     20 C20         6.2370   -0.0650   -6.3230 ce        1 03U     -0.264900
     21 O21         6.3550   -0.9350   -4.1150 o         1 03U     -0.646100
     22 C22         7.5180   -0.4230   -6.6760 c2        1 03U      0.273900
     23 C23         5.4290    0.5870   -7.2860 cg        1 03U      0.205500
     24 N24         4.7660    1.1230   -8.0790 n1        1 03U     -0.377800
     25 O25         8.4130   -1.0460   -5.8870 oh        1 03U     -0.477100
     26 C26         8.0530   -0.1290   -8.0450 c3        1 03U     -0.069200
     27 C27         9.4720   -0.5880   -8.2600 c3        1 03U     -0.091100
     28 H1         -0.4920   -0.8690   -1.0970 ha        1 03U      0.153000
     29 H3         -1.9860   -0.9480    0.9020 ha        1 03U      0.151000
     30 H4          2.8540    0.2090    1.4320 ha        1 03U      0.153000
     31 H6          1.3610    0.1530    3.4320 ha        1 03U      0.151000
     32 H9          0.7570    1.1200   -2.1310 ha        1 03U      0.145000
     33 H10         5.0090   -1.4680   -2.5330 ha        1 03U      0.184000
     34 H11         2.0890    1.3210   -4.1930 ha        1 03U      0.139000
     35 H17         5.3510   -3.8680    0.6540 h1        1 03U      0.052367
     36 H17A        4.0980   -5.0670    0.0170 h1        1 03U      0.052367
     37 H17B        3.6940   -3.9440    1.4270 h1        1 03U      0.052367
     38 HN18        3.9020    0.5870   -5.4450 hn        1 03U      0.329500
     39 H26         7.3720   -0.6250   -8.7910 hc        1 03U      0.081700
     40 H26A        7.9780    0.9810   -8.2110 hc        1 03U      0.081700
     41 H27         9.5550   -1.6920   -8.1140 hc        1 03U      0.049367
     42 H27A       10.1600   -0.0900   -7.5350 hc        1 03U      0.049367
     43 H27B        9.7960   -0.3350   -9.2980 hc        1 03U      0.049367
     44 H171        8.0540   -1.2310   -4.9960 ho        1 03U      0.483000
@<TRIPOS>BOND
     1    1    2 ar  
     2    1    3 ar  
     3    1   28 1   
     4    2    4 ar  
     5    2    7 1   
     6    3    5 ar  
     7    3   29 1   
     8    4    6 ar  
     9    4   30 1   
    10    5    6 ar  
    11    5   13 1   
    12    6   31 1   
    13    7    8 ar  
    14    7    9 ar  
    15    8   10 ar  
    16    8   14 1   
    17    9   11 ar  
    18    9   32 1   
    19   10   12 ar  
    20   10   33 1   
    21   11   12 ar  
    22   11   34 1   
    23   12   18 1   
    24   14   15 1   
    25   14   16 2   
    26   15   17 1   
    27   17   35 1   
    28   17   36 1   
    29   17   37 1   
    30   18   19 1   
    31   18   38 1   
    32   19   20 1   
    33   19   21 2   
    34   20   22 2   
    35   20   23 1   
    36   22   25 1   
    37   22   26 1   
    38   23   24 3   
    39   25   44 1   
    40   26   27 1   
    41   26   39 1   
    42   26   40 1   
    43   27   41 1   
    44   27   42 1   
    45   27   43 1   
@<TRIPOS>SUBSTRUCTURE
     1 03U         1 TEMP              0 ****  ****    0 ROOT
