@<TRIPOS>MOLECULE
03V
   19    20     1     0     0
SMALL
bcc


@<TRIPOS>ATOM
      1 C1         -0.0910   -0.0210   -0.0410 ca        1 03V     -0.142000
      2 O1          1.9120   -0.1560   -1.2960 oh        1 03V     -0.497100
      3 C2          1.3330   -0.1060   -0.0490 ca        1 03V      0.131100
      4 C3          2.0580   -0.1370    1.1260 ca        1 03V     -0.219000
      5 C4          1.3780   -0.0820    2.3710 ca        1 03V      0.002000
      6 C5         -0.0380    0.0040    2.3910 ca        1 03V     -0.066000
      7 C7         -0.7500    0.0330    1.1590 ca        1 03V     -0.088000
      8 C8         -0.7120    0.0590    3.6400 ca        1 03V     -0.106000
      9 C9         -0.0040    0.0290    4.8170 ca        1 03V     -0.139000
     10 C10         1.4090   -0.0560    4.7980 ca        1 03V     -0.117000
     11 C11         2.0860   -0.1100    3.6040 ca        1 03V     -0.129000
     12 H1         -0.6220    0.0000   -1.0030 ha        1 03V      0.152000
     13 HO1         2.8710   -0.2120   -1.1790 ho        1 03V      0.420000
     14 H3          3.1550   -0.2030    1.1160 ha        1 03V      0.135000
     15 H7         -1.8490    0.0990    1.1880 ha        1 03V      0.136000
     16 H8         -1.8100    0.1240    3.6440 ha        1 03V      0.132000
     17 H9         -0.5240    0.0720    5.7850 ha        1 03V      0.132000
     18 H10         1.9550   -0.0780    5.7530 ha        1 03V      0.132000
     19 H11         3.1840   -0.1760    3.5810 ha        1 03V      0.132000
@<TRIPOS>BOND
     1    1    3 ar  
     2    1    7 ar  
     3    1   12 1   
     4    2    3 1   
     5    2   13 1   
     6    3    4 ar  
     7    4    5 ar  
     8    4   14 1   
     9    5    6 ar  
    10    5   11 ar  
    11    6    7 ar  
    12    6    8 ar  
    13    7   15 1   
    14    8    9 ar  
    15    8   16 1   
    16    9   10 ar  
    17    9   17 1   
    18   10   11 ar  
    19   10   18 1   
    20   11   19 1   
@<TRIPOS>SUBSTRUCTURE
     1 03V         1 TEMP              0 ****  ****    0 ROOT
