@<TRIPOS>MOLECULE
03V
   19    20     1     0     0
SMALL
bcc


@<TRIPOS>ATOM
      1 C1          1.8610    1.1190    0.1420 ca        1 03V     -0.194000
      2 O1          3.3260   -0.8370    0.1440 oh        1 03V     -0.498100
      3 C2          2.0630   -0.2890    0.1140 ca        1 03V      0.120100
      4 C3          0.9950   -1.1660    0.0530 ca        1 03V     -0.159000
      5 C4         -0.3270   -0.6540    0.0200 ca        1 03V     -0.003000
      6 C5         -0.5390    0.7490    0.0480 ca        1 03V     -0.067000
      7 C7          0.5840    1.6190    0.1100 ca        1 03V     -0.080000
      8 C8         -1.8680    1.2510    0.0130 ca        1 03V     -0.107000
      9 C9         -2.9370    0.3920   -0.0460 ca        1 03V     -0.137000
     10 C10        -2.7270   -1.0090   -0.0750 ca        1 03V     -0.118000
     11 C11        -1.4540   -1.5220   -0.0430 ca        1 03V     -0.126000
     12 H1          2.7320    1.7880    0.1900 ha        1 03V      0.134000
     13 HO1         3.9650   -0.1110    0.1860 ho        1 03V      0.418000
     14 H3          1.1660   -2.2520    0.0320 ha        1 03V      0.151000
     15 H7          0.4090    2.7060    0.1310 ha        1 03V      0.135000
     16 H8         -2.0210    2.3410    0.0360 ha        1 03V      0.131000
     17 H9         -3.9670    0.7770   -0.0730 ha        1 03V      0.132000
     18 H10        -3.5990   -1.6780   -0.1230 ha        1 03V      0.132000
     19 H11        -1.2800   -2.6080   -0.0640 ha        1 03V      0.135000
@<TRIPOS>BOND
     1    1    3 ar  
     2    1    7 ar  
     3    1   12 1   
     4    2    3 1   
     5    2   13 1   
     6    3    4 ar  
     7    4    5 ar  
     8    4   14 1   
     9    5    6 ar  
    10    5   11 ar  
    11    6    7 ar  
    12    6    8 ar  
    13    7   15 1   
    14    8    9 ar  
    15    8   16 1   
    16    9   10 ar  
    17    9   17 1   
    18   10   11 ar  
    19   10   18 1   
    20   11   19 1   
@<TRIPOS>SUBSTRUCTURE
     1 03V         1 TEMP              0 ****  ****    0 ROOT
