@<TRIPOS>MOLECULE
03V
   19    15     1     0     0
SMALL
bcc


@<TRIPOS>ATOM
      1 C1         -0.7900   -0.0420   -2.1980 c1        1 03V     -0.064000
      2 O1          1.2940   -0.0530   -3.4220 oh        1 03V     -0.480600
      3 C2          0.6010   -0.0420   -2.1980 c1        1 03V      0.114600
      4 C3          1.2960   -0.0420   -0.9950 c1        1 03V     -0.161500
      5 C4          0.5930   -0.0420    0.2240 cg        1 03V     -0.032000
      6 C5         -0.7820   -0.0420    0.2240 cg        1 03V     -0.032000
      7 C7         -1.4850   -0.0420   -0.9950 c1        1 03V     -0.064000
      8 C8         -1.4850   -0.0420    1.4440 c1        1 03V     -0.060000
      9 C9         -0.7900   -0.0420    2.6460 c1        1 03V     -0.064000
     10 C10         0.6010   -0.0420    2.6460 c1        1 03V     -0.064000
     11 C11         1.2960   -0.0420    1.4440 c1        1 03V     -0.060000
     12 H1         -1.2780   -0.0520   -3.0430 ha        1 03V      0.080500
     13 HO1         1.4950    0.7800   -3.6560 ho        1 03V      0.420000
     14 H3          2.2720   -0.0420   -0.9960 ha        1 03V      0.077500
     15 H7         -2.4610   -0.0420   -0.9960 ha        1 03V      0.080500
     16 H8         -2.4610   -0.0420    1.4440 ha        1 03V      0.074500
     17 H9         -1.2780   -0.0420    3.4920 ha        1 03V      0.080500
     18 H10         1.0890   -0.0420    3.4910 ha        1 03V      0.080500
     19 H11         2.2720   -0.0420    1.4440 ha        1 03V      0.074500
@<TRIPOS>BOND
     1    1    7 3   
     2    1   12 1   
     3    2    3 1   
     4    2   13 1   
     5    3    4 3   
     6    4   14 1   
     7    5    6 1   
     8    5   11 3   
     9    6    8 3   
    10    7   15 1   
    11    8   16 1   
    12    9   10 3   
    13    9   17 1   
    14   10   18 1   
    15   11   19 1   
@<TRIPOS>SUBSTRUCTURE
     1 03V         1 TEMP              0 ****  ****    0 ROOT
