@<TRIPOS>MOLECULE
03V
   19    20     1     0     0
SMALL
bcc


@<TRIPOS>ATOM
      1 C1         -0.1010   -0.0680   -0.0370 ca        1 03V     -0.142000
      2 O1          1.8980   -0.1890   -1.2990 oh        1 03V     -0.497100
      3 C2          1.3240   -0.1310   -0.0500 ca        1 03V      0.131100
      4 C3          2.0540   -0.1310    1.1210 ca        1 03V     -0.219000
      5 C4          1.3790   -0.0690    2.3690 ca        1 03V      0.002000
      6 C5         -0.0380   -0.0070    2.3940 ca        1 03V     -0.066000
      7 C7         -0.7560   -0.0080    1.1650 ca        1 03V     -0.088000
      8 C8         -0.7070    0.0560    3.6450 ca        1 03V     -0.106000
      9 C9          0.0070    0.0560    4.8190 ca        1 03V     -0.139000
     10 C10         1.4200   -0.0070    4.7950 ca        1 03V     -0.117000
     11 C11         2.0930   -0.0680    3.5990 ca        1 03V     -0.129000
     12 H1         -0.6370   -0.0700   -0.9960 ha        1 03V      0.152000
     13 HO1         2.8580   -0.2270   -1.1860 ho        1 03V      0.420000
     14 H3          3.1520   -0.1800    1.1070 ha        1 03V      0.135000
     15 H7         -1.8550    0.0410    1.1980 ha        1 03V      0.136000
     16 H8         -1.8060    0.1040    3.6540 ha        1 03V      0.132000
     17 H9         -0.5090    0.1040    5.7890 ha        1 03V      0.132000
     18 H10         1.9710   -0.0060    5.7470 ha        1 03V      0.132000
     19 H11         3.1920   -0.1160    3.5710 ha        1 03V      0.132000
@<TRIPOS>BOND
     1    1    3 ar  
     2    1    7 ar  
     3    1   12 1   
     4    2    3 1   
     5    2   13 1   
     6    3    4 ar  
     7    4    5 ar  
     8    4   14 1   
     9    5    6 ar  
    10    5   11 ar  
    11    6    7 ar  
    12    6    8 ar  
    13    7   15 1   
    14    8    9 ar  
    15    8   16 1   
    16    9   10 ar  
    17    9   17 1   
    18   10   11 ar  
    19   10   18 1   
    20   11   19 1   
@<TRIPOS>SUBSTRUCTURE
     1 03V         1 TEMP              0 ****  ****    0 ROOT
