@<TRIPOS>MOLECULE
03W
   15    14     1     0     0
SMALL
bcc


@<TRIPOS>ATOM
      1 C1         -1.1030   -0.3610    0.0800 c3        1 03W      0.301900
      2 O1         -1.5730    0.3240    1.2180 oh        1 03W     -0.636300
      3 C2          0.4090   -0.3610    0.0800 c3        1 03W      0.074100
      4 O2          0.8780   -0.3610    1.4070 oh        1 03W     -0.613800
      5 C3          0.9130    0.8730   -0.6330 c3        1 03W      0.138400
      6 O3          2.3220    0.9030   -0.5820 oh        1 03W     -0.593800
      7 O5         -1.5730   -1.6890    0.1040 oh        1 03W     -0.636300
      8 HO1        -2.4390    0.4920    1.1260 ho        1 03W      0.426000
      9 H2          0.7340   -1.1580   -0.3800 h1        1 03W      0.072700
     10 HO2         1.3740   -1.0840    1.5450 ho        1 03W      0.427000
     11 H3          0.6210    0.8530   -1.5640 h1        1 03W      0.058700
     12 H3A         0.5550    1.6700   -0.1970 h1        1 03W      0.058700
     13 HO3         2.6220    1.5650   -1.0910 ho        1 03W      0.417000
     14 HO5        -2.3100   -1.7510   -0.3870 ho        1 03W      0.426000
     15 H1         -1.4290    0.0850   -0.7250 h2        1 03W      0.080700
@<TRIPOS>BOND
     1    1    2 1   
     2    1    3 1   
     3    1    7 1   
     4    1   15 1   
     5    2    8 1   
     6    3    4 1   
     7    3    5 1   
     8    3    9 1   
     9    4   10 1   
    10    5    6 1   
    11    5   11 1   
    12    5   12 1   
    13    6   13 1   
    14    7   14 1   
@<TRIPOS>SUBSTRUCTURE
     1 03W         1 TEMP              0 ****  ****    0 ROOT
