@<TRIPOS>MOLECULE
03W
   15    14     1     0     0
SMALL
bcc


@<TRIPOS>ATOM
      1 C1         -1.1050   -0.0460   -0.1870 c3        1 03W      0.311900
      2 O1         -1.8170    0.4140    0.9410 oh        1 03W     -0.631800
      3 C2          0.2850    0.6270   -0.1530 c3        1 03W      0.111100
      4 O2          0.3610    1.6490   -1.1250 oh        1 03W     -0.577800
      5 C3          1.4110   -0.3890   -0.3730 c3        1 03W      0.094400
      6 O3          1.5400   -1.1350    0.8260 oh        1 03W     -0.604800
      7 O5         -1.0890   -1.4450   -0.0690 oh        1 03W     -0.631800
      8 HO1        -2.6740   -0.0310    0.9430 ho        1 03W      0.426000
      9 H2          0.4220    1.1560    0.8340 h1        1 03W      0.120700
     10 HO2         0.2580    1.2370   -1.9920 ho        1 03W      0.397000
     11 H3          1.1610   -1.0730   -1.2280 h1        1 03W      0.040200
     12 H3A         2.3660    0.1580   -0.5960 h1        1 03W      0.040200
     13 HO3         2.2500   -1.7700    0.6810 ho        1 03W      0.411000
     14 HO5        -0.5660   -1.6790    0.7130 ho        1 03W      0.426000
     15 H1         -1.6490    0.1750   -1.1490 h2        1 03W      0.067700
@<TRIPOS>BOND
     1    1    2 1   
     2    1    3 1   
     3    1    7 1   
     4    1   15 1   
     5    2    8 1   
     6    3    4 1   
     7    3    5 1   
     8    3    9 1   
     9    4   10 1   
    10    5    6 1   
    11    5   11 1   
    12    5   12 1   
    13    6   13 1   
    14    7   14 1   
@<TRIPOS>SUBSTRUCTURE
     1 03W         1 TEMP              0 ****  ****    0 ROOT
