@<TRIPOS>MOLECULE
03W
   15    14     1     0     0
SMALL
bcc


@<TRIPOS>ATOM
      1 C1         -0.1960    0.2390   -0.0430 c3        1 03W      0.354900
      2 O1         -0.8740   -0.8120    0.6040 oh        1 03W     -0.619300
      3 C2          1.3300   -0.0050   -0.0790 c3        1 03W      0.078100
      4 O2          1.7150   -0.2600    1.2620 oh        1 03W     -0.617800
      5 C3          2.0470    1.2210   -0.6430 c3        1 03W      0.097400
      6 O3          3.4300    0.9030   -0.6470 oh        1 03W     -0.614800
      7 O5         -0.7380    0.2270   -1.3370 oh        1 03W     -0.619300
      8 HO1        -0.3840   -1.0450    1.4030 ho        1 03W      0.434500
      9 H2          1.5620   -0.9060   -0.7130 h1        1 03W      0.060700
     10 HO2         2.6810   -0.2920    1.2720 ho        1 03W      0.432000
     11 H3          1.8630    2.1160    0.0090 h1        1 03W      0.045700
     12 H3A         1.6810    1.4260   -1.6830 h1        1 03W      0.045700
     13 HO3         3.8880    1.6590   -1.0310 ho        1 03W      0.411000
     14 HO5        -0.9590   -0.6880   -1.5630 ho        1 03W      0.434500
     15 H1         -0.4420    1.2360    0.4140 h2        1 03W      0.076700
@<TRIPOS>BOND
     1    1    2 1   
     2    1    3 1   
     3    1    7 1   
     4    1   15 1   
     5    2    8 1   
     6    3    4 1   
     7    3    5 1   
     8    3    9 1   
     9    4   10 1   
    10    5    6 1   
    11    5   11 1   
    12    5   12 1   
    13    6   13 1   
    14    7   14 1   
@<TRIPOS>SUBSTRUCTURE
     1 03W         1 TEMP              0 ****  ****    0 ROOT
