@<TRIPOS>MOLECULE
03W
   15    14     1     0     0
SMALL
bcc


@<TRIPOS>ATOM
      1 C1         -0.1960    0.2330   -0.0510 c3        1 03W      0.354900
      2 O1         -0.8730   -0.8040    0.6180 oh        1 03W     -0.619300
      3 C2          1.3320   -0.0010   -0.0680 c3        1 03W      0.078100
      4 O2          1.7070   -0.2160    1.2830 oh        1 03W     -0.617800
      5 C3          2.0440    1.2150   -0.6590 c3        1 03W      0.097400
      6 O3          3.4300    0.9070   -0.6420 oh        1 03W     -0.614800
      7 O5         -0.7270    0.1820   -1.3490 oh        1 03W     -0.619300
      8 HO1        -0.3880   -1.0130    1.4270 ho        1 03W      0.434500
      9 H2          1.5750   -0.9160   -0.6750 h1        1 03W      0.060700
     10 HO2         2.6730   -0.2400    1.3020 ho        1 03W      0.432000
     11 H3          1.8490    2.1260   -0.0340 h1        1 03W      0.045700
     12 H3A         1.6860    1.3890   -1.7070 h1        1 03W      0.045700
     13 HO3         3.8860    1.6560   -1.0430 ho        1 03W      0.411000
     14 HO5        -0.9400   -0.7400   -1.5530 ho        1 03W      0.434500
     15 H1         -0.4540    1.2410    0.3760 h2        1 03W      0.076700
@<TRIPOS>BOND
     1    1    2 1   
     2    1    3 1   
     3    1    7 1   
     4    1   15 1   
     5    2    8 1   
     6    3    4 1   
     7    3    5 1   
     8    3    9 1   
     9    4   10 1   
    10    5    6 1   
    11    5   11 1   
    12    5   12 1   
    13    6   13 1   
    14    7   14 1   
@<TRIPOS>SUBSTRUCTURE
     1 03W         1 TEMP              0 ****  ****    0 ROOT
