@<TRIPOS>MOLECULE
03X
   64    68     1     0     0
SMALL
bcc


@<TRIPOS>ATOM
      1 N1         -0.1330   -0.1630    0.2920 nb        1 03X     -0.680000
      2 N3         -3.4580    3.1900  -11.9640 na        1 03X     -0.407400
      3 C4          3.2650   -0.0290   -1.2830 ca        1 03X     -0.160000
      4 C5          1.8550    0.0310   -1.1470 ca        1 03X     -0.151300
      5 C6          1.2370   -0.2160    0.1160 ca        1 03X      0.424600
      6 C7         -0.8800    0.1290   -0.7590 ca        1 03X      0.437200
      7 C8         -0.3760    0.3910   -2.0670 ca        1 03X     -0.329300
      8 C10         0.8300    0.8240   -4.5540 ca        1 03X      0.005100
      9 C13         0.8230    2.1240   -5.1030 ca        1 03X      0.161900
     10 C15        -0.5580    1.3360   -6.9520 ca        1 03X      0.109600
     11 C17         0.1440   -0.2100   -5.1990 ca        1 03X     -0.087000
     12 C20        -2.5500    3.6420  -10.9570 cc        1 03X      0.213800
     13 C21        -2.9090    1.3870  -10.6140 c         1 03X      0.693700
     14 C22        -2.1040    5.0490  -10.9080 c3        1 03X     -0.088900
     15 C24        -4.7770    1.1510  -12.2360 ca        1 03X      0.020600
     16 C26        -7.1000    1.1840  -12.9340 ca        1 03X     -0.119500
     17 C28        -5.9240   -0.9140  -12.7960 ca        1 03X     -0.119500
     18 C11         3.7730   -1.1190    3.3770 c3        1 03X      0.107700
     19 C2          3.4420   -0.5820    1.0850 ca        1 03X      0.134100
     20 C3          2.0760   -0.5270    1.2340 ca        1 03X     -0.250300
     21 C1          4.0520   -0.3280   -0.1950 ca        1 03X      0.108100
     22 O2          5.4280   -0.4160   -0.2040 os        1 03X     -0.302900
     23 C12         6.0570   -0.1330   -1.4500 c3        1 03X      0.108700
     24 C9          0.9910    0.3380   -2.2490 ca        1 03X      0.169100
     25 O1          1.6420    0.5680   -3.4520 os        1 03X     -0.234200
     26 C14         0.1330    2.3760   -6.3030 ca        1 03X     -0.200000
     27 F1          1.4840    3.1310   -4.4930 f         1 03X     -0.121900
     28 C16        -0.5410    0.0350   -6.3770 ca        1 03X     -0.192000
     29 N2         -1.2670    1.5090   -8.1470 n         1 03X     -0.463100
     30 C18        -1.4610    2.6940   -8.8480 c         1 03X      0.726300
     31 O4         -0.9890    3.7830   -8.4600 o         1 03X     -0.613100
     32 C19        -2.2500    2.6050  -10.0830 cd        1 03X     -0.353400
     33 C23        -3.2990    3.7440  -13.3030 c3        1 03X      0.169100
     34 N4         -3.5410    1.7840  -11.8700 n         1 03X     -0.200400
     35 C25        -5.9610    1.8640  -12.5100 ca        1 03X     -0.130000
     36 C27        -7.0880   -0.2010  -13.0810 ca        1 03X     -0.133000
     37 C29        -4.7720   -0.2550  -12.3780 ca        1 03X     -0.130000
     38 H4          3.7000    0.1730   -2.2730 ha        1 03X      0.160000
     39 H7         -1.9710    0.1670   -0.5850 h4        1 03X      0.021100
     40 H8         -1.0650    0.6270   -2.8870 ha        1 03X      0.156000
     41 H17         0.1580   -1.2210   -4.7610 ha        1 03X      0.155000
     42 H22        -1.5210    5.2360   -9.9680 hc        1 03X      0.085367
     43 H22A       -1.4490    5.2740  -11.7890 hc        1 03X      0.085367
     44 H22B       -2.9830    5.7430  -10.9290 hc        1 03X      0.085367
     45 H26        -8.0180    1.7520  -13.1480 ha        1 03X      0.137500
     46 H28        -5.9090   -2.0090  -12.9000 ha        1 03X      0.137500
     47 H11         3.2200   -0.2210    3.7440 h1        1 03X      0.047033
     48 H11A        3.0990   -2.0100    3.3470 h1        1 03X      0.047033
     49 H11B        4.6700   -1.3220    4.0160 h1        1 03X      0.047033
     50 H3          1.6000   -0.7180    2.2080 ha        1 03X      0.159000
     51 H12         7.1470   -0.2450   -1.2180 h1        1 03X      0.046367
     52 H12A        5.7410   -0.8690   -2.2280 h1        1 03X      0.046367
     53 H12B        5.8280    0.9090   -1.7810 h1        1 03X      0.046367
     54 H14         0.1520    3.4010   -6.7090 ha        1 03X      0.193000
     55 H16        -1.0730   -0.7970   -6.8670 ha        1 03X      0.147000
     56 HN2        -1.6870    0.6780   -8.5170 hn        1 03X      0.349500
     57 H23        -3.3810    4.8580  -13.2060 h1        1 03X      0.063033
     58 H23A       -4.1320    3.3640  -13.9530 h1        1 03X      0.063033
     59 H23B       -2.3160    3.4780  -13.7750 h1        1 03X      0.063033
     60 H25        -6.0110    2.9560  -12.3880 ha        1 03X      0.152500
     61 H27        -7.9920   -0.7300  -13.4150 ha        1 03X      0.137000
     62 H29        -3.8650   -0.8340  -12.1380 ha        1 03X      0.152500
     63 O3          4.3370   -0.8730    2.0920 os        1 03X     -0.301900
     64 O5         -2.9070    0.2280  -10.1840 o         1 03X     -0.602500
@<TRIPOS>BOND
     1    1    5 ar  
     2    1    6 ar  
     3    2   12 1   
     4    2   33 1   
     5    2   34 1   
     6    3    4 ar  
     7    3   21 ar  
     8    3   38 1   
     9    4    5 ar  
    10    4   24 ar  
    11    5   20 ar  
    12    6    7 ar  
    13    6   39 1   
    14    7   24 ar  
    15    7   40 1   
    16    8    9 ar  
    17    8   11 ar  
    18    8   25 1   
    19    9   26 ar  
    20    9   27 1   
    21   10   26 ar  
    22   10   28 ar  
    23   10   29 1   
    24   11   28 ar  
    25   11   41 1   
    26   12   14 1   
    27   12   32 2   
    28   13   32 1   
    29   13   34 1   
    30   13   64 2   
    31   14   42 1   
    32   14   43 1   
    33   14   44 1   
    34   15   34 1   
    35   15   35 ar  
    36   15   37 ar  
    37   16   35 ar  
    38   16   36 ar  
    39   16   45 1   
    40   17   36 ar  
    41   17   37 ar  
    42   17   46 1   
    43   18   47 1   
    44   18   48 1   
    45   18   49 1   
    46   18   63 1   
    47   19   20 ar  
    48   19   21 ar  
    49   19   63 1   
    50   20   50 1   
    51   21   22 1   
    52   22   23 1   
    53   23   51 1   
    54   23   52 1   
    55   23   53 1   
    56   24   25 1   
    57   26   54 1   
    58   28   55 1   
    59   29   30 1   
    60   29   56 1   
    61   30   31 2   
    62   30   32 1   
    63   33   57 1   
    64   33   58 1   
    65   33   59 1   
    66   35   60 1   
    67   36   61 1   
    68   37   62 1   
@<TRIPOS>SUBSTRUCTURE
     1 03X         1 TEMP              0 ****  ****    0 ROOT
