@<TRIPOS>MOLECULE
03X
   64    68     1     0     0
SMALL
bcc


@<TRIPOS>ATOM
      1 N1         -5.6210    2.6020    1.5380 nb        1 03X     -0.680000
      2 N3          6.8480   -1.4170    0.6310 na        1 03X     -0.407400
      3 C4         -6.0730   -0.4060   -0.6520 ca        1 03X     -0.160000
      4 C5         -5.4360    0.5900    0.1300 ca        1 03X     -0.151300
      5 C6         -6.2020    1.6150    0.7640 ca        1 03X      0.424600
      6 C7         -4.3080    2.5770    1.6850 ca        1 03X      0.437200
      7 C8         -3.4420    1.6070    1.1000 ca        1 03X     -0.329300
      8 C10        -1.9330   -0.3700   -0.1820 ca        1 03X      0.005100
      9 C13        -1.3080   -1.3670    0.5960 ca        1 03X      0.161900
     10 C15         0.8770   -0.5500   -0.1150 ca        1 03X      0.109600
     11 C17        -1.1580    0.5310   -0.9180 ca        1 03X     -0.087000
     12 C20         5.5790   -1.9860    0.9610 cc        1 03X      0.213800
     13 C21         5.2010   -0.2090   -0.4640 c         1 03X      0.693700
     14 C22         5.4770   -3.1580    1.8520 c3        1 03X     -0.088900
     15 C24         7.5210    0.6840   -0.4200 ca        1 03X      0.020600
     16 C26         9.3350    2.0480    0.4350 ca        1 03X     -0.119500
     17 C28         8.3410    2.5800   -1.6940 ca        1 03X     -0.119500
     18 C11       -10.3930    1.5360    0.2030 c3        1 03X      0.107700
     19 C2         -8.2260    0.6370   -0.1780 ca        1 03X      0.134100
     20 C3         -7.6230    1.6100    0.5850 ca        1 03X     -0.250300
     21 C1         -7.4400   -0.3920   -0.8090 ca        1 03X      0.108100
     22 O2         -8.1690   -1.3030   -1.5440 os        1 03X     -0.302900
     23 C12        -7.4190   -2.3520   -2.1480 c3        1 03X      0.108700
     24 C9         -4.0170    0.6210    0.3250 ca        1 03X      0.169100
     25 O1         -3.3200   -0.3960   -0.3130 os        1 03X     -0.234200
     26 C14         0.0950   -1.4580    0.6240 ca        1 03X     -0.200000
     27 F1         -2.0450   -2.2460    1.3090 f         1 03X     -0.121900
     28 C16         0.2240    0.4490   -0.8890 ca        1 03X     -0.192000
     29 N2          2.2770   -0.5780   -0.1370 n         1 03X     -0.463100
     30 C18         3.1140   -1.4240    0.5800 c         1 03X      0.726300
     31 O4          2.6740   -2.3000    1.3550 o         1 03X     -0.613100
     32 C19         4.5580   -1.2450    0.3790 cd        1 03X     -0.353400
     33 C23         7.9590   -2.3390    0.4260 c3        1 03X      0.169100
     34 N4          6.6390   -0.4490   -0.3750 n         1 03X     -0.200400
     35 C25         8.4620    0.9730    0.5870 ca        1 03X     -0.130000
     36 C27         9.2820    2.8530   -0.7010 ca        1 03X     -0.133000
     37 C29         7.4630    1.5080   -1.5670 ca        1 03X     -0.130000
     38 H4         -5.4450   -1.1800   -1.1190 ha        1 03X      0.160000
     39 H7         -3.8730    3.3770    2.3130 h4        1 03X      0.021100
     40 H8         -2.3600    1.6570    1.2730 ha        1 03X      0.156000
     41 H17        -1.6580    1.3040   -1.5220 ha        1 03X      0.155000
     42 H22         6.0430   -2.9830    2.8020 hc        1 03X      0.085367
     43 H22A        4.4030   -3.3570    2.1060 hc        1 03X      0.085367
     44 H22B        5.9010   -4.0630    1.3450 hc        1 03X      0.085367
     45 H26        10.0690    2.2630    1.2270 ha        1 03X      0.137500
     46 H28         8.2860    3.2180   -2.5900 ha        1 03X      0.137500
     47 H11       -11.4280    1.2570   -0.1190 h1        1 03X      0.047033
     48 H11A      -10.2980    1.4890    1.3150 h1        1 03X      0.047033
     49 H11B      -10.1230    2.5540   -0.1710 h1        1 03X      0.047033
     50 H3         -8.2150    2.4000    1.0720 ha        1 03X      0.159000
     51 H12        -6.6890   -1.9400   -2.8870 h1        1 03X      0.046367
     52 H12A       -6.8900   -2.9580   -1.3720 h1        1 03X      0.046367
     53 H12B       -8.2020   -2.9640   -2.6630 h1        1 03X      0.046367
     54 H14         0.5540   -2.2520    1.2370 ha        1 03X      0.193000
     55 H16         0.8130    1.1690   -1.4780 ha        1 03X      0.147000
     56 HN2         2.7070    0.1060   -0.7300 hn        1 03X      0.349500
     57 H23         8.0580   -2.9430    1.3660 h1        1 03X      0.063033
     58 H23A        7.8060   -3.0250   -0.4490 h1        1 03X      0.063033
     59 H23B        8.8980   -1.7440    0.2640 h1        1 03X      0.063033
     60 H25         8.5210    0.3690    1.5050 ha        1 03X      0.152500
     61 H27         9.9740    3.7000   -0.8130 ha        1 03X      0.137000
     62 H29         6.7130    1.3180   -2.3510 ha        1 03X      0.152500
     63 O3         -9.5800    0.5420   -0.4140 os        1 03X     -0.301900
     64 O5          4.6960    0.6620   -1.1810 o         1 03X     -0.602500
@<TRIPOS>BOND
     1    1    5 ar  
     2    1    6 ar  
     3    2   12 1   
     4    2   33 1   
     5    2   34 1   
     6    3    4 ar  
     7    3   21 ar  
     8    3   38 1   
     9    4    5 ar  
    10    4   24 ar  
    11    5   20 ar  
    12    6    7 ar  
    13    6   39 1   
    14    7   24 ar  
    15    7   40 1   
    16    8    9 ar  
    17    8   11 ar  
    18    8   25 1   
    19    9   26 ar  
    20    9   27 1   
    21   10   26 ar  
    22   10   28 ar  
    23   10   29 1   
    24   11   28 ar  
    25   11   41 1   
    26   12   14 1   
    27   12   32 2   
    28   13   32 1   
    29   13   34 1   
    30   13   64 2   
    31   14   42 1   
    32   14   43 1   
    33   14   44 1   
    34   15   34 1   
    35   15   35 ar  
    36   15   37 ar  
    37   16   35 ar  
    38   16   36 ar  
    39   16   45 1   
    40   17   36 ar  
    41   17   37 ar  
    42   17   46 1   
    43   18   47 1   
    44   18   48 1   
    45   18   49 1   
    46   18   63 1   
    47   19   20 ar  
    48   19   21 ar  
    49   19   63 1   
    50   20   50 1   
    51   21   22 1   
    52   22   23 1   
    53   23   51 1   
    54   23   52 1   
    55   23   53 1   
    56   24   25 1   
    57   26   54 1   
    58   28   55 1   
    59   29   30 1   
    60   29   56 1   
    61   30   31 2   
    62   30   32 1   
    63   33   57 1   
    64   33   58 1   
    65   33   59 1   
    66   35   60 1   
    67   36   61 1   
    68   37   62 1   
@<TRIPOS>SUBSTRUCTURE
     1 03X         1 TEMP              0 ****  ****    0 ROOT
