@<TRIPOS>MOLECULE
03X
   64    57     1     0     0
SMALL
bcc


@<TRIPOS>ATOM
      1 N1          1.6310    4.1780    3.7920 n1        1 03X     -0.147000
      2 N3         -2.8260   -2.7910   -4.7600 n3        1 03X     -0.137000
      3 C4          3.7660    1.1900    3.9990 c1        1 03X     -0.157000
      4 C5          3.0970    2.3040    3.4880 c1        1 03X     -0.080000
      5 C6          2.2290    3.0180    4.2860 c1        1 03X      0.018000
      6 C7          1.9090    4.6010    2.5230 c1        1 03X     -0.029000
      7 C8          2.7970    3.8670    1.7150 c1        1 03X     -0.176000
      8 C10         2.8510    1.1020    0.6320 c1        1 03X      0.042000
      9 C13         1.9510    1.8340   -0.1450 c1        1 03X      0.128000
     10 C15         0.7260   -0.2210   -0.6240 c1        1 03X      0.118000
     11 C17         2.6840   -0.3020    0.7790 c1        1 03X     -0.176000
     12 C20        -1.6770   -2.9100   -3.9560 c2        1 03X      0.136000
     13 C21        -2.9070   -1.4190   -2.7080 c1        1 03X      0.332000
     14 C22        -0.8270   -4.1850   -4.0060 c3        1 03X     -0.211000
     15 C24        -4.8140   -1.0020   -4.5270 c1        1 03X      0.028000
     16 C26        -7.0370   -0.1130   -4.3670 c1        1 03X     -0.118000
     17 C28        -5.6460    0.5200   -6.2120 c1        1 03X     -0.127000
     18 C11         2.7310    1.3570    8.5050 c3        1 03X     -0.066000
     19 O3          3.0320    2.1370    7.3720 os        1 03X     -0.212000
     20 C2          2.6750    1.5210    6.1300 c2        1 03X      0.074000
     21 C3          2.0150    2.6200    5.6250 c2        1 03X     -0.120000
     22 C1          3.5590    0.7970    5.3100 c1        1 03X      0.036000
     23 O2          3.9490   -0.4010    5.7800 os        1 03X     -0.215000
     24 C12         5.3450   -0.6570    5.6320 c3        1 03X     -0.078000
     25 C9          3.3780    2.7380    2.1970 c1        1 03X      0.042000
     26 O1          3.9080    1.7550    1.2830 os        1 03X     -0.145000
     27 C14         0.8910    1.1850   -0.7730 c2        1 03X     -0.224000
     28 F1          2.1690    3.1880   -0.3720 f         1 03X     -0.088000
     29 C16         1.6230   -0.9480    0.1500 c1        1 03X     -0.169000
     30 N2         -0.4510   -0.8410   -1.0900 n2        1 03X     -0.317000
     31 C18        -0.4150   -1.6520   -2.2750 c2        1 03X      0.402000
     32 O4          0.6180   -1.8040   -2.8670 o         1 03X     -0.377000
     33 C19        -1.7050   -2.1700   -2.8660 c2        1 03X     -0.316000
     34 O5         -3.0390   -0.3920   -2.0190 o         1 03X     -0.326000
     35 C23        -3.2610   -3.7280   -5.7680 c3        1 03X     -0.107000
     36 N4         -3.7380   -1.7800   -3.9740 n1        1 03X     -0.171000
     37 C25        -6.0110   -0.9180   -3.8610 c2        1 03X     -0.114000
     38 C27        -6.8440    0.6030   -5.5450 c1        1 03X     -0.127000
     39 C29        -4.6210   -0.2830   -5.7090 c1        1 03X     -0.147000
     40 H4          4.4050    0.6680    3.4070 ha        1 03X      0.159000
     41 H7          1.4830    5.4290    2.1700 ha        1 03X      0.159000
     42 H8          3.0040    4.1810    0.7700 ha        1 03X      0.156500
     43 H17         3.3090   -0.8120    1.3190 ha        1 03X      0.156500
     44 H22        -1.2370   -4.8100   -4.5780 hc        1 03X      0.124333
     45 H22A       -0.7510   -4.5750   -3.0830 hc        1 03X      0.124333
     46 H22B        0.1020   -3.9610   -4.3590 hc        1 03X      0.124333
     47 H26        -7.9050   -0.0520   -3.8850 ha        1 03X      0.140000
     48 H28        -5.5160    1.0070   -7.0120 ha        1 03X      0.136500
     49 H11         3.6010    0.8650    8.8330 h1        1 03X      0.085667
     50 H11A        2.3930    1.9390    9.2230 h1        1 03X      0.085667
     51 H11B        2.0240    0.6680    8.2620 h1        1 03X      0.085667
     52 H3          1.3980    3.0840    6.1590 ha        1 03X      0.169000
     53 H12         5.8490   -0.2750    6.4370 h1        1 03X      0.087000
     54 H12A        5.6780   -0.2210    4.7920 h1        1 03X      0.087000
     55 H12B        5.5010   -1.6570    5.5770 h1        1 03X      0.087000
     56 H14         0.2290    1.7200   -1.3430 ha        1 03X      0.158000
     57 H16         1.5020   -1.9770    0.2580 ha        1 03X      0.182000
     58 HN2        -1.2170   -0.8090   -0.5800 hn        1 03X      0.263000
     59 H23        -4.1230   -4.1480   -5.4840 h1        1 03X      0.102333
     60 H23A       -3.3950   -3.2450   -6.6430 h1        1 03X      0.102333
     61 H23B       -2.5650   -4.4400   -5.8830 h1        1 03X      0.102333
     62 H25        -6.1440   -1.4120   -3.0460 ha        1 03X      0.162000
     63 H27        -7.5710    1.1740   -5.9030 ha        1 03X      0.136500
     64 H29        -3.7690   -0.3400   -6.1820 ha        1 03X      0.142000
@<TRIPOS>BOND
     1    1    6 1   
     2    2   12 1   
     3    2   35 1   
     4    2   36 1   
     5    3    4 1   
     6    3   40 1   
     7    4    5 1   
     8    5   21 1   
     9    6   41 1   
    10    7   25 1   
    11    7   42 1   
    12    8   11 1   
    13    8   26 1   
    14    9   27 1   
    15    9   28 1   
    16   10   27 1   
    17   10   29 1   
    18   11   43 1   
    19   12   14 1   
    20   12   33 1   
    21   13   33 1   
    22   13   34 1   
    23   14   44 1   
    24   14   45 1   
    25   14   46 1   
    26   15   37 1   
    27   15   39 1   
    28   16   37 1   
    29   16   47 1   
    30   17   38 1   
    31   17   48 1   
    32   18   19 1   
    33   18   49 1   
    34   18   50 1   
    35   18   51 1   
    36   19   20 1   
    37   20   21 1   
    38   20   22 1   
    39   21   52 1   
    40   22   23 1   
    41   23   24 1   
    42   24   53 1   
    43   24   54 1   
    44   24   55 1   
    45   25   26 1   
    46   27   56 1   
    47   29   57 1   
    48   30   31 1   
    49   30   58 1   
    50   31   32 1   
    51   31   33 1   
    52   35   59 1   
    53   35   60 1   
    54   35   61 1   
    55   37   62 1   
    56   38   63 1   
    57   39   64 1   
@<TRIPOS>SUBSTRUCTURE
     1 03X         1 TEMP              0 ****  ****    0 ROOT
