@<TRIPOS>MOLECULE
03Y
   16    15     1     0     0
SMALL
bcc


@<TRIPOS>ATOM
      1 CB          0.8620    0.7130   -0.3570 c3        1 03Y      0.059700
      2 C          -1.5670    0.3480   -0.0330 c         1 03Y      0.894600
      3 CA         -0.1450   -0.3540    0.0730 c3        1 03Y      0.032200
      4 CM          0.0610   -0.6850    1.5530 c3        1 03Y     -0.067100
      5 N          -0.0460   -1.5590   -0.7600 n3        1 03Y     -0.873800
      6 O          -1.7020    1.4710    0.5240 o         1 03Y     -0.832800
      7 SG          2.5610    0.1660   -0.2260 sh        1 03Y     -0.425900
      8 HB2         0.6710    1.0110   -1.4160 h1        1 03Y      0.064200
      9 HB3         0.7040    1.6060    0.2950 h1        1 03Y      0.064200
     10 H21        -0.1070    0.2430    2.1500 hc        1 03Y      0.029367
     11 H21A       -0.6730   -1.4570    1.8860 hc        1 03Y      0.029367
     12 H21B        1.0960   -1.0630    1.7380 hc        1 03Y      0.029367
     13 H          -0.7980   -2.1670   -0.4830 hn        1 03Y      0.333800
     14 H2         -0.2380   -1.2860   -1.7080 hn        1 03Y      0.333800
     15 HG          3.1340    1.3510   -0.3040 hs        1 03Y      0.161800
     16 OXT        -2.4730   -0.2620   -0.6650 o         1 03Y     -0.832800
@<TRIPOS>BOND
     1    1    3 1   
     2    1    7 1   
     3    1    8 1   
     4    1    9 1   
     5    2    3 1   
     6    2    6 1   
     7    2   16 1   
     8    3    4 1   
     9    3    5 1   
    10    4   10 1   
    11    4   11 1   
    12    4   12 1   
    13    5   13 1   
    14    5   14 1   
    15    7   15 1   
@<TRIPOS>SUBSTRUCTURE
     1 03Y         1 TEMP              0 ****  ****    0 ROOT
