@<TRIPOS>MOLECULE
03Z
   39    41     1     0     0
SMALL
bcc


@<TRIPOS>ATOM
      1 C1         -7.1060   -1.7620    0.2310 ca        1 03Z     -0.111000
      2 N1         -0.4220    1.2120   -0.1450 nc        1 03Z     -0.746000
      3 O1          6.4870    1.2490    0.2040 o         1 03Z     -0.659800
      4 S1         -2.2500   -0.6380    0.1060 ss        1 03Z     -0.103300
      5 C2         -7.2820   -0.6780   -0.6300 ca        1 03Z     -0.136500
      6 N2         -1.7810    3.2110   -0.0680 nh        1 03Z     -0.933500
      7 O2          6.7960   -0.7080   -1.1800 o         1 03Z     -0.659800
      8 S2          6.2490   -0.1250   -0.0160 sy        1 03Z      1.532200
      9 C3         -6.3260    0.3340   -0.6840 ca        1 03Z     -0.096000
     10 N3          0.4090   -1.0830   -0.0530 nh        1 03Z     -0.711300
     11 O3         -4.5430    2.5350   -0.0780 o         1 03Z     -0.584100
     12 C4         -5.0100   -0.8230    0.9860 ca        1 03Z     -0.096000
     13 N4          6.7470   -0.9520    1.2640 n3        1 03Z     -1.026700
     14 C5         -5.9730   -1.8300    1.0420 ca        1 03Z     -0.136500
     15 C10        -5.1780    0.2590    0.1160 ca        1 03Z     -0.155600
     16 C11        -4.1740    1.3500    0.0290 c         1 03Z      0.643300
     17 C12        -2.7860    0.9610    0.0360 cd        1 03Z     -0.416000
     18 C13        -1.6800    1.8510   -0.0680 cc        1 03Z      0.720200
     19 C14        -0.5970   -0.1210   -0.0660 cd        1 03Z      0.678300
     20 C15         1.7840   -0.7900   -0.0740 ca        1 03Z      0.207600
     21 C16         2.3430    0.2760    0.6650 ca        1 03Z     -0.184000
     22 C17         3.7190    0.4640    0.6750 ca        1 03Z      0.006500
     23 C18         4.5850   -0.3860   -0.0230 ca        1 03Z     -0.413500
     24 C19         4.0250   -1.4390   -0.7560 ca        1 03Z      0.006500
     25 C20         2.6550   -1.6490   -0.7910 ca        1 03Z     -0.184000
     26 H1         -7.8630   -2.5590    0.2750 ha        1 03Z      0.134000
     27 H2         -8.1790   -0.6190   -1.2640 ha        1 03Z      0.136000
     28 HN2        -0.9900    3.7680   -0.2760 hn        1 03Z      0.456800
     29 HN2A       -2.6930    3.6080   -0.1220 hn        1 03Z      0.456800
     30 H3         -6.4650    1.2030   -1.3460 ha        1 03Z      0.146500
     31 HN3         0.1540   -1.9350   -0.5110 hn        1 03Z      0.439800
     32 H4         -4.1300   -0.8730    1.6500 ha        1 03Z      0.146500
     33 HN4         6.8260   -0.5630    2.1690 hn        1 03Z      0.446300
     34 HN4A        7.0340   -1.8970    1.2270 hn        1 03Z      0.446300
     35 H5         -5.8400   -2.6760    1.7320 ha        1 03Z      0.136000
     36 H16         1.7040    0.9660    1.2370 ha        1 03Z      0.151500
     37 H17         4.1400    1.3170    1.2370 ha        1 03Z      0.155000
     38 H19         4.6900   -2.1020   -1.3380 ha        1 03Z      0.155000
     39 H20         2.2540   -2.4850   -1.3840 ha        1 03Z      0.151500
@<TRIPOS>BOND
     1    1    5 ar  
     2    1   14 ar  
     3    1   26 1   
     4    2   18 1   
     5    2   19 2   
     6    3    8 2   
     7    4   17 1   
     8    4   19 1   
     9    5    9 ar  
    10    5   27 1   
    11    6   18 1   
    12    6   28 1   
    13    6   29 1   
    14    7    8 2   
    15    8   13 1   
    16    8   23 1   
    17    9   15 ar  
    18    9   30 1   
    19   10   19 1   
    20   10   20 1   
    21   10   31 1   
    22   11   16 2   
    23   12   14 ar  
    24   12   15 ar  
    25   12   32 1   
    26   13   33 1   
    27   13   34 1   
    28   14   35 1   
    29   15   16 1   
    30   16   17 1   
    31   17   18 2   
    32   20   21 ar  
    33   20   25 ar  
    34   21   22 ar  
    35   21   36 1   
    36   22   23 ar  
    37   22   37 1   
    38   23   24 ar  
    39   24   25 ar  
    40   24   38 1   
    41   25   39 1   
@<TRIPOS>SUBSTRUCTURE
     1 03Z         1 TEMP              0 ****  ****    0 ROOT
