@<TRIPOS>MOLECULE
03Z
   40    42     1     0     0
SMALL
bcc


@<TRIPOS>ATOM
      1 C1         -0.6580   -0.0150    0.4250 ca        1 03Z     -0.100000
      2 N1          2.1950   -1.2450    7.0290 nc        1 03Z     -0.714000
      3 O1          0.3710   -1.4090   13.8840 o         1 03Z     -0.580800
      4 S1          0.4400   -1.2100    5.1070 ss        1 03Z      0.048700
      5 C2          0.7050   -0.1490    0.1600 ca        1 03Z     -0.129000
      6 N2          3.9160    0.1890    6.1050 nv        1 03Z     -0.924500
      7 O2         -0.6780   -3.5710   13.8280 o         1 03Z     -0.580800
      8 S2         -0.3730   -2.3670   13.2280 sy        1 03Z      1.518200
      9 C3          1.6320   -0.0450    1.1960 ca        1 03Z     -0.097500
     10 N3          0.1710   -2.5320    7.4610 nu        1 03Z     -0.680300
     11 O3          3.2920    0.8410    3.4090 o         1 03Z     -0.548100
     12 C4         -0.1730    0.3270    2.7680 ca        1 03Z     -0.097500
     13 N4         -2.1390   -1.5120   13.3860 nz        1 03Z     -0.779500
     14 C5         -1.0950    0.2300    1.7280 ca        1 03Z     -0.129000
     15 C10         1.1950    0.1790    2.5080 ca        1 03Z     -0.169600
     16 C11         2.2040    0.2710    3.5880 c         1 03Z      0.638300
     17 C12         1.8680   -0.3820    4.8420 cd        1 03Z     -0.405000
     18 C13         2.7220   -0.4580    5.9820 cc        1 03Z      0.696200
     19 C14         0.9780   -1.7000    6.6600 cd        1 03Z      0.563300
     20 C15         0.0750   -2.4630    8.8230 ca        1 03Z      0.321600
     21 C16         0.4930   -1.3280    9.5880 ca        1 03Z     -0.215000
     22 C17         0.3220   -1.3030   10.9470 ca        1 03Z      0.051500
     23 C18        -0.2790   -2.3750   11.6650 ca        1 03Z     -0.659500
     24 C19        -0.7030   -3.4910   10.8930 ca        1 03Z      0.051500
     25 C20        -0.5460   -3.5460    9.5340 ca        1 03Z     -0.215000
     26 H1         -1.3890   -0.0930   -0.3950 ha        1 03Z      0.145000
     27 H2          1.0520   -0.3290   -0.8690 ha        1 03Z      0.144000
     28 HN2         4.5320   -0.0480    6.8450 hn        1 03Z      0.460800
     29 HN2A        4.2850    0.6320    5.2910 hn        1 03Z      0.460800
     30 H3          2.7120   -0.1290    0.9920 ha        1 03Z      0.144000
     31 HN3        -0.1110   -3.3860    7.0180 hn        1 03Z      0.468800
     32 H4         -0.5270    0.5670    3.7850 ha        1 03Z      0.144000
     33 HN4        -2.0610   -0.6500   13.9170 hn        1 03Z      0.445467
     34 HN4A       -2.5350   -1.2930   12.4800 hn        1 03Z      0.445467
     35 H5         -2.1680    0.3560    1.9330 ha        1 03Z      0.144000
     36 H16         0.9690   -0.4660    9.0900 ha        1 03Z      0.178000
     37 H17         0.6810   -0.4240   11.5170 ha        1 03Z      0.164500
     38 H19        -1.1550   -4.3540   11.4200 ha        1 03Z      0.164500
     39 H20        -0.8830   -4.4410    8.9850 ha        1 03Z      0.178000
     40 H43        -2.7810   -2.1270   13.8760 hn        1 03Z      0.445467
@<TRIPOS>BOND
     1    1    5 ar  
     2    1   14 ar  
     3    1   26 1   
     4    2   18 1   
     5    2   19 2   
     6    3    8 2   
     7    4   17 1   
     8    4   19 1   
     9    5    9 ar  
    10    5   27 1   
    11    6   18 1   
    12    6   28 1   
    13    6   29 1   
    14    7    8 2   
    15    8   13 1   
    16    8   23 1   
    17    9   15 ar  
    18    9   30 1   
    19   10   19 1   
    20   10   20 1   
    21   10   31 1   
    22   11   16 2   
    23   12   14 ar  
    24   12   15 ar  
    25   12   32 1   
    26   13   33 1   
    27   13   34 1   
    28   13   40 1   
    29   14   35 1   
    30   15   16 1   
    31   16   17 1   
    32   17   18 2   
    33   20   21 ar  
    34   20   25 ar  
    35   21   22 ar  
    36   21   36 1   
    37   22   23 ar  
    38   22   37 1   
    39   23   24 ar  
    40   24   25 ar  
    41   24   38 1   
    42   25   39 1   
@<TRIPOS>SUBSTRUCTURE
     1 03Z         1 TEMP              0 ****  ****    0 ROOT
