@<TRIPOS>MOLECULE
03Z
   39    34     1     0     0
SMALL
bcc


@<TRIPOS>ATOM
      1 C1         -5.6090    1.6240   -3.3600 c1        1 03Z     -0.123500
      2 N1         -0.2480   -0.2510    1.5440 n2        1 03Z     -0.230000
      3 O1          7.0820   -1.8760   -0.1270 o         1 03Z     -0.939000
      4 S1         -1.6370   -0.2020   -0.4170 ss        1 03Z      0.472000
      5 C2         -4.5900    2.5500   -3.2030 c1        1 03Z     -0.123500
      6 N2         -1.5730    1.6240    2.8910 nh        1 03Z     -0.339000
      7 O2          6.7100   -2.6370    1.9260 o         1 03Z     -0.939000
      8 S2          6.2830   -1.5940    1.0340 ss        1 03Z      2.870000
      9 C3         -3.8470    2.5710   -2.0340 c1        1 03Z     -0.080000
     10 N3          0.4410   -1.9220   -0.1200 nh        1 03Z     -0.236000
     11 O3         -3.7370    2.5300    1.1490 o         1 03Z     -0.348000
     12 C4         -5.1420    0.7410   -1.1770 c1        1 03Z     -0.123500
     13 N4          6.6260   -0.1090    1.6460 n2        1 03Z     -0.953000
     14 C5         -5.8850    0.7190   -2.3460 c1        1 03Z     -0.123500
     15 C10        -4.1230    1.6670   -1.0200 c1        1 03Z     -0.134000
     16 C11        -3.3740    1.7510    0.2910 c2        1 03Z      0.363000
     17 C12        -2.2060    0.8250    0.5560 c2        1 03Z     -0.603000
     18 C13        -1.3860    0.8120    1.7430 c2        1 03Z      0.207000
     19 C14        -0.4070   -0.8480    0.2560 c2        1 03Z     -0.079000
     20 C15         1.8330   -1.8550    0.1480 c2        1 03Z      0.129000
     21 C16         2.3470   -2.4390    1.2960 c2        1 03Z     -0.208000
     22 C17         3.7070   -2.3740    1.5570 c1        1 03Z      0.007000
     23 C18         4.5530   -1.7250    0.6720 c1        1 03Z     -0.857000
     24 C19         4.0390   -1.1410   -0.4760 c1        1 03Z      0.004000
     25 C20         2.6790   -1.2060   -0.7370 c1        1 03Z     -0.159000
     26 H1         -6.1330    1.6080   -4.1830 ha        1 03Z      0.136750
     27 H2         -4.3960    3.1860   -3.9170 ha        1 03Z      0.136750
     28 HN2        -1.1130    1.4410    3.6600 hn        1 03Z      0.255500
     29 HN2A       -2.1410    2.3390    2.8580 hn        1 03Z      0.255500
     30 H3         -3.1290    3.2230   -1.9240 ha        1 03Z      0.150000
     31 HN3         0.0930   -2.6510   -0.5440 hn        1 03Z      0.239000
     32 H4         -5.3370    0.1040   -0.4630 ha        1 03Z      0.136750
     33 HN4         6.5200    0.0520    2.5400 hn        1 03Z      0.242000
     34 HN4A        6.9310    0.5530    1.0950 hn        1 03Z      0.242000
     35 H5         -6.6030    0.0670   -2.4560 ha        1 03Z      0.136750
     36 H16         1.7510   -2.8960    1.9190 ha        1 03Z      0.138000
     37 H17         4.0680   -2.7850    2.3660 ha        1 03Z      0.155000
     38 H19         4.6350   -0.6840   -1.0990 ha        1 03Z      0.155000
     39 H20         2.3180   -0.7950   -1.5450 ha        1 03Z      0.166000
@<TRIPOS>BOND
     1    1    5 1   
     2    1   26 1   
     3    2   18 1   
     4    2   19 1   
     5    3    8 1   
     6    4   17 1   
     7    4   19 1   
     8    5   27 1   
     9    6   18 1   
    10    6   28 1   
    11    6   29 1   
    12    7    8 1   
    13    9   15 1   
    14    9   30 1   
    15   10   19 1   
    16   10   20 1   
    17   10   31 1   
    18   11   16 1   
    19   12   14 1   
    20   12   32 1   
    21   13   33 1   
    22   13   34 1   
    23   14   35 1   
    24   15   16 1   
    25   16   17 1   
    26   17   18 1   
    27   20   21 1   
    28   20   25 1   
    29   21   22 1   
    30   21   36 1   
    31   22   37 1   
    32   23   24 1   
    33   24   38 1   
    34   25   39 1   
@<TRIPOS>SUBSTRUCTURE
     1 03Z         1 TEMP              0 ****  ****    0 ROOT
