@<TRIPOS>MOLECULE
03Z
   42    44     1     0     0
SMALL
bcc


@<TRIPOS>ATOM
      1 C1         -0.6120    0.7710    0.8900 ca        1 03Z     -0.064000
      2 N1          1.9360   -2.2340    6.7900 nc        1 03Z     -0.581000
      3 O1         -1.1100    0.2710   13.0960 o         1 03Z     -0.520800
      4 S1          0.3450   -1.1430    5.0390 ss        1 03Z      0.426700
      5 C2          0.6240    0.3610    0.3990 ca        1 03Z     -0.082000
      6 N2          4.1570   -1.6500    5.8480 n4        1 03Z     -0.802300
      7 O2          0.7020   -1.3030   13.5850 o         1 03Z     -0.520800
      8 S2         -0.4750   -0.9410   12.9750 sy        1 03Z      1.449200
      9 C3          1.6630    0.0420    1.2830 ca        1 03Z     -0.119500
     10 N3         -0.4290   -2.6610    7.2800 n4        1 03Z     -0.589100
     11 O3          3.7180   -0.2220    3.4270 o         1 03Z     -0.487100
     12 C4          0.2150    0.6030    3.1630 ca        1 03Z     -0.119500
     13 N4         -1.6930   -2.0820   13.8120 n4        1 03Z     -0.808500
     14 C5         -0.8100    0.9080    2.2730 ca        1 03Z     -0.082000
     15 C10         1.4520    0.1350    2.6610 ca        1 03Z     -0.200600
     16 C11         2.4980   -0.3000    3.5840 c         1 03Z      0.633300
     17 C12         1.9510   -0.9830    4.7930 cd        1 03Z     -0.282000
     18 C13         2.7000   -1.6200    5.8160 cc        1 03Z      0.437200
     19 C14         0.6220   -2.0550    6.4630 cd        1 03Z      0.290300
     20 C15        -0.4410   -2.2380    8.6960 ca        1 03Z      0.051600
     21 C16        -1.3670   -1.2710    9.1240 ca        1 03Z     -0.113500
     22 C17        -1.4070   -0.9180   10.4720 ca        1 03Z      0.025500
     23 C18        -0.5410   -1.5060   11.4110 ca        1 03Z     -0.434500
     24 C19         0.3740   -2.4700   10.9560 ca        1 03Z      0.025500
     25 C20         0.4360   -2.8420    9.6120 ca        1 03Z     -0.113500
     26 H1         -1.4320    1.0210    0.1920 ha        1 03Z      0.187000
     27 H2          0.7960    0.2920   -0.6920 ha        1 03Z      0.179500
     28 HN2         4.5260   -1.1460    5.0100 hn        1 03Z      0.500133
     29 HN2A        4.5050   -1.1890    6.7010 hn        1 03Z      0.500133
     30 H3          2.6430   -0.2850    0.8930 ha        1 03Z      0.156500
     31 HN3        -1.3400   -2.4280    6.8540 hn        1 03Z      0.489300
     32 H4          0.1120    0.9470    4.2100 ha        1 03Z      0.156500
     33 HN4        -1.2380   -2.6000   14.5730 hn        1 03Z      0.479467
     34 HN4A       -2.1260   -2.7720   13.2020 hn        1 03Z      0.479467
     35 H5         -1.7720    1.2990    2.6450 ha        1 03Z      0.179500
     36 H16        -2.0700   -0.7790    8.4260 ha        1 03Z      0.193500
     37 H17        -2.1260   -0.1340   10.7940 ha        1 03Z      0.207000
     38 H19         1.0880   -2.9380   11.6680 ha        1 03Z      0.207000
     39 H20         1.1790   -3.5990    9.2970 ha        1 03Z      0.193500
     40 H23         4.4930   -2.6250    5.8300 hn        1 03Z      0.500133
     41 H32        -0.3070   -3.6920    7.2560 hn        1 03Z      0.489300
     42 H43        -2.4540   -1.5430   14.2430 hn        1 03Z      0.479467
@<TRIPOS>BOND
     1    1    5 ar  
     2    1   14 ar  
     3    1   26 1   
     4    2   18 1   
     5    2   19 2   
     6    3    8 2   
     7    4   17 1   
     8    4   19 1   
     9    5    9 ar  
    10    5   27 1   
    11    6   18 1   
    12    6   28 1   
    13    6   29 1   
    14    6   40 1   
    15    7    8 2   
    16    8   13 1   
    17    8   23 1   
    18    9   15 ar  
    19    9   30 1   
    20   10   19 1   
    21   10   20 1   
    22   10   31 1   
    23   10   41 1   
    24   11   16 2   
    25   12   14 ar  
    26   12   15 ar  
    27   12   32 1   
    28   13   33 1   
    29   13   34 1   
    30   13   42 1   
    31   14   35 1   
    32   15   16 1   
    33   16   17 1   
    34   17   18 2   
    35   20   21 ar  
    36   20   25 ar  
    37   21   22 ar  
    38   21   36 1   
    39   22   23 ar  
    40   22   37 1   
    41   23   24 ar  
    42   24   25 ar  
    43   24   38 1   
    44   25   39 1   
@<TRIPOS>SUBSTRUCTURE
     1 03Z         1 TEMP              0 ****  ****    0 ROOT
