@<TRIPOS>MOLECULE
03Z
   40    42     1     0     0
SMALL
bcc


@<TRIPOS>ATOM
      1 C1         -0.6320    0.0510    0.4290 ca        1 03Z     -0.100000
      2 N1          2.1910   -1.2870    7.0250 nc        1 03Z     -0.714000
      3 O1          0.3700   -1.4540   13.8800 o         1 03Z     -0.580800
      4 S1          0.4370   -1.1970    5.1040 ss        1 03Z      0.048700
      5 C2          0.7280   -0.1130    0.1630 ca        1 03Z     -0.129000
      6 N2          3.9460    0.1110    6.1100 nh        1 03Z     -0.924500
      7 O2         -0.7310   -3.5890   13.8100 o         1 03Z     -0.580800
      8 S2         -0.3980   -2.3890   13.2190 sy        1 03Z      1.518200
      9 C3          1.6570   -0.0370    1.2000 ca        1 03Z     -0.097500
     10 N3          0.1370   -2.5270    7.4500 nh        1 03Z     -0.680300
     11 O3          3.3370    0.7950    3.4180 o         1 03Z     -0.548100
     12 C4         -0.1390    0.3670    2.7740 ca        1 03Z     -0.097500
     13 N4         -2.1420   -1.4920   13.3850 n4        1 03Z     -0.779500
     14 C5         -1.0630    0.2980    1.7330 ca        1 03Z     -0.129000
     15 C10         1.2250    0.1880    2.5130 ca        1 03Z     -0.169600
     16 C11         2.2360    0.2500    3.5940 c         1 03Z      0.638300
     17 C12         1.8850   -0.4020    4.8440 cd        1 03Z     -0.405000
     18 C13         2.7360   -0.5060    5.9830 cc        1 03Z      0.696200
     19 C14         0.9640   -1.7100    6.6540 cd        1 03Z      0.563300
     20 C15         0.0430   -2.4650    8.8120 ca        1 03Z      0.321600
     21 C16         0.4890   -1.3460    9.5840 ca        1 03Z     -0.215000
     22 C17         0.3200   -1.3260   10.9440 ca        1 03Z      0.051500
     23 C18        -0.3060   -2.3880   11.6560 ca        1 03Z     -0.659500
     24 C19        -0.7580   -3.4880   10.8770 ca        1 03Z      0.051500
     25 C20        -0.6030   -3.5370    9.5170 ca        1 03Z     -0.215000
     26 H1         -1.3640   -0.0040   -0.3910 ha        1 03Z      0.145000
     27 H2          1.0710   -0.2950   -0.8670 ha        1 03Z      0.144000
     28 HN2         4.5560   -0.1450    6.8480 hn        1 03Z      0.460800
     29 HN2A        4.3250    0.5500    5.2980 hn        1 03Z      0.460800
     30 H3          2.7350   -0.1460    0.9950 ha        1 03Z      0.144000
     31 HN3        -0.1670   -3.3710    7.0010 hn        1 03Z      0.468800
     32 H4         -0.4880    0.6090    3.7920 ha        1 03Z      0.144000
     33 HN4        -2.7990   -2.0950   13.8710 hn        1 03Z      0.445467
     34 HN4A       -2.0430   -0.6360   13.9230 hn        1 03Z      0.445467
     35 H5         -2.1330    0.4490    1.9390 ha        1 03Z      0.144000
     36 H16         0.9850   -0.4920    9.0920 ha        1 03Z      0.178000
     37 H17         0.7010   -0.4600   11.5200 ha        1 03Z      0.164500
     38 H19        -1.2300   -4.3440   11.3980 ha        1 03Z      0.164500
     39 H20        -0.9630   -4.4200    8.9620 ha        1 03Z      0.178000
     40 H43        -2.5340   -1.2560   12.4810 hn        1 03Z      0.445467
@<TRIPOS>BOND
     1    1    5 ar  
     2    1   14 ar  
     3    1   26 1   
     4    2   18 1   
     5    2   19 2   
     6    3    8 2   
     7    4   17 1   
     8    4   19 1   
     9    5    9 ar  
    10    5   27 1   
    11    6   18 1   
    12    6   28 1   
    13    6   29 1   
    14    7    8 2   
    15    8   13 1   
    16    8   23 1   
    17    9   15 ar  
    18    9   30 1   
    19   10   19 1   
    20   10   20 1   
    21   10   31 1   
    22   11   16 2   
    23   12   14 ar  
    24   12   15 ar  
    25   12   32 1   
    26   13   33 1   
    27   13   34 1   
    28   13   40 1   
    29   14   35 1   
    30   15   16 1   
    31   16   17 1   
    32   17   18 2   
    33   20   21 ar  
    34   20   25 ar  
    35   21   22 ar  
    36   21   36 1   
    37   22   23 ar  
    38   22   37 1   
    39   23   24 ar  
    40   24   25 ar  
    41   24   38 1   
    42   25   39 1   
@<TRIPOS>SUBSTRUCTURE
     1 03Z         1 TEMP              0 ****  ****    0 ROOT
