@<TRIPOS>MOLECULE
040
   24    22     1     0     0
SMALL
bcc


@<TRIPOS>ATOM
      1 C01        -1.9750   -0.0990   -1.8300 c3        1 040     -0.206000
      2 C02        -0.4620   -0.1150   -1.8390 c2        1 040     -0.009000
      3 C03         0.2380   -0.0990   -0.6430 c2        1 040     -0.125000
      4 C04        -0.5110   -0.0670    0.6710 c2        1 040      0.290000
      5 O05        -1.7250   -0.0560    0.6770 o         1 040     -0.315000
      6 C06         0.2530   -0.0750    1.9770 c3        1 040     -0.282000
      7 C07        -0.7230   -0.1460    3.1310 c2        1 040      0.195000
      8 C08        -0.4370    0.6090    4.4110 c2        1 040      0.329000
      9 O09        -0.7450    1.8260    4.5070 o         1 040     -0.538000
     10 O10         0.0920    0.0150    5.3880 o         1 040     -0.538000
     11 O11        -1.7260   -0.8250    3.0380 o         1 040     -0.345000
     12 C12         1.6240   -0.0710   -0.6510 c1        1 040     -0.096000
     13 C13         2.3100   -0.0600   -1.8550 c1        1 040     -0.136500
     14 C14         1.6100   -0.0760   -3.0510 c1        1 040     -0.136500
     15 C15         0.2240   -0.1040   -3.0430 c1        1 040     -0.147000
     16 H01        -2.2900    0.7150   -1.3850 hc        1 040      0.100667
     17 H01A       -2.3070   -0.1170   -2.7520 hc        1 040      0.100667
     18 H01B       -2.3070   -0.8850   -1.3480 hc        1 040      0.100667
     19 H06         0.8460   -0.8530    2.0030 hc        1 040      0.132000
     20 H06A        0.7840    0.7430    2.0490 hc        1 040      0.132000
     21 H12         2.1170   -0.0590    0.1910 ha        1 040      0.133000
     22 H13         3.2850   -0.0170   -1.8610 ha        1 040      0.119500
     23 H14         2.0930   -0.0680   -3.8990 ha        1 040      0.119500
     24 H15        -0.2680   -0.1150   -3.8860 ha        1 040      0.123000
@<TRIPOS>BOND
     1    1    2 1   
     2    1   16 1   
     3    1   17 1   
     4    1   18 1   
     5    2    3 1   
     6    2   15 1   
     7    3    4 1   
     8    3   12 1   
     9    4    5 1   
    10    4    6 1   
    11    6    7 1   
    12    6   19 1   
    13    6   20 1   
    14    7    8 1   
    15    7   11 1   
    16    8    9 1   
    17    8   10 1   
    18   12   21 1   
    19   13   14 1   
    20   13   22 1   
    21   14   23 1   
    22   15   24 1   
@<TRIPOS>SUBSTRUCTURE
     1 040         1 TEMP              0 ****  ****    0 ROOT
