@<TRIPOS>MOLECULE
040
   24    24     1     0     0
SMALL
bcc


@<TRIPOS>ATOM
      1 C01         1.9660    2.1460    0.1250 c3        1 040     -0.080800
      2 C02         2.3320    0.7120    0.0800 ca        1 040     -0.016300
      3 C03         1.5110   -0.2090   -0.5930 ca        1 040     -0.145600
      4 C04         0.2790    0.2420   -1.2960 c         1 040      0.599700
      5 O05         0.3400    1.0070   -2.2670 o         1 040     -0.554100
      6 C06        -1.0140   -0.3170   -0.7930 c3        1 040     -0.303400
      7 C07        -1.5990    0.3580    0.4280 c         1 040      0.484100
      8 C08        -2.8270   -0.4000    0.9740 c         1 040      0.859600
      9 O09        -2.5870   -1.4470    1.6300 o         1 040     -0.803300
     10 O10        -3.9600    0.0610    0.6850 o         1 040     -0.803300
     11 O11        -1.1260    1.3910    0.9100 o         1 040     -0.584100
     12 C12         1.8500   -1.5660   -0.6080 ca        1 040     -0.096000
     13 C13         3.0060   -2.0100    0.0310 ca        1 040     -0.149000
     14 C14         3.8240   -1.1000    0.6970 ca        1 040     -0.124000
     15 C15         3.4870    0.2520    0.7240 ca        1 040     -0.147000
     16 H01         1.8710    2.5510   -0.9140 hc        1 040      0.061367
     17 H01A        0.9710    2.2650    0.6330 hc        1 040      0.061367
     18 H01B        2.7290    2.7460    0.6780 hc        1 040      0.061367
     19 H06        -1.7930   -0.2460   -1.6010 hc        1 040      0.092700
     20 H06A       -0.8810   -1.4010   -0.5230 hc        1 040      0.092700
     21 H12         1.1950   -2.2860   -1.1210 ha        1 040      0.133000
     22 H13         3.2640   -3.0780    0.0170 ha        1 040      0.122000
     23 H14         4.7330   -1.4480    1.2080 ha        1 040      0.117000
     24 H15         4.1290    0.9660    1.2600 ha        1 040      0.123000
@<TRIPOS>BOND
     1    1    2 1   
     2    1   16 1   
     3    1   17 1   
     4    1   18 1   
     5    2    3 ar  
     6    2   15 ar  
     7    3    4 1   
     8    3   12 ar  
     9    4    5 2   
    10    4    6 1   
    11    6    7 1   
    12    6   19 1   
    13    6   20 1   
    14    7    8 1   
    15    7   11 2   
    16    8    9 1   
    17    8   10 1   
    18   12   13 ar  
    19   12   21 1   
    20   13   14 ar  
    21   13   22 1   
    22   14   15 ar  
    23   14   23 1   
    24   15   24 1   
@<TRIPOS>SUBSTRUCTURE
     1 040         1 TEMP              0 ****  ****    0 ROOT
