@<TRIPOS>MOLECULE
040
   24    24     1     0     0
SMALL
bcc


@<TRIPOS>ATOM
      1 C01         0.0500    0.0770    0.4100 c3        1 040     -0.080800
      2 C02         1.5250    0.0140    0.3050 ca        1 040     -0.016300
      3 C03         2.2840   -0.5950    1.3190 ca        1 040     -0.145600
      4 C04         1.6200   -1.2140    2.4980 c         1 040      0.599700
      5 O05         0.8710   -2.1910    2.3720 o         1 040     -0.554100
      6 C06         1.9470   -0.6200    3.8320 c3        1 040     -0.303400
      7 C07         1.1860    0.6350    4.2050 c         1 040      0.484100
      8 C08         1.7210    1.2690    5.5060 c         1 040      0.859600
      9 O09         2.7960    1.9150    5.4090 o         1 040     -0.803800
     10 O10         1.0690    1.0530    6.5580 o         1 040     -0.803800
     11 O11         0.2560    1.0760    3.5260 o         1 040     -0.584100
     12 C12         3.6790   -0.6250    1.2250 ca        1 040     -0.096000
     13 C13         4.3230   -0.0660    0.1240 ca        1 040     -0.149000
     14 C14         3.5740    0.5380   -0.8850 ca        1 040     -0.124000
     15 C15         2.1850    0.5800   -0.7930 ca        1 040     -0.147000
     16 H01        -0.2380    0.6510    1.3320 hc        1 040      0.061367
     17 H01A       -0.3720   -0.9560    0.5050 hc        1 040      0.061367
     18 H01B       -0.4030    0.5720   -0.4820 hc        1 040      0.061367
     19 H06         3.0380   -0.3530    3.8720 hc        1 040      0.092700
     20 H06A        1.7360   -1.3730    4.6400 hc        1 040      0.092700
     21 H12         4.2700   -1.0890    2.0300 ha        1 040      0.133000
     22 H13         5.4200   -0.0910    0.0580 ha        1 040      0.122000
     23 H14         4.0800    0.9870   -1.7520 ha        1 040      0.117000
     24 H15         1.5980    1.0660   -1.5850 ha        1 040      0.123000
@<TRIPOS>BOND
     1    1    2 1   
     2    1   16 1   
     3    1   17 1   
     4    1   18 1   
     5    2    3 ar  
     6    2   15 ar  
     7    3    4 1   
     8    3   12 ar  
     9    4    5 2   
    10    4    6 1   
    11    6    7 1   
    12    6   19 1   
    13    6   20 1   
    14    7    8 1   
    15    7   11 2   
    16    8    9 1   
    17    8   10 1   
    18   12   13 ar  
    19   12   21 1   
    20   13   14 ar  
    21   13   22 1   
    22   14   15 ar  
    23   14   23 1   
    24   15   24 1   
@<TRIPOS>SUBSTRUCTURE
     1 040         1 TEMP              0 ****  ****    0 ROOT
