@<TRIPOS>MOLECULE
040
   24    24     1     0     0
SMALL
bcc


@<TRIPOS>ATOM
      1 C01         0.0350    0.0600    0.4300 c3        1 040     -0.080800
      2 C02         1.5110    0.0130    0.3100 ca        1 040     -0.016300
      3 C03         2.2860   -0.5910    1.3150 ca        1 040     -0.145600
      4 C04         1.6400   -1.2190    2.4990 c         1 040      0.599700
      5 O05         0.9000   -2.2040    2.3780 o         1 040     -0.554100
      6 C06         1.9740   -0.6240    3.8310 c3        1 040     -0.303400
      7 C07         1.2030    0.6210    4.2140 c         1 040      0.484100
      8 C08         1.7430    1.2570    5.5120 c         1 040      0.859600
      9 O09         2.8080    1.9190    5.4050 o         1 040     -0.803800
     10 O10         1.1060    1.0280    6.5710 o         1 040     -0.803800
     11 O11         0.2610    1.0530    3.5460 o         1 040     -0.584100
     12 C12         3.6800   -0.6070    1.2070 ca        1 040     -0.096000
     13 C13         4.3080   -0.0380    0.1000 ca        1 040     -0.149000
     14 C14         3.5420    0.5590   -0.9000 ca        1 040     -0.124000
     15 C15         2.1540    0.5870   -0.7930 ca        1 040     -0.147000
     16 H01        -0.4310    0.5530   -0.4560 hc        1 040      0.061367
     17 H01A       -0.2490    0.6290    1.3560 hc        1 040      0.061367
     18 H01B       -0.3750   -0.9770    0.5260 hc        1 040      0.061367
     19 H06         3.0630   -0.3450    3.8600 hc        1 040      0.092700
     20 H06A        1.7800   -1.3820    4.6390 hc        1 040      0.092700
     21 H12         4.2840   -1.0660    2.0040 ha        1 040      0.133000
     22 H13         5.4040   -0.0530    0.0240 ha        1 040      0.122000
     23 H14         4.0350    1.0160   -1.7700 ha        1 040      0.117000
     24 H15         1.5540    1.0700   -1.5790 ha        1 040      0.123000
@<TRIPOS>BOND
     1    1    2 1   
     2    1   16 1   
     3    1   17 1   
     4    1   18 1   
     5    2    3 ar  
     6    2   15 ar  
     7    3    4 1   
     8    3   12 ar  
     9    4    5 2   
    10    4    6 1   
    11    6    7 1   
    12    6   19 1   
    13    6   20 1   
    14    7    8 1   
    15    7   11 2   
    16    8    9 1   
    17    8   10 1   
    18   12   13 ar  
    19   12   21 1   
    20   13   14 ar  
    21   13   22 1   
    22   14   15 ar  
    23   14   23 1   
    24   15   24 1   
@<TRIPOS>SUBSTRUCTURE
     1 040         1 TEMP              0 ****  ****    0 ROOT
