@<TRIPOS>MOLECULE
040
   24    24     1     0     0
SMALL
bcc


@<TRIPOS>ATOM
      1 C01         0.0210    0.0740    0.4500 c3        1 040     -0.080800
      2 C02         1.4950    0.0560    0.3140 ca        1 040     -0.016300
      3 C03         2.2910   -0.5680    1.2910 ca        1 040     -0.145600
      4 C04         1.6670   -1.2470    2.4590 c         1 040      0.599700
      5 O05         0.9430   -2.2390    2.3100 o         1 040     -0.554100
      6 C06         2.0050   -0.6930    3.8070 c3        1 040     -0.303400
      7 C07         1.2200    0.5260    4.2400 c         1 040      0.484100
      8 C08         1.7630    1.1270    5.5530 c         1 040      0.859600
      9 O09         2.8210    1.8030    5.4580 o         1 040     -0.803300
     10 O10         1.1370    0.8590    6.6080 o         1 040     -0.803300
     11 O11         0.2640    0.9670    3.5950 o         1 040     -0.584100
     12 C12         3.6830   -0.5560    1.1690 ca        1 040     -0.096000
     13 C13         4.2900    0.0610    0.0770 ca        1 040     -0.149000
     14 C14         3.5050    0.6790   -0.8950 ca        1 040     -0.124000
     15 C15         2.1180    0.6790   -0.7740 ca        1 040     -0.147000
     16 H01        -0.2640    0.6070    1.3970 hc        1 040      0.061367
     17 H01A       -0.3710   -0.9720    0.5150 hc        1 040      0.061367
     18 H01B       -0.4630    0.5890   -0.4140 hc        1 040      0.061367
     19 H06         3.0900   -0.3990    3.8360 hc        1 040      0.092700
     20 H06A        1.8300   -1.4800    4.5900 hc        1 040      0.092700
     21 H12         4.3030   -1.0320    1.9440 ha        1 040      0.133000
     22 H13         5.3860    0.0680   -0.0110 ha        1 040      0.122000
     23 H14         3.9810    1.1730   -1.7540 ha        1 040      0.117000
     24 H15         1.5020    1.1780   -1.5370 ha        1 040      0.123000
@<TRIPOS>BOND
     1    1    2 1   
     2    1   16 1   
     3    1   17 1   
     4    1   18 1   
     5    2    3 ar  
     6    2   15 ar  
     7    3    4 1   
     8    3   12 ar  
     9    4    5 2   
    10    4    6 1   
    11    6    7 1   
    12    6   19 1   
    13    6   20 1   
    14    7    8 1   
    15    7   11 2   
    16    8    9 1   
    17    8   10 1   
    18   12   13 ar  
    19   12   21 1   
    20   13   14 ar  
    21   13   22 1   
    22   14   15 ar  
    23   14   23 1   
    24   15   24 1   
@<TRIPOS>SUBSTRUCTURE
     1 040         1 TEMP              0 ****  ****    0 ROOT
