@<TRIPOS>MOLECULE
041
   30    23     1     0     0
SMALL
bcc


@<TRIPOS>ATOM
      1 C1         -3.2570   -0.1160   -2.0540 c1        1 041     -0.132000
      2 C2         -1.8720   -0.1560   -2.0110 c1        1 041      0.015000
      3 C3         -1.2010   -0.0130   -0.7830 c1        1 041     -0.038000
      4 C4         -1.9150    0.1650    0.3690 c1        1 041     -0.040000
      5 C5         -3.3210    0.2050    0.3250 c1        1 041     -0.160000
      6 C6         -3.9810    0.0640   -0.8860 c1        1 041      0.071000
      7 O9          0.1230   -0.0250   -0.4580 o         1 041     -0.129000
      8 C10         0.2280    0.1440    0.8930 c2        1 041      0.099000
      9 N11        -1.0300    0.2620    1.4020 n1        1 041     -0.136000
     10 C12         1.5020    0.1430    1.4390 c1        1 041     -0.052000
     11 C13         2.1560    1.3410    1.6750 c1        1 041     -0.130500
     12 C14         3.4410    1.3390    2.1950 c1        1 041     -0.130500
     13 C15         4.0720    0.1380    2.4790 c1        1 041      0.072000
     14 C16         3.4170   -1.0610    2.2430 c1        1 041      0.059000
     15 C17         2.1320   -1.0590    1.7230 c1        1 041     -0.097000
     16 O21        -5.3510   -0.2150   -1.0470 oh        1 041     -0.251000
     17 F22         4.0230   -2.2210    2.5270 f         1 041     -0.085000
     18 O23         5.3860    0.1350    2.9820 oh        1 041     -0.229000
     19 C24        -1.1440   -0.8650   -3.1320 c2        1 041     -0.128000
     20 C25        -0.6790   -0.1630   -4.1850 c1        1 041     -0.193000
     21 H1         -3.7220   -0.2150   -2.9060 ha        1 041      0.159000
     22 H5         -3.8310    0.3320    1.1470 ha        1 041      0.156000
     23 H13         1.7120    2.1870    1.4750 ha        1 041      0.155000
     24 H14         3.9020    2.1840    2.3610 ha        1 041      0.155000
     25 H17         1.6710   -1.9030    1.5570 ha        1 041      0.171000
     26 H21        -5.8240    0.5230   -0.8970 ho        1 041      0.221000
     27 H23         5.3930    0.4990    3.7930 ho        1 041      0.226000
     28 H24        -1.0110   -1.8310   -3.0930 ha        1 041      0.137000
     29 H251       -0.8120    0.8050   -4.2240 DU        1 041      0.116000
     30 H252       -0.2090   -0.6210   -4.9090 ha        1 041      0.119000
@<TRIPOS>BOND
     1    1    6 1   
     2    1   21 1   
     3    2    3 1   
     4    2   19 1   
     5    4    5 1   
     6    5   22 1   
     7    6   16 1   
     8    7    8 1   
     9    8    9 1   
    10    8   10 1   
    11   10   15 1   
    12   11   12 1   
    13   11   23 1   
    14   12   24 1   
    15   13   14 1   
    16   13   18 1   
    17   14   17 1   
    18   15   25 1   
    19   16   26 1   
    20   18   27 1   
    21   19   20 1   
    22   19   28 1   
    23   20   30 1   
@<TRIPOS>SUBSTRUCTURE
     1 041         1 TEMP              0 ****  ****    0 ROOT
