@<TRIPOS>MOLECULE
041
   30    32     1     0     0
SMALL
bcc


@<TRIPOS>ATOM
      1 C1          0.0190   -0.0980   -0.0310 ca        1 041     -0.132000
      2 C2          1.4170   -0.0480   -0.0010 ca        1 041      0.003200
      3 C3          1.9920   -0.0350    1.2720 ca        1 041      0.007100
      4 C4          1.2360   -0.0700    2.4920 ca        1 041      0.099400
      5 C5         -0.1590   -0.1200    2.4370 ca        1 041     -0.160000
      6 C6         -0.7360   -0.1330    1.1620 ca        1 041      0.116100
      7 O9          3.3460    0.0110    1.6090 os        1 041     -0.307700
      8 C10         3.3530    0.0020    3.0350 cc        1 041      0.604200
      9 N11         2.1370   -0.0450    3.5790 nd        1 041     -0.563100
     10 C12         4.6630    0.0460    3.6620 ca        1 041     -0.135900
     11 C13         4.7660    0.0400    5.0600 ca        1 041     -0.055000
     12 C14         6.0170    0.0810    5.6680 ca        1 041     -0.206000
     13 C15         7.1770    0.1290    4.8850 ca        1 041      0.117100
     14 C16         7.0810    0.1350    3.4690 ca        1 041      0.093900
     15 C17         5.8160    0.0930    2.8670 ca        1 041     -0.097000
     16 O21        -2.1020   -0.1810    0.9840 oh        1 041     -0.497100
     17 F22         8.1980    0.1800    2.7090 f         1 041     -0.119900
     18 O23         8.4410    0.1710    5.4150 oh        1 041     -0.475100
     19 C24         2.2480   -0.0100   -1.1900 ce        1 041     -0.116200
     20 C25         1.8020   -0.0200   -2.4480 c2        1 041     -0.193000
     21 H1         -0.5190   -0.1110   -0.9900 ha        1 041      0.159000
     22 H5         -0.7670   -0.1480    3.3500 ha        1 041      0.156000
     23 H13         3.8580    0.0030    5.6840 ha        1 041      0.164000
     24 H14         6.0980    0.0760    6.7650 ha        1 041      0.146000
     25 H17         5.7380    0.0980    1.7680 ha        1 041      0.171000
     26 H21        -2.5170   -0.2020    1.8590 ho        1 041      0.422000
     27 H23         8.3620    0.1610    6.3810 ho        1 041      0.427000
     28 H24         3.3330    0.0290   -0.9810 ha        1 041      0.137000
     29 H251        0.7390   -0.0580   -2.7160 ha        1 041      0.117500
     30 H252        2.4940    0.0110   -3.3010 ha        1 041      0.117500
@<TRIPOS>BOND
     1    1    2 ar  
     2    1    6 ar  
     3    1   21 1   
     4    2    3 ar  
     5    2   19 1   
     6    3    4 ar  
     7    3    7 1   
     8    4    5 ar  
     9    4    9 1   
    10    5    6 ar  
    11    5   22 1   
    12    6   16 1   
    13    7    8 1   
    14    8    9 2   
    15    8   10 1   
    16   10   11 ar  
    17   10   15 ar  
    18   11   12 ar  
    19   11   23 1   
    20   12   13 ar  
    21   12   24 1   
    22   13   14 ar  
    23   13   18 1   
    24   14   15 ar  
    25   14   17 1   
    26   15   25 1   
    27   16   26 1   
    28   18   27 1   
    29   19   20 2   
    30   19   28 1   
    31   20   29 1   
    32   20   30 1   
@<TRIPOS>SUBSTRUCTURE
     1 041         1 TEMP              0 ****  ****    0 ROOT
