@<TRIPOS>MOLECULE
041
   30    32     1     0     0
SMALL
bcc


@<TRIPOS>ATOM
      1 C1          0.3440    0.0440    4.1810 ca        1 041     -0.132000
      2 C2          1.0160    0.0400    2.9540 ca        1 041      0.003200
      3 C3          0.1990    0.0510    1.8210 ca        1 041      0.007100
      4 C4         -1.2360    0.0650    1.8690 ca        1 041      0.100400
      5 C5         -1.8840    0.0680    3.1060 ca        1 041     -0.160000
      6 C6         -1.0660    0.0580    4.2420 ca        1 041      0.116100
      7 O9          0.5820    0.0500    0.4790 os        1 041     -0.308700
      8 C10        -0.6510    0.0640   -0.2380 cc        1 041      0.604200
      9 N11        -1.7290    0.0730    0.5460 nd        1 041     -0.561100
     10 C12        -0.5410    0.0670   -1.6870 ca        1 041     -0.138900
     11 C13        -1.7030    0.0800   -2.4740 ca        1 041     -0.058000
     12 C14        -1.6150    0.0830   -3.8610 ca        1 041     -0.152000
     13 C15        -0.3550    0.0710   -4.4780 ca        1 041      0.124100
     14 C16         0.8210    0.0580   -3.6870 ca        1 041      0.025900
     15 C17         0.7230    0.0550   -2.2900 ca        1 041     -0.082000
     16 O21        -1.5940    0.0600    5.5160 oh        1 041     -0.497100
     17 F22         2.0340    0.0470   -4.2970 f         1 041     -0.140900
     18 O23        -0.3240    0.0740   -5.8480 oh        1 041     -0.482100
     19 C24         2.4610    0.0260    2.8260 ce        1 041     -0.116200
     20 C25         3.3300    0.0100    3.8390 c2        1 041     -0.194000
     21 H1          0.9070    0.0360    5.1270 ha        1 041      0.159000
     22 H5         -2.9790    0.0790    3.1790 ha        1 041      0.156000
     23 H13        -2.6960    0.0890   -1.9940 ha        1 041      0.166000
     24 H14        -2.5180    0.0930   -4.4890 ha        1 041      0.164000
     25 H17         1.6390    0.0440   -1.6770 ha        1 041      0.170000
     26 H21        -2.5590    0.0700    5.4400 ho        1 041      0.422000
     27 H23         0.6050    0.0660   -6.1300 ho        1 041      0.436000
     28 H24         2.8220    0.0290    1.7810 ha        1 041      0.136000
     29 H251        4.4140   -0.0000    3.6650 ha        1 041      0.117500
     30 H252        3.0310    0.0050    4.8960 ha        1 041      0.117500
@<TRIPOS>BOND
     1    1    2 ar  
     2    1    6 ar  
     3    1   21 1   
     4    2    3 ar  
     5    2   19 1   
     6    3    4 ar  
     7    3    7 1   
     8    4    5 ar  
     9    4    9 1   
    10    5    6 ar  
    11    5   22 1   
    12    6   16 1   
    13    7    8 1   
    14    8    9 2   
    15    8   10 1   
    16   10   11 ar  
    17   10   15 ar  
    18   11   12 ar  
    19   11   23 1   
    20   12   13 ar  
    21   12   24 1   
    22   13   14 ar  
    23   13   18 1   
    24   14   15 ar  
    25   14   17 1   
    26   15   25 1   
    27   16   26 1   
    28   18   27 1   
    29   19   20 2   
    30   19   28 1   
    31   20   29 1   
    32   20   30 1   
@<TRIPOS>SUBSTRUCTURE
     1 041         1 TEMP              0 ****  ****    0 ROOT
