@<TRIPOS>MOLECULE
042
   53    50     1     0     0
SMALL
bcc


@<TRIPOS>ATOM
      1 C10        -0.1500    0.1510   -2.1480 c2        1 042     -0.235500
      2 C11         1.0210    0.0550   -1.5290 c2        1 042     -0.235500
      3 C3         -3.6010   -0.7420    2.5990 c3        1 042     -0.138000
      4 C2         -2.7120    1.5010    2.3070 c1        1 042      0.182000
      5 O1         -3.3170    0.6210    3.0080 os        1 042     -0.089000
      6 O4         -2.9050   -2.8950    3.4860 o         1 042     -0.146000
      7 N1         -1.2970   -1.2330    3.6100 nz        1 042     -0.138000
      8 C5          1.5950   -1.8470    7.4070 c2        1 042     -0.446000
      9 C6          0.7820   -0.7900    6.8720 c2        1 042      0.287000
     10 O5          0.1610   -0.9040    5.7920 o         1 042     -0.492000
     11 C12         2.2890   -1.8070    8.5790 c2        1 042      0.205000
     12 O8          2.3470   -0.7700    9.4470 oh        1 042     -0.234000
     13 C13         3.1010   -2.9620    9.0550 c3        1 042     -0.211000
     14 N2         -0.9650    3.3760   11.2750 n8        1 042     -0.326000
     15 C7          0.2820    3.5510   10.5950 c3        1 042     -0.036000
     16 C8          0.8270    2.3240    9.8630 c2        1 042      0.262000
     17 O7          2.1800    2.1890    9.9970 os        1 042     -0.261000
     18 C14         1.4970    4.0020   11.4560 c3        1 042     -0.127000
     19 C16         2.7040    3.2520   10.8480 c3        1 042      0.028000
     20 C15         1.3290    3.7760   12.9370 c3        1 042     -0.214000
     21 C17         3.6580    2.6150   11.8280 c3        1 042     -0.223000
     22 O6          0.2740    1.4560    9.1830 o         1 042     -0.370000
     23 C9         -2.1260    1.2170    0.9600 c2        1 042      0.198000
     24 O2         -2.2530    1.8180   -0.0980 o         1 042     -0.235000
     25 O3         -1.2240    0.1810    0.9980 oh        1 042     -0.419000
     26 H101       -0.7180    0.1270    0.1590 ho        1 042      0.290000
     27 H102       -0.7790    1.0530   -2.0970 ha        1 042      0.120500
     28 H111       -0.5550   -0.6550   -2.7760 ha        1 042      0.120500
     29 H112        1.4460    0.8750   -0.9320 ha        1 042      0.120500
     30 H113        1.6610   -0.8350   -1.6030 ha        1 042      0.120500
     31 H3         -3.5320   -0.8550    1.4820 h1        1 042      0.183000
     32 H2         -4.6500   -0.9420    2.9610 h1        1 042      0.183000
     33 HN1        -1.3590   -0.4560    4.2910 hn        1 042      0.288000
     34 H5         -0.8000   -0.9010    2.7740 hn        1 042      0.288000
     35 H12         1.6530   -2.7720    6.8090 ha        1 042      0.154000
     36 HO8         1.8190   -0.0120    9.1340 ho        1 042      0.260000
     37 H131        3.8740   -3.2170    8.2890 hc        1 042      0.117667
     38 H132        2.4360   -3.8480    9.2060 hc        1 042      0.117667
     39 H133        3.6100   -2.7210   10.0210 hc        1 042      0.117667
     40 HN2        -1.6600    3.0070   10.6570 hn        1 042      0.170000
     41 H7         -0.8790    2.7970   12.0870 hn        1 042      0.170000
     42 H14         0.1110    4.3350    9.7930 h1        1 042      0.136000
     43 H161        1.6460    5.1040   11.2890 hc        1 042      0.122000
     44 H162        3.2640    3.9360   10.1500 h1        1 042      0.109000
     45 H151        2.2560    4.0920   13.4780 hc        1 042      0.091333
     46 H152        0.4790    4.3870   13.3300 hc        1 042      0.091333
     47 H153        1.1370    2.7010   13.1700 hc        1 042      0.091333
     48 H171        3.1300    1.8970   12.5000 hc        1 042      0.098333
     49 H172        4.4470    2.0540   11.2700 hc        1 042      0.098333
     50 H173        4.1440    3.4080   12.4450 hc        1 042      0.098333
     51 H121       -0.7390   -1.9740    4.0700 hn        1 042      0.288000
     52 H22         0.7020    0.1650    7.4450 h4        1 042      0.123000
     53 C4         -2.6590   -1.7230    3.2500 c2        1 042      0.245000
@<TRIPOS>BOND
     1    1    2 1   
     2    1   27 1   
     3    1   28 1   
     4    2   29 1   
     5    2   30 1   
     6    3    5 1   
     7    3   31 1   
     8    3   32 1   
     9    3   53 1   
    10    4    5 1   
    11    4   23 1   
    12    6   53 1   
    13    7   33 1   
    14    7   34 1   
    15    7   51 1   
    16    7   53 1   
    17    8    9 1   
    18    8   11 1   
    19    8   35 1   
    20    9   10 1   
    21    9   52 1   
    22   11   12 1   
    23   11   13 1   
    24   12   36 1   
    25   13   37 1   
    26   13   38 1   
    27   13   39 1   
    28   14   15 1   
    29   14   40 1   
    30   14   41 1   
    31   15   16 1   
    32   15   18 1   
    33   15   42 1   
    34   16   17 1   
    35   16   22 1   
    36   17   19 1   
    37   18   19 1   
    38   18   20 1   
    39   18   43 1   
    40   19   21 1   
    41   19   44 1   
    42   20   45 1   
    43   20   46 1   
    44   20   47 1   
    45   21   48 1   
    46   21   49 1   
    47   21   50 1   
    48   23   24 1   
    49   23   25 1   
    50   25   26 1   
@<TRIPOS>SUBSTRUCTURE
     1 042         1 TEMP              0 ****  ****    0 ROOT
