@<TRIPOS>MOLECULE
042
   53    48     1     0     0
SMALL
bcc


@<TRIPOS>ATOM
      1 C10        -2.9650   -0.8980   -1.8690 c2        1 042     -0.232500
      2 C11        -2.3180    0.2270   -2.1460 c2        1 042     -0.232500
      3 C3         -0.2470    1.0960    3.9120 cu        1 042     -0.050000
      4 C2         -0.8160    1.2940    2.7590 cu        1 042      0.055000
      5 O1         -0.6980    2.4550    3.6140 os        1 042     -0.196000
      6 O4          0.7110    1.2680    6.0560 o         1 042     -0.455000
      7 N1          0.7020   -0.7890    5.0690 n         1 042     -0.393000
      8 C5         -0.2870   -1.0690    8.4600 c2        1 042     -0.332000
      9 C6          4.1080    1.8550    7.5100 c2        1 042      0.221000
     10 O5          4.5480    2.6070    6.6610 o         1 042     -0.182000
     11 C12         0.9650   -1.4480    8.7600 c2        1 042      0.049000
     12 O8          1.9860   -1.0090    7.9260 oh        1 042     -0.339000
     13 C13         1.3670   -2.2710    9.9250 c3        1 042     -0.231000
     14 N2          2.6450    1.9710    7.8420 n4        1 042     -0.104000
     15 C7          2.4600    2.3080    9.2870 c3        1 042     -0.192000
     16 C8          2.7760    1.0240   10.1920 c2        1 042      0.368000
     17 O7          2.1650    0.9780   11.2810 o         1 042     -0.514500
     18 C14         1.0870    2.8620    9.5320 c2        1 042     -0.139000
     19 C16         0.5760    2.8780   11.8120 c2        1 042      0.171000
     20 C15         0.0020    2.0790    9.7480 c2        1 042     -0.134000
     21 C17        -0.3540    3.9890   11.9250 c3        1 042     -0.320000
     22 O6          3.5890    0.2010    9.7170 o         1 042     -0.514500
     23 C9         -1.3650    1.0970    1.4440 c2        1 042      0.391000
     24 O2         -1.8890    1.9310    0.7080 o         1 042     -0.281000
     25 O3         -1.2640   -0.1920    1.0160 oh        1 042     -0.305000
     26 H101       -1.6440   -0.2670    0.1150 ho        1 042      0.277000
     27 H102       -3.7450   -0.9610   -1.0980 ha        1 042      0.118500
     28 H111       -2.7800   -1.8390   -2.4070 ha        1 042      0.118500
     29 H112       -2.5130    1.1730   -1.6170 ha        1 042      0.118500
     30 H113       -1.5540    0.2920   -2.9330 ha        1 042      0.118500
     31 H3         -0.2930   -2.0320    2.3800 ha        1 042      0.002000
     32 H2         -0.4580   -2.2830    1.7730 ha        1 042      0.002000
     33 HN1         0.4470   -1.3720    4.3080 hn        1 042      0.258000
     34 H5          1.1050   -1.2000    5.8830 hn        1 042      0.258000
     35 H12        -1.1400   -1.4150    9.0520 ha        1 042      0.130500
     36 HO8         2.8340   -1.2480    8.3420 ho        1 042      0.259000
     37 H131        2.0430   -1.6670   10.5890 hc        1 042      0.114667
     38 H132        1.9230   -3.1800    9.5850 hc        1 042      0.114667
     39 H133        0.4740   -2.5950   10.5110 hc        1 042      0.114667
     40 HN2         2.1750    2.6560    7.2360 hn        1 042      0.273500
     41 H7          2.1970    1.0450    7.6630 hn        1 042      0.273500
     42 H14         3.2300    3.0870    9.5620 hx        1 042      0.144000
     43 H161        0.9900    3.9580    9.4110 ha        1 042      0.152000
     44 H162        1.6710    3.0580   11.8370 ha        1 042      0.194500
     45 H151        0.2690    1.8450   12.0860 ha        1 042      0.194500
     46 H152       -1.0220    2.4890    9.7780 ha        1 042      0.174000
     47 H153        0.0810    0.9720    9.7930 ha        1 042      0.174000
     48 H171       -1.4130    3.7200   11.6770 hc        1 042      0.158333
     49 H172       -0.3370    4.2970   13.0180 hc        1 042      0.158333
     50 H173       -0.0540    4.8900   11.3310 hc        1 042      0.158333
     51 H121       -0.5150   -0.4360    7.5940 ha        1 042      0.130500
     52 H22         4.6110    1.0590    8.1200 hx        1 042      0.270000
     53 C4          0.4100    0.5410    5.0760 c2        1 042      0.433000
@<TRIPOS>BOND
     1    1    2 1   
     2    1   27 1   
     3    1   28 1   
     4    2   29 1   
     5    2   30 1   
     6    3    4 1   
     7    3    5 1   
     8    3   53 1   
     9    4    5 1   
    10    4   23 1   
    11    6   53 1   
    12    7   33 1   
    13    7   34 1   
    14    7   53 1   
    15    8   11 1   
    16    8   35 1   
    17    8   51 1   
    18    9   10 1   
    19    9   14 1   
    20    9   52 1   
    21   11   12 1   
    22   11   13 1   
    23   12   36 1   
    24   13   37 1   
    25   13   38 1   
    26   13   39 1   
    27   14   15 1   
    28   14   40 1   
    29   14   41 1   
    30   15   16 1   
    31   15   18 1   
    32   15   42 1   
    33   16   17 1   
    34   16   22 1   
    35   18   20 1   
    36   18   43 1   
    37   19   21 1   
    38   19   44 1   
    39   19   45 1   
    40   20   46 1   
    41   20   47 1   
    42   21   48 1   
    43   21   49 1   
    44   21   50 1   
    45   23   24 1   
    46   23   25 1   
    47   25   26 1   
    48   31   32 1   
@<TRIPOS>SUBSTRUCTURE
     1 042         1 TEMP              0 ****  ****    0 ROOT
