@<TRIPOS>MOLECULE
042
   53    46     1     0     0
SMALL
bcc


@<TRIPOS>ATOM
      1 C10         1.7300   -2.2070    0.0470 c3        1 042     -0.305000
      2 C11         1.9000   -1.8590    1.4270 c1        1 042     -0.100000
      3 C3         -2.7750    0.5430    3.1840 cx        1 042      0.061000
      4 C2         -2.6020    1.9730    3.2920 cu        1 042     -0.306000
      5 O1         -3.4770    1.3250    4.1830 os        1 042     -0.147000
      6 N1         -0.9900    0.0610    4.9280 n4        1 042     -0.110000
      7 C5         -0.1700   -2.1960    8.4390 c2        1 042     -0.352000
      8 C6         -1.4480   -1.4690    8.3950 c2        1 042      0.371000
      9 O5         -1.6810   -0.6120    7.4920 o         1 042     -0.507000
     10 C12         0.9170   -1.7760    7.7500 c2        1 042      0.149000
     11 O8          0.9450   -0.6380    6.9830 oh        1 042     -0.298000
     12 C13         2.2020   -2.5190    7.7000 c3        1 042     -0.203000
     13 N2         -2.4070   -1.7320    9.3280 n         1 042     -0.396000
     14 C7          0.6860    4.1500    7.4990 c1        1 042     -0.284000
     15 C8          0.5070    2.7460    7.4130 c2        1 042      0.474000
     16 O7          0.1030    2.0930    6.4410 o         1 042     -0.384000
     17 C14         0.8290    5.3380    7.5400 c1        1 042     -0.017000
     18 C16         4.5680    4.8320    9.7400 c1        1 042     -0.223500
     19 C15         1.4530    2.3810   11.6780 c3        1 042     -0.285000
     20 C17         3.8610    5.0120   10.6870 c1        1 042     -0.223500
     21 O6          0.7960    1.9600    8.4880 oh        1 042     -0.297000
     22 C9         -2.5000    3.1820    2.8090 c1        1 042      0.361000
     23 O2         -2.1920    4.2800    2.4970 o         1 042     -0.062000
     24 O3          0.5570    0.2940    2.6600 oh        1 042     -0.519000
     25 H101        0.9290   -0.5350    2.2650 ho        1 042      0.241000
     26 H102        0.6540   -2.5240   -0.0820 hc        1 042      0.129000
     27 H111        2.3880   -3.0180   -0.3570 hc        1 042      0.129000
     28 H112        1.8640   -1.2850   -0.5850 hc        1 042      0.129000
     29 H113        2.5780   -2.4720    2.0370 ha        1 042      0.066000
     30 H3         -3.4160    0.0660    2.4100 h1        1 042      0.196000
     31 H2          1.1210    0.9890    2.3180 ho        1 042      0.241000
     32 HN1        -0.0960    0.5120    4.6600 hn        1 042      0.288333
     33 H5         -0.1160   -3.1160    9.0390 ha        1 042      0.163000
     34 H12        -0.7730   -0.7390    5.5450 hn        1 042      0.288333
     35 HO8         0.3520    0.0350    7.3770 ho        1 042      0.265000
     36 H131        2.0490   -3.5890    7.9810 hc        1 042      0.112333
     37 H132        2.9280   -2.0540    8.4140 hc        1 042      0.112333
     38 H133        2.6410   -2.4650    6.6720 hc        1 042      0.112333
     39 HN2        -2.2500   -2.3870   10.0520 hn        1 042      0.239500
     40 H7          1.1140    2.4910    9.2380 ho        1 042      0.263000
     41 H14         0.4680    2.8770   11.5360 hc        1 042      0.072000
     42 H161        5.2060    4.6750    8.9060 ha        1 042      0.223000
     43 H162        0.9600    6.3950    7.5870 ha        1 042      0.250000
     44 H151        1.4670    1.4100   11.1350 hc        1 042      0.072000
     45 H152        2.2640    3.0400   11.2940 hc        1 042      0.072000
     46 H153        1.6160    2.1960   12.7630 hc        1 042      0.072000
     47 H171        3.2480    5.1820   11.5390 ha        1 042      0.223000
     48 H172        1.6720    5.2350   13.2930 ha        1 042      0.001000
     49 H173        1.5620    4.6420   12.9850 ha        1 042      0.001000
     50 H121       -1.5470    0.7360    5.4740 hn        1 042      0.288333
     51 H22        -3.2730   -1.2520    9.2930 hn        1 042      0.239500
     52 C4         -1.7050   -0.3720    3.7030 c2        1 042      0.300000
     53 O4         -1.3950   -1.4420    3.1980 o         1 042     -0.185000
@<TRIPOS>BOND
     1    1    2 1   
     2    1   26 1   
     3    1   27 1   
     4    1   28 1   
     5    2   29 1   
     6    3    4 1   
     7    3    5 1   
     8    3   30 1   
     9    3   52 1   
    10    4    5 1   
    11    4   22 1   
    12    6   32 1   
    13    6   34 1   
    14    6   50 1   
    15    6   52 1   
    16    7    8 1   
    17    7   10 1   
    18    7   33 1   
    19    8    9 1   
    20    8   13 1   
    21   10   11 1   
    22   10   12 1   
    23   11   35 1   
    24   12   36 1   
    25   12   37 1   
    26   12   38 1   
    27   13   39 1   
    28   13   51 1   
    29   14   15 1   
    30   14   17 1   
    31   15   16 1   
    32   15   21 1   
    33   17   43 1   
    34   18   20 1   
    35   18   42 1   
    36   19   41 1   
    37   19   44 1   
    38   19   45 1   
    39   19   46 1   
    40   20   47 1   
    41   21   40 1   
    42   22   23 1   
    43   24   25 1   
    44   24   31 1   
    45   48   49 1   
    46   52   53 1   
@<TRIPOS>SUBSTRUCTURE
     1 042         1 TEMP              0 ****  ****    0 ROOT
