@<TRIPOS>MOLECULE
042
   51    51     1     0     0
SMALL
bcc


@<TRIPOS>ATOM
      1 C10        -3.7410    3.8060   -1.2940 c3        1 042      0.139400
      2 C11        -3.4220    5.1440   -0.6720 c3        1 042     -0.101100
      3 C3         -2.9920   -0.8310    0.1310 cx        1 042      0.002100
      4 C2         -2.5140    0.5800    0.0620 cx        1 042      0.019100
      5 O1         -3.2700    0.1040    1.1850 os        1 042     -0.365600
      6 N1         -0.7690   -1.8860    0.2520 n         1 042     -0.559900
      7 C5          0.1870   -2.8550    0.7330 c3        1 042     -0.019300
      8 C6          1.3970   -2.1240    1.3780 c         1 042      0.637100
      9 O5          1.6230   -2.2970    2.5890 o         1 042     -0.600100
     10 C12         0.6930   -3.8390   -0.3530 c3        1 042      0.133100
     11 O8          1.0980   -3.1930   -1.5470 oh        1 042     -0.599800
     12 C13        -0.3520   -4.9030   -0.6350 c3        1 042     -0.129100
     13 N2          2.2000   -1.3600    0.5430 n         1 042     -0.496900
     14 C7          2.5970   -0.0260    0.9830 c3        1 042     -0.047300
     15 C8          1.5200    1.0530    0.6250 c         1 042      0.904600
     16 O7          1.6340    2.1970    1.1310 o         1 042     -0.844300
     17 C14         3.9740    0.3630    0.3980 c3        1 042     -0.038700
     18 C16         4.5570    1.4980    1.2280 c3        1 042     -0.091400
     19 C15         3.8530    0.7400   -1.0620 c3        1 042     -0.091100
     20 C17         5.9630    1.8550    0.8220 c3        1 042     -0.084100
     21 O6          0.5600    0.7280   -0.1480 o         1 042     -0.844300
     22 C9         -3.2390    1.5220   -0.8420 c         1 042      0.653100
     23 O2         -3.8410    1.2700   -1.8890 o         1 042     -0.560000
     24 O3         -3.1730    2.8160   -0.4200 os        1 042     -0.409900
     25 H101       -4.8450    3.6270   -1.3670 h1        1 042      0.044700
     26 H102       -3.2840    3.6990   -2.3120 h1        1 042      0.044700
     27 H111       -3.8930    5.2290    0.3360 hc        1 042      0.047033
     28 H112       -2.3180    5.2620   -0.5510 hc        1 042      0.047033
     29 H113       -3.8110    5.9560   -1.3310 hc        1 042      0.047033
     30 H3         -3.8860   -1.1470   -0.4460 h1        1 042      0.115700
     31 H2         -1.4580    0.8960    0.2780 h1        1 042      0.211700
     32 HN1        -0.4040   -0.9900   -0.0340 hn        1 042      0.375500
     33 H5         -0.2970   -3.4800    1.5450 h1        1 042      0.101700
     34 H12         1.6440   -4.3140    0.0260 h1        1 042      0.078700
     35 HO8         0.3230   -2.7630   -1.9290 ho        1 042      0.407000
     36 H131       -1.3490   -4.4380   -0.8260 hc        1 042      0.044700
     37 H132       -0.0530   -5.5000   -1.5290 hc        1 042      0.044700
     38 H133       -0.4470   -5.5840    0.2440 hc        1 042      0.044700
     39 HN2         1.9010   -1.3530   -0.4170 hn        1 042      0.300500
     40 H7          2.6840   -0.0450    2.1080 h1        1 042      0.076700
     41 H14         4.6680   -0.5210    0.4830 hc        1 042      0.032700
     42 H161        3.8820    2.3930    1.1410 hc        1 042      0.063200
     43 H162        4.5570    1.1910    2.3080 hc        1 042      0.063200
     44 H151        4.8520    1.0100   -1.4810 hc        1 042      0.032367
     45 H152        3.4450   -0.1140   -1.6550 hc        1 042      0.032367
     46 H153        3.1620    1.6110   -1.1790 hc        1 042      0.032367
     47 H171        6.6150    0.9480    0.7950 hc        1 042      0.018033
     48 H172        5.9800    2.3280   -0.1900 hc        1 042      0.018033
     49 H173        6.4010    2.5810    1.5510 hc        1 042      0.018033
     50 C4         -2.1130   -2.0020    0.5050 c         1 042      0.675100
     51 O4         -2.6350   -3.0480    0.9460 o         1 042     -0.623100
@<TRIPOS>BOND
     1    1    2 1   
     2    1   24 1   
     3    1   25 1   
     4    1   26 1   
     5    2   27 1   
     6    2   28 1   
     7    2   29 1   
     8    3    4 1   
     9    3    5 1   
    10    3   30 1   
    11    3   50 1   
    12    4    5 1   
    13    4   22 1   
    14    4   31 1   
    15    6    7 1   
    16    6   32 1   
    17    6   50 1   
    18    7    8 1   
    19    7   10 1   
    20    7   33 1   
    21    8    9 2   
    22    8   13 1   
    23   10   11 1   
    24   10   12 1   
    25   10   34 1   
    26   11   35 1   
    27   12   36 1   
    28   12   37 1   
    29   12   38 1   
    30   13   14 1   
    31   13   39 1   
    32   14   15 1   
    33   14   17 1   
    34   14   40 1   
    35   15   16 1   
    36   15   21 1   
    37   17   18 1   
    38   17   19 1   
    39   17   41 1   
    40   18   20 1   
    41   18   42 1   
    42   18   43 1   
    43   19   44 1   
    44   19   45 1   
    45   19   46 1   
    46   20   47 1   
    47   20   48 1   
    48   20   49 1   
    49   22   23 2   
    50   22   24 1   
    51   50   51 2   
@<TRIPOS>SUBSTRUCTURE
     1 042         1 TEMP              0 ****  ****    0 ROOT
