@<TRIPOS>MOLECULE
042
   51    51     1     0     0
SMALL
bcc


@<TRIPOS>ATOM
      1 C10         5.6360   -1.0710   -1.5900 c3        1 042      0.116400
      2 C11         6.9000   -1.1270   -0.7200 c3        1 042     -0.094100
      3 C3          1.8880   -0.9000   -1.9010 cx        1 042      0.113100
      4 C2          3.2040   -0.7220   -1.3340 cx        1 042      0.097100
      5 O1          2.4350   -1.8950   -1.0230 os        1 042     -0.457600
      6 C4          1.8720   -0.8880   -1.8950 c         1 042      0.650100
      7 O4          2.0490    0.3310   -1.7110 o         1 042     -0.604100
      8 N1          0.5070   -1.5040   -1.6030 n         1 042     -0.508900
      9 C5         -0.6510   -0.6410   -1.3890 c3        1 042     -0.025300
     10 C6         -1.0760   -0.7110    0.0730 c         1 042      0.633100
     11 O5         -0.7460   -1.6650    0.7520 o         1 042     -0.631100
     12 C12        -1.7690   -1.0860   -2.2530 c3        1 042      0.104100
     13 O8         -1.6070   -2.4650   -2.5640 oh        1 042     -0.611800
     14 C13        -1.7670   -0.2670   -3.5650 c3        1 042     -0.085100
     15 N2         -2.0100    0.3120    0.6320 n         1 042     -0.476900
     16 C7         -2.3890    0.2490    2.0440 c3        1 042     -0.070300
     17 C8         -3.5220   -0.7370    2.2180 c         1 042      0.898600
     18 O7         -4.4970   -0.7240    1.4140 o         1 042     -0.830300
     19 C14        -2.8390    1.6100    2.5110 c3        1 042     -0.042700
     20 C16        -1.8590    2.1450    3.5450 c3        1 042     -0.075400
     21 C15        -4.2230    1.4970    3.1380 c3        1 042     -0.100100
     22 C17        -1.7730    3.6670    3.4230 c3        1 042     -0.088100
     23 O6         -3.4640   -1.6100    3.1300 o         1 042     -0.830300
     24 C9          3.2040   -0.7220   -1.3350 c         1 042      0.391100
     25 O2          3.1640   -0.4300   -2.5550 o         1 042     -0.312000
     26 O3          4.4410   -1.2640   -0.7480 os        1 042     -0.402900
     27 H101        5.6760   -1.7880   -2.2780 h1        1 042      0.039200
     28 H102        5.5840   -0.1880   -2.0380 h1        1 042      0.039200
     29 H111        6.8640   -0.4180   -0.0440 hc        1 042      0.046033
     30 H112        6.9550   -2.0030   -0.2760 hc        1 042      0.046033
     31 H113        7.6970   -0.9980   -1.2920 hc        1 042      0.046033
     32 H3          1.7950   -1.1010   -2.8700 h1        1 042      0.112700
     33 H2          3.3390   -0.0490   -0.6450 h1        1 042      0.137700
     34 HN1         0.4020   -2.3990   -1.6260 hn        1 042      0.336500
     35 H5         -0.4060    0.3000   -1.6130 h1        1 042      0.098700
     36 H12        -2.6220   -0.9550   -1.7840 h1        1 042      0.122700
     37 HO8        -2.3230   -2.7570   -2.9860 ho        1 042      0.421000
     38 H131       -1.0310   -0.5650   -4.1380 hc        1 042      0.041033
     39 H132       -2.6290   -0.3990   -4.0380 hc        1 042      0.041033
     40 H133       -1.6550    0.6810   -3.3570 hc        1 042      0.041033
     41 HN2        -2.2800    1.0130    0.1180 hn        1 042      0.294500
     42 H7         -1.6180   -0.0420    2.5750 h1        1 042      0.077700
     43 H14        -2.8760    2.2240    1.7430 hc        1 042      0.046700
     44 H161       -0.9760    1.7570    3.3920 hc        1 042      0.037700
     45 H162       -2.1730    1.9060    4.4500 hc        1 042      0.037700
     46 H151       -4.4560    2.3460    3.5850 hc        1 042      0.039033
     47 H152       -4.2220    0.7720    3.7930 hc        1 042      0.039033
     48 H153       -4.8850    1.3030    2.4370 hc        1 042      0.039033
     49 H171       -1.7330    3.9140    2.4780 hc        1 042      0.021033
     50 H172       -2.5710    4.0740    3.8370 hc        1 042      0.021033
     51 H173       -0.9660    3.9880    3.8810 hc        1 042      0.021033
@<TRIPOS>BOND
     1    1    2 1   
     2    1   26 1   
     3    1   27 1   
     4    1   28 1   
     5    2   29 1   
     6    2   30 1   
     7    2   31 1   
     8    3    4 1   
     9    3    5 1   
    10    3    6 1   
    11    3   32 1   
    12    4    5 1   
    13    4   24 1   
    14    4   33 1   
    15    6    7 2   
    16    6    8 1   
    17    8    9 1   
    18    8   34 1   
    19    9   10 1   
    20    9   12 1   
    21    9   35 1   
    22   10   11 2   
    23   10   15 1   
    24   12   13 1   
    25   12   14 1   
    26   12   36 1   
    27   13   37 1   
    28   14   38 1   
    29   14   39 1   
    30   14   40 1   
    31   15   16 1   
    32   15   41 1   
    33   16   17 1   
    34   16   19 1   
    35   16   42 1   
    36   17   18 1   
    37   17   23 1   
    38   19   20 1   
    39   19   21 1   
    40   19   43 1   
    41   20   22 1   
    42   20   44 1   
    43   20   45 1   
    44   21   46 1   
    45   21   47 1   
    46   21   48 1   
    47   22   49 1   
    48   22   50 1   
    49   22   51 1   
    50   24   25 2   
    51   24   26 1   
@<TRIPOS>SUBSTRUCTURE
     1 042         1 TEMP              0 ****  ****    0 ROOT
