@<TRIPOS>MOLECULE
043
   21    21     1     0     0
SMALL
bcc


@<TRIPOS>ATOM
      1 O01         2.2040    2.2990   -2.2510 o         1 043     -0.804800
      2 C02         2.5330    1.3880   -1.4400 c         1 043      0.858600
      3 O03         2.7790    1.5360   -0.2190 o         1 043     -0.804800
      4 C04         2.5790   -0.0390   -2.0180 c         1 043      0.466100
      5 O05         3.6090   -0.6600   -2.2850 o         1 043     -0.560100
      6 C06         1.2040   -0.6380   -2.2330 c3        1 043     -0.297400
      7 C07         1.0480   -1.4230   -3.5000 c         1 043      0.600700
      8 O08         0.9200   -2.6560   -3.4840 o         1 043     -0.564100
      9 C09         0.9890   -0.6730   -4.7790 ca        1 043     -0.172600
     10 C10         1.2930    0.6910   -4.8540 ca        1 043     -0.065000
     11 C11         1.2160    1.3510   -6.0820 ca        1 043     -0.148000
     12 C12         0.8370    0.6680   -7.2340 ca        1 043     -0.094000
     13 C13         0.5350   -0.6970   -7.1620 ca        1 043     -0.053900
     14 BR14        0.0240   -1.6240   -8.7120 br        1 043     -0.127100
     15 C15         0.6150   -1.3660   -5.9410 ca        1 043     -0.060000
     16 H06         0.4530    0.1980   -2.2290 hc        1 043      0.086200
     17 H06A        0.9920   -1.3060   -1.3550 hc        1 043      0.086200
     18 H10         1.6040    1.2610   -3.9480 ha        1 043      0.220000
     19 H11         1.4610    2.4220   -6.1330 ha        1 043      0.143000
     20 H12         0.7790    1.2010   -8.1950 ha        1 043      0.132000
     21 H15         0.3920   -2.4440   -5.8660 ha        1 043      0.159000
@<TRIPOS>BOND
     1    1    2 1   
     2    2    3 1   
     3    2    4 1   
     4    4    5 2   
     5    4    6 1   
     6    6    7 1   
     7    6   16 1   
     8    6   17 1   
     9    7    8 2   
    10    7    9 1   
    11    9   10 ar  
    12    9   15 ar  
    13   10   11 ar  
    14   10   18 1   
    15   11   12 ar  
    16   11   19 1   
    17   12   13 ar  
    18   12   20 1   
    19   13   14 1   
    20   13   15 ar  
    21   15   21 1   
@<TRIPOS>SUBSTRUCTURE
     1 043         1 TEMP              0 ****  ****    0 ROOT
