@<TRIPOS>MOLECULE
043
   21    18     1     0     0
SMALL
bcc


@<TRIPOS>ATOM
      1 O01        -4.5040   -1.6590    1.6800 o         1 043     -0.539500
      2 C02        -3.7650   -0.6790    1.9590 c1        1 043      0.328000
      3 O03        -3.6580   -0.2910    3.1520 o         1 043     -0.539500
      4 C04        -2.9770    0.0110    0.8660 c1        1 043      0.177000
      5 O05        -3.4310    0.9960    0.3200 o         1 043     -0.321000
      6 C06        -1.6180   -0.5180    0.4650 c3        1 043     -0.276000
      7 C07        -0.7020    0.6420    0.1410 c2        1 043      0.291000
      8 O08        -1.1000    1.7830    0.2630 o         1 043     -0.325000
      9 C09         0.7160    0.3810   -0.3180 c2        1 043     -0.152000
     10 C10         1.7220    0.1910    0.6160 c1        1 043     -0.065000
     11 C11         3.0300    0.0040    0.1980 c1        1 043     -0.121000
     12 C12         3.3320    0.0060   -1.1550 c1        1 043     -0.121000
     13 C13         2.3260    0.1960   -2.0890 c1        1 043     -0.194000
     14 BR14        2.7470    0.2280   -3.9540 br        1 043      0.013000
     15 C15         1.0180    0.3830   -1.6710 c2        1 043     -0.060000
     16 H06        -1.2390   -1.0360    1.2030 hc        1 043      0.125500
     17 H06A       -1.7100   -1.0910   -0.3220 hc        1 043      0.125500
     18 H10         1.5100    0.1890    1.5690 ha        1 043      0.220000
     19 H11         3.7390   -0.1300    0.8550 ha        1 043      0.137500
     20 H12         4.2530   -0.1260   -1.4500 ha        1 043      0.137500
     21 H15         0.3090    0.5170   -2.3290 ha        1 043      0.159000
@<TRIPOS>BOND
     1    1    2 1   
     2    2    3 1   
     3    4    5 1   
     4    4    6 1   
     5    6    7 1   
     6    6   16 1   
     7    6   17 1   
     8    7    8 1   
     9    7    9 1   
    10    9   10 1   
    11    9   15 1   
    12   10   18 1   
    13   11   12 1   
    14   11   19 1   
    15   12   20 1   
    16   13   14 1   
    17   13   15 1   
    18   15   21 1   
@<TRIPOS>SUBSTRUCTURE
     1 043         1 TEMP              0 ****  ****    0 ROOT
