@<TRIPOS>MOLECULE
043
   21    21     1     0     0
SMALL
bcc


@<TRIPOS>ATOM
      1 O01         2.3550    2.2570   -2.2730 o         1 043     -0.804800
      2 C02         2.7730    1.3290   -1.5240 c         1 043      0.858600
      3 O03         3.1290    1.4480   -0.3270 o         1 043     -0.804800
      4 C04         2.7880   -0.0790   -2.1460 c         1 043      0.466100
      5 O05         3.7990   -0.6730   -2.5270 o         1 043     -0.560100
      6 C06         1.4090   -0.6980   -2.2500 c3        1 043     -0.297400
      7 C07         1.1470   -1.4490   -3.5190 c         1 043      0.600700
      8 O08         1.0430   -2.6850   -3.5280 o         1 043     -0.564100
      9 C09         0.9540   -0.6650   -4.7640 ca        1 043     -0.172600
     10 C10         1.2280    0.7060   -4.8260 ca        1 043     -0.065000
     11 C11         1.0240    1.3980   -6.0210 ca        1 043     -0.148000
     12 C12         0.5480    0.7410   -7.1520 ca        1 043     -0.094000
     13 C13         0.2760   -0.6300   -7.0920 ca        1 043     -0.053900
     14 BR14       -0.3660   -1.5220   -8.6140 br        1 043     -0.127100
     15 C15         0.4820   -1.3320   -5.9050 ca        1 043     -0.060000
     16 H06         1.2920   -1.3950   -1.3750 hc        1 043      0.086200
     17 H06A        0.6470    0.1230   -2.1500 hc        1 043      0.086200
     18 H10         1.6150    1.2560   -3.9370 ha        1 043      0.220000
     19 H11         1.2460    2.4750   -6.0630 ha        1 043      0.143000
     20 H12         0.3900    1.3010   -8.0860 ha        1 043      0.132000
     21 H15         0.2850   -2.4160   -5.8410 ha        1 043      0.159000
@<TRIPOS>BOND
     1    1    2 1   
     2    2    3 1   
     3    2    4 1   
     4    4    5 2   
     5    4    6 1   
     6    6    7 1   
     7    6   16 1   
     8    6   17 1   
     9    7    8 2   
    10    7    9 1   
    11    9   10 ar  
    12    9   15 ar  
    13   10   11 ar  
    14   10   18 1   
    15   11   12 ar  
    16   11   19 1   
    17   12   13 ar  
    18   12   20 1   
    19   13   14 1   
    20   13   15 ar  
    21   15   21 1   
@<TRIPOS>SUBSTRUCTURE
     1 043         1 TEMP              0 ****  ****    0 ROOT
