@<TRIPOS>MOLECULE
043
   21    21     1     0     0
SMALL
bcc


@<TRIPOS>ATOM
      1 O01         2.8330    0.6560    2.1740 o         1 043     -0.804800
      2 C02         3.6440    0.5450    1.2120 c         1 043      0.858600
      3 O03         4.8580    0.2410    1.2980 o         1 043     -0.804800
      4 C04         3.0510    0.7590   -0.1930 c         1 043      0.466100
      5 O05         3.2160    1.7660   -0.8840 o         1 043     -0.560100
      6 C06         2.2210   -0.4150   -0.6720 c3        1 043     -0.297400
      7 C07         0.9640   -0.0460   -1.3970 c         1 043      0.600700
      8 O08         0.8420   -0.2370   -2.6170 o         1 043     -0.564100
      9 C09        -0.1620    0.5020   -0.6020 ca        1 043     -0.172600
     10 C10        -0.0070    0.8840    0.7350 ca        1 043     -0.065000
     11 C11        -1.1020    1.3890    1.4420 ca        1 043     -0.148000
     12 C12        -2.3460    1.5140    0.8310 ca        1 043     -0.094000
     13 C13        -2.5020    1.1340   -0.5060 ca        1 043     -0.053900
     14 BR14       -4.1780    1.3000   -1.3360 br        1 043     -0.127100
     15 C15        -1.4150    0.6350   -1.2220 ca        1 043     -0.060000
     16 H06         2.8760   -1.0270   -1.3510 hc        1 043      0.086200
     17 H06A        1.9550   -1.0440    0.2200 hc        1 043      0.086200
     18 H10         0.9790    0.8010    1.2470 ha        1 043      0.220000
     19 H11        -0.9710    1.6920    2.4910 ha        1 043      0.143000
     20 H12        -3.2000    1.9120    1.4010 ha        1 043      0.132000
     21 H15        -1.5140    0.3410   -2.2810 ha        1 043      0.159000
@<TRIPOS>BOND
     1    1    2 1   
     2    2    3 1   
     3    2    4 1   
     4    4    5 2   
     5    4    6 1   
     6    6    7 1   
     7    6   16 1   
     8    6   17 1   
     9    7    8 2   
    10    7    9 1   
    11    9   10 ar  
    12    9   15 ar  
    13   10   11 ar  
    14   10   18 1   
    15   11   12 ar  
    16   11   19 1   
    17   12   13 ar  
    18   12   20 1   
    19   13   14 1   
    20   13   15 ar  
    21   15   21 1   
@<TRIPOS>SUBSTRUCTURE
     1 043         1 TEMP              0 ****  ****    0 ROOT
