@<TRIPOS>MOLECULE
043
   21    21     1     0     0
SMALL
bcc


@<TRIPOS>ATOM
      1 O01         2.2040    2.2930   -2.2450 o         1 043     -0.804800
      2 C02         2.6480    1.3840   -1.4890 c         1 043      0.858600
      3 O03         2.9740    1.5130   -0.2850 o         1 043     -0.804800
      4 C04         2.7410   -0.0210   -2.1150 c         1 043      0.466100
      5 O05         3.7850   -0.5670   -2.4750 o         1 043     -0.560100
      6 C06         1.3930   -0.7010   -2.2500 c3        1 043     -0.297400
      7 C07         1.1930   -1.4590   -3.5260 c         1 043      0.600700
      8 O08         1.1440   -2.6980   -3.5400 o         1 043     -0.564100
      9 C09         0.9940   -0.6800   -4.7740 ca        1 043     -0.172600
     10 C10         1.2060    0.7020   -4.8260 ca        1 043     -0.065000
     11 C11         0.9980    1.3890   -6.0240 ca        1 043     -0.148000
     12 C12         0.5790    0.7140   -7.1670 ca        1 043     -0.094000
     13 C13         0.3690   -0.6680   -7.1170 ca        1 043     -0.053900
     14 Br14       -0.1950   -1.5840   -8.6560 br        1 043     -0.127100
     15 C15         0.5800   -1.3640   -5.9270 ca        1 043     -0.060000
     16 H06         0.5940    0.0840   -2.1650 hc        1 043      0.086200
     17 H06A        1.2890   -1.4050   -1.3800 hc        1 043      0.086200
     18 H10         1.5470    1.2660   -3.9270 ha        1 043      0.220000
     19 H11         1.1710    2.4750   -6.0580 ha        1 043      0.143000
     20 H12         0.4180    1.2690   -8.1040 ha        1 043      0.132000
     21 H15         0.4310   -2.4560   -5.8700 ha        1 043      0.159000
@<TRIPOS>BOND
     1    1    2 1   
     2    2    3 1   
     3    2    4 1   
     4    4    5 2   
     5    4    6 1   
     6    6    7 1   
     7    6   16 1   
     8    6   17 1   
     9    7    8 2   
    10    7    9 1   
    11    9   10 ar  
    12    9   15 ar  
    13   10   11 ar  
    14   10   18 1   
    15   11   12 ar  
    16   11   19 1   
    17   12   13 ar  
    18   12   20 1   
    19   13   14 1   
    20   13   15 ar  
    21   15   21 1   
@<TRIPOS>SUBSTRUCTURE
     1 043         1 TEMP              0 ****  ****    0 ROOT
