@<TRIPOS>MOLECULE
044
   68    69     1     0     0
SMALL
bcc


@<TRIPOS>ATOM
      1 CAA        -0.3400   -0.6670   -0.1810 c2        1 044      0.068100
      2 CAB         3.7370   -0.0350    2.8530 ca        1 044     -0.296300
      3 CAC         3.9070   -0.9870    1.8310 ca        1 044      0.432200
      4 NAD         2.9150   -1.4330    1.0500 nb        1 044     -0.658000
      5 CAE         1.6590   -0.9400    1.2390 ca        1 044      0.536100
      6 CAF         1.3660    0.0130    2.2640 ca        1 044     -0.094300
      7 CAG         2.4470    0.4560    3.0570 ca        1 044      0.136100
      8 CAH         0.6070   -1.4540    0.3640 ce        1 044     -0.326800
      9 CAI        -1.0370    0.8990    2.7200 c1        1 044     -0.113500
     10 CAJ         0.0660    0.4870    2.4940 cg        1 044     -0.127000
     11 OAK         2.2010    1.4810    3.9840 os        1 044     -0.218200
     12 CAL         2.5540    1.1870    5.2770 ce        1 044      0.097100
     13 CAM         1.5760    0.7060    6.2710 ce        1 044     -0.074000
     14 CAN         3.7530    1.4340    5.9010 c2        1 044      0.038300
     15 CAO         3.5980    1.1670    7.3980 c3        1 044     -0.136600
     16 CAP         4.5510    0.1280    7.8710 c2        1 044      0.399500
     17 CAQ         2.1630    0.6630    7.4930 c2        1 044     -0.192200
     18 NAR         4.9160   -0.1130    9.1030 n         1 044     -0.335500
     19 CAS         6.2880   -0.6790   11.6520 c         1 044      0.699700
     20 CAT         5.1970    0.2970   11.5020 cc        1 044     -0.469400
     21 CAU         4.4930    0.6230   10.3090 c         1 044      0.727300
     22 OAV         3.5720    1.4370   10.1710 o         1 044     -0.536100
     23 NAW         5.9070    0.3450   13.6690 na        1 044     -0.380400
     24 CAX         4.9940    0.8770   12.7900 cd        1 044      0.288800
     25 NAY         6.6520   -0.6760   13.0690 n         1 044     -0.146400
     26 CBA         8.0230   -0.8340   13.4380 c2        1 044     -0.110400
     27 CBB         6.9330   -1.8910   17.5230 c1        1 044     -0.166000
     28 CBC         8.8050   -1.8010   12.9070 ce        1 044      0.022300
     29 CBD        10.1240   -1.9920   13.3400 cg        1 044     -0.209300
     30 CBE         6.6740   -1.1760   18.4470 c1        1 044     -0.166000
     31 CBF        11.2560   -2.1830   13.6850 c1        1 044     -0.073500
     32 FBG         4.9050    1.8780    5.3930 f         1 044     -0.123500
     33 CBH         3.9670    1.8680   13.1670 c3        1 044     -0.099900
     34 CBI         5.8970    0.5720   15.1100 c3        1 044      0.169800
     35 CBJ         6.6570    1.8440   15.5560 c3        1 044      0.128100
     36 CBK         6.2580    2.1720   16.9820 c3        1 044     -0.142100
     37 OBL         8.0490    1.6500   15.4110 oh        1 044     -0.591800
     38 OBM        -1.2800   -1.2680   -0.9890 os        1 044     -0.324900
     39 CBN        -2.1650   -0.3530   -1.6360 c3        1 044      0.109700
     40 HAB         4.5850    0.3220    3.4510 ha        1 044      0.151000
     41 HAC         4.9070   -1.4110    1.6200 h4        1 044      0.035100
     42 HAH         0.6480   -2.5310    0.1250 ha        1 044      0.172000
     43 HAI        -0.4250    0.4210   -0.0290 h4        1 044      0.142000
     44 HAJ        -2.0170    1.2600    2.9090 ha        1 044      0.174500
     45 HAM         0.5460    0.4560    6.0030 ha        1 044      0.193000
     46 HAO         3.6880    2.1350    7.9760 hc        1 044      0.165700
     47 HAQ         1.7330    0.3920    8.4570 ha        1 044      0.179000
     48 HNAR        5.5800   -0.8690    9.2760 hn        1 044      0.395500
     49 HBB         7.1690   -2.5470   16.7230 ha        1 044      0.168000
     50 HBC         8.3970   -0.1440   14.2230 h4        1 044      0.186000
     51 HBD         8.4550   -2.4810   12.1050 ha        1 044      0.174000
     52 HBE        12.2600   -2.3550   13.9880 ha        1 044      0.180500
     53 HBF         6.4470   -0.5600   19.2820 ha        1 044      0.168000
     54 HBH         4.3890    2.6680   13.8270 hc        1 044      0.097367
     55 HBHA        3.1320    1.3560   13.7160 hc        1 044      0.097367
     56 HBHB        3.5430    2.3460   12.2450 hc        1 044      0.097367
     57 HBI         4.8170    0.6670   15.4210 h1        1 044      0.096200
     58 HBIA        6.3460   -0.3220   15.6360 h1        1 044      0.096200
     59 HBJ         6.4230    2.7100   14.8710 h1        1 044      0.082700
     60 HBK         6.8870    3.0160   17.3590 hc        1 044      0.063700
     61 HBKA        6.4100    1.2870   17.6490 hc        1 044      0.063700
     62 HBKB        5.1860    2.4780   17.0270 hc        1 044      0.063700
     63 HOBL        8.3870    1.2540   16.2260 ho        1 044      0.419000
     64 HBN        -2.7470    0.2280   -0.8810 h1        1 044      0.049367
     65 HBNA       -2.8400   -1.0170   -2.2330 h1        1 044      0.049367
     66 HBNB       -1.5930    0.3350   -2.3040 h1        1 044      0.049367
     67 HAR2        4.9990   -0.5160    7.0700 h4        1 044      0.070800
     68 OAZ         6.7790   -1.4440   10.8100 o         1 044     -0.617500
@<TRIPOS>BOND
     1    1    8 2   
     2    1   38 1   
     3    1   43 1   
     4    2    3 ar  
     5    2    7 ar  
     6    2   40 1   
     7    3    4 ar  
     8    3   41 1   
     9    4    5 ar  
    10    5    6 ar  
    11    5    8 1   
    12    6    7 ar  
    13    6   10 1   
    14    7   11 1   
    15    8   42 1   
    16    9   10 3   
    17    9   44 1   
    18   11   12 1   
    19   12   13 1   
    20   12   14 2   
    21   13   17 2   
    22   13   45 1   
    23   14   15 1   
    24   14   32 1   
    25   15   16 1   
    26   15   17 1   
    27   15   46 1   
    28   16   18 2   
    29   16   67 1   
    30   17   47 1   
    31   18   21 1   
    32   18   48 1   
    33   19   20 1   
    34   19   25 1   
    35   19   68 2   
    36   20   21 1   
    37   20   24 2   
    38   21   22 2   
    39   23   24 1   
    40   23   25 1   
    41   23   34 1   
    42   24   33 1   
    43   25   26 1   
    44   26   28 2   
    45   26   50 1   
    46   27   30 3   
    47   27   49 1   
    48   28   29 1   
    49   28   51 1   
    50   29   31 3   
    51   30   53 1   
    52   31   52 1   
    53   33   54 1   
    54   33   55 1   
    55   33   56 1   
    56   34   35 1   
    57   34   57 1   
    58   34   58 1   
    59   35   36 1   
    60   35   37 1   
    61   35   59 1   
    62   36   60 1   
    63   36   61 1   
    64   36   62 1   
    65   37   63 1   
    66   38   39 1   
    67   39   64 1   
    68   39   65 1   
    69   39   66 1   
@<TRIPOS>SUBSTRUCTURE
     1 044         1 TEMP              0 ****  ****    0 ROOT
