@<TRIPOS>MOLECULE
044
   67    67     1     0     0
SMALL
bcc


@<TRIPOS>ATOM
      1 CAA        -0.1410   -0.1150   -0.1790 c2        1 044      0.001000
      2 CAB         3.2620   -0.8030    3.5760 c2        1 044     -0.256000
      3 CAC         3.6700   -1.2880    2.3210 c2        1 044     -0.029000
      4 NAD         2.8710   -1.3710    1.2490 n2        1 044     -0.159000
      5 CAE         1.5770   -0.9650    1.3730 c2        1 044      0.087000
      6 CAF         1.0470   -0.4770    2.6020 c2        1 044     -0.048000
      7 CAG         1.9320   -0.3960    3.7080 c2        1 044      0.131000
      8 CAH         0.7350   -1.0710    0.1790 c2        1 044     -0.193000
      9 CAI        -1.4480    0.1930    2.9120 c1        1 044     -0.194000
     10 CAJ        -0.3010   -0.1110    2.7470 c1        1 044     -0.110000
     11 OAK         1.3920    0.1190    4.8750 os        1 044     -0.128000
     12 CAL         2.1920    0.0630    6.0100 c2        1 044      0.025000
     13 CAM         2.5570   -1.2170    6.5840 c2        1 044     -0.435000
     14 CAN         2.5420    1.2120    6.6650 c2        1 044      0.076000
     15 CAO         3.1720    1.0820    7.9870 c2        1 044     -0.260000
     16 CAP         4.4890    0.7700    8.1170 c2        1 044      0.078000
     17 CAQ         3.2930   -1.3220    7.6870 c1        1 044      0.153000
     18 NAR         5.2180    0.6440    9.2840 ns        1 044     -0.309000
     19 CAS         7.0730    0.1280   11.5410 c2        1 044      0.333000
     20 CAT         5.6670    0.5760   11.6800 c2        1 044     -0.317000
     21 CAU         4.7350    0.8380   10.5800 c2        1 044      0.397000
     22 OAV         3.5720    1.2400   10.7860 o         1 044     -0.363000
     23 NAW         6.5240    0.1990   13.7870 na        1 044     -0.127000
     24 CAX         5.4010    0.6660   13.0430 c2        1 044      0.132000
     25 NAY         7.6070    0.0690   12.8890 n         1 044     -0.172000
     26 CBA         8.6740   -0.7860   13.2580 c2        1 044     -0.053000
     27 CBB         2.9340   -1.4220   16.0550 c1        1 044     -0.221000
     28 CBC         9.3100   -1.6470   12.4350 c2        1 044     -0.104000
     29 CBD        10.4760   -2.3760   12.8770 c2        1 044     -0.444000
     30 CBE         2.6510   -0.7540   17.0050 c1        1 044     -0.221000
     31 CBF        11.1980   -3.2220   12.1680 c1        1 044      0.218000
     32 FBG         2.2630    2.4460    6.2040 f         1 044     -0.080000
     33 CBH         4.1430    1.0750   13.6990 c3        1 044     -0.217000
     34 CBI         6.7900    0.7580   15.1090 c3        1 044     -0.051000
     35 CBJ         7.6690    2.0220   15.1740 c3        1 044      0.010000
     36 CBK         7.3090    2.8510   16.3940 c3        1 044     -0.251000
     37 OBL         9.0060    1.5440   15.2690 oh        1 044     -0.331000
     38 OBM        -0.8740   -0.3180   -1.3340 os        1 044     -0.216000
     39 CBN        -1.7420    0.7630   -1.6630 c3        1 044     -0.076000
     40 HAB         3.9620   -0.7530    4.4180 ha        1 044      0.157000
     41 HAC         4.7100   -1.6280    2.1660 h4        1 044      0.162000
     42 HAH         0.8810   -1.9660   -0.4480 ha        1 044      0.164000
     43 HAI        -0.3260    0.8170    0.3760 h4        1 044      0.144000
     44 HAJ        -2.4630    0.4590    3.0580 ha        1 044      0.225000
     45 HAM         2.1710   -2.1200    6.0750 ha        1 044      0.197000
     46 HAO         2.5110    1.2840    8.8480 ha        1 044      0.195000
     47 HAQ         5.1140    0.6070    7.2100 h4        1 044      0.146000
     48 HNAR        6.1500    0.2900    9.1840 hn        1 044      0.269000
     49 HBB         3.1780   -2.0260   15.2160 ha        1 044      0.221500
     50 HBC         9.0100   -0.6190   14.3030 h4        1 044      0.165000
     51 HBD         8.9900   -1.8110   11.3910 ha        1 044      0.161000
     52 HBE        10.8010   -2.2030   13.9270 ha        1 044      0.190000
     53 HBF         2.3940   -0.1650   17.8490 ha        1 044      0.221500
     54 HBH         4.2730    2.0740   14.1890 hc        1 044      0.126000
     55 HBHA        3.8310    0.3300   14.4760 hc        1 044      0.126000
     56 HBHB        3.3250    1.1590   12.9350 hc        1 044      0.126000
     57 HBI         5.7920    0.9780   15.5810 h1        1 044      0.124000
     58 HBIA        7.2990   -0.0540   15.7050 h1        1 044      0.124000
     59 HBJ         7.5550    2.6460   14.2430 h1        1 044      0.093000
     60 HBK         8.0050    3.7200   16.4810 hc        1 044      0.088667
     61 HBKA        7.3960    2.2370   17.3220 hc        1 044      0.088667
     62 HBKB        6.2660    3.2350   16.3060 hc        1 044      0.088667
     63 HOBL        9.5850    2.3140   15.2200 ho        1 044      0.210000
     64 HBN        -2.4950    0.9210   -0.8530 h1        1 044      0.082667
     65 HBNA       -2.2400    0.4280   -2.6070 h1        1 044      0.082667
     66 HBNB       -1.1560    1.6980   -1.8350 h1        1 044      0.082667
     67 OAZ         7.7360   -0.1020   10.5220 o         1 044     -0.340000
@<TRIPOS>BOND
     1    1    8 1   
     2    1   38 1   
     3    1   43 1   
     4    2    3 1   
     5    2    7 1   
     6    2   40 1   
     7    3    4 1   
     8    3   41 1   
     9    4    5 1   
    10    5    6 1   
    11    5    8 1   
    12    6    7 1   
    13    6   10 1   
    14    7   11 1   
    15    8   42 1   
    16    9   10 1   
    17    9   44 1   
    18   11   12 1   
    19   12   13 1   
    20   12   14 1   
    21   13   17 1   
    22   13   45 1   
    23   14   15 1   
    24   14   32 1   
    25   15   16 1   
    26   15   46 1   
    27   16   18 1   
    28   16   47 1   
    29   18   21 1   
    30   18   48 1   
    31   19   20 1   
    32   19   25 1   
    33   19   67 1   
    34   20   21 1   
    35   20   24 1   
    36   21   22 1   
    37   23   24 1   
    38   23   25 1   
    39   23   34 1   
    40   24   33 1   
    41   25   26 1   
    42   26   28 1   
    43   26   50 1   
    44   27   30 1   
    45   27   49 1   
    46   28   29 1   
    47   28   51 1   
    48   29   31 1   
    49   29   52 1   
    50   30   53 1   
    51   33   54 1   
    52   33   55 1   
    53   33   56 1   
    54   34   35 1   
    55   34   57 1   
    56   34   58 1   
    57   35   36 1   
    58   35   37 1   
    59   35   59 1   
    60   36   60 1   
    61   36   61 1   
    62   36   62 1   
    63   37   63 1   
    64   38   39 1   
    65   39   64 1   
    66   39   65 1   
    67   39   66 1   
@<TRIPOS>SUBSTRUCTURE
     1 044         1 TEMP              0 ****  ****    0 ROOT
