@<TRIPOS>MOLECULE
044
   67    62     1     0     0
SMALL
bcc


@<TRIPOS>ATOM
      1 CAA        -4.1020   -0.6470   -8.9460 c1        1 044      0.092000
      2 CAB        -1.0870   -1.8790   -5.1030 c1        1 044     -0.276000
      3 CAC        -0.8660   -2.8400   -6.1070 c1        1 044     -0.016000
      4 NAD        -1.5680   -2.7770   -7.2880 n1        1 044     -0.158000
      5 CAE        -2.4940   -1.7670   -7.4930 c1        1 044      0.050000
      6 CAF        -2.7150   -0.8220   -6.5110 c2        1 044     -0.125000
      7 CAG        -1.9970   -0.8860   -5.3000 c2        1 044      0.136000
      8 CAH        -3.1900   -1.6860   -8.7240 c1        1 044     -0.152000
      9 CAI        -4.3280    0.3120   -7.9510 c1        1 044     -0.200000
     10 CAJ        -3.6420    0.2330   -6.7370 c1        1 044     -0.053000
     11 OAK        -2.4450    0.1820   -4.4020 os        1 044     -0.143000
     12 CAL        -1.7000    0.1370   -3.2120 c2        1 044     -0.044000
     13 CAM        -2.1350   -0.6440   -2.1540 c2        1 044     -0.085000
     14 CAN        -0.5390    0.8970   -3.0850 c1        1 044      0.128000
     15 CAO         0.1850    0.8680   -1.8930 c1        1 044     -0.202000
     16 CAP        -0.2500    0.0880   -0.8380 c1        1 044      0.121000
     17 CAQ        -1.4130   -0.6720   -0.9660 c2        1 044     -0.194000
     18 NAR         0.5450   -0.0280    0.3240 n2        1 044     -0.319000
     19 CAS         2.1170   -0.2840    2.8980 c1        1 044      0.329000
     20 CAT         1.1610    0.6960    2.7410 c2        1 044     -0.344000
     21 CAU         0.3700    0.8960    1.4010 c2        1 044      0.403000
     22 OAV        -0.4820    1.7940    1.3120 o         1 044     -0.375000
     23 NAW         1.7600    1.1230    4.8690 n3        1 044     -0.151000
     24 CAX         0.9690    1.4560    3.7910 c2        1 044      0.165000
     25 NAY         2.6010   -0.0860    4.3520 n2        1 044     -0.162000
     26 OAZ         2.2080   -1.3280    2.2350 o         1 044     -0.322000
     27 CBA         3.2640   -1.0900    5.1820 c2        1 044      0.013000
     28 CBB         4.6390   -1.2960    5.0620 c2        1 044     -0.100000
     29 CBC         2.5110   -1.9060    6.0170 c1        1 044     -0.139000
     30 CBD         3.1290   -2.9360    6.7370 c1        1 044     -0.126000
     31 CBE         5.2590   -2.3250    5.7830 c1        1 044     -0.124000
     32 CBF         4.5030   -3.1430    6.6190 c1        1 044     -0.126000
     33 FBG        -0.0400    1.5510   -4.1630 f         1 044     -0.087000
     34 CBH         0.4550    2.9020    3.6170 c3        1 044     -0.216000
     35 CBI         2.0950    1.9540    5.9350 c3        1 044     -0.037000
     36 CBJ         1.0010    1.8670    7.0220 c3        1 044      0.020000
     37 CBK         1.4720    2.6080    8.2760 c3        1 044     -0.252000
     38 OBL        -0.1580    2.4380    6.5550 oh        1 044     -0.336000
     39 OBM        -4.6430   -0.7180  -10.2710 os        1 044     -0.209000
     40 CBN        -4.2430    0.3600  -11.1200 c3        1 044     -0.076000
     41 HAB        -0.5940   -1.9250   -4.2750 ha        1 044      0.157000
     42 HAC        -0.1900   -3.5770   -5.9610 ha        1 044      0.159000
     43 HAH        -3.0290   -2.3680   -9.4340 ha        1 044      0.167000
     44 HAI        -4.9690    1.0440   -8.1080 ha        1 044      0.141000
     45 HAJ        -3.7950    0.8840   -6.0630 ha        1 044      0.153000
     46 HAM        -2.9540   -1.1810   -2.2440 ha        1 044      0.154000
     47 HAO         0.9890    1.3940   -1.8040 ha        1 044      0.193000
     48 HAQ        -1.7030   -1.1930   -0.2610 ha        1 044      0.146000
     49 HNAR        1.2120   -0.6790    0.3710 hn        1 044      0.261000
     50 HBB         5.1680   -0.7260    4.4770 ha        1 044      0.155000
     51 HBC         1.5220   -1.7580    6.1040 ha        1 044      0.146000
     52 HBD         2.5890   -3.5160    7.3310 ha        1 044      0.136500
     53 HBE         6.2400   -2.4720    5.6970 ha        1 044      0.139000
     54 HBF         4.9360   -3.8630    7.1240 ha        1 044      0.136500
     55 HBH         0.4270    3.3450    4.4800 hc        1 044      0.131333
     56 HBHA       -0.4460    2.8810    3.2290 hc        1 044      0.131333
     57 HBHB        1.0570    3.3930    3.0180 hc        1 044      0.131333
     58 HBI         2.9320    1.6740    6.3050 h1        1 044      0.117500
     59 HBIA        2.1710    2.8580    5.6250 h1        1 044      0.117500
     60 HBJ         0.8320    0.9100    7.2460 h1        1 044      0.095000
     61 HBK         2.3320    2.2970    8.5210 hc        1 044      0.089000
     62 HBKA        0.8550    2.4440    8.9970 hc        1 044      0.089000
     63 HBKB        1.5130    3.5770    8.0910 hc        1 044      0.089000
     64 HOBL       -0.8540    2.1510    7.0490 ho        1 044      0.208000
     65 HBN        -3.2640    0.2880  -11.3130 h1        1 044      0.084000
     66 HBNA       -4.7600    0.3160  -11.9840 h1        1 044      0.084000
     67 HBNB       -4.4220    1.1980  -10.6810 h1        1 044      0.084000
@<TRIPOS>BOND
     1    1    9 1   
     2    1   39 1   
     3    2    7 1   
     4    2   41 1   
     5    3    4 1   
     6    3   42 1   
     7    5    6 1   
     8    5    8 1   
     9    6    7 1   
    10    6   10 1   
    11    7   11 1   
    12    8   43 1   
    13    9   44 1   
    14   10   45 1   
    15   11   12 1   
    16   12   13 1   
    17   12   14 1   
    18   13   17 1   
    19   13   46 1   
    20   14   33 1   
    21   15   16 1   
    22   15   47 1   
    23   16   17 1   
    24   17   48 1   
    25   18   21 1   
    26   18   49 1   
    27   19   20 1   
    28   19   26 1   
    29   20   21 1   
    30   20   24 1   
    31   21   22 1   
    32   23   24 1   
    33   23   25 1   
    34   23   35 1   
    35   24   34 1   
    36   25   27 1   
    37   27   28 1   
    38   27   29 1   
    39   28   31 1   
    40   28   50 1   
    41   29   51 1   
    42   30   32 1   
    43   30   52 1   
    44   31   53 1   
    45   32   54 1   
    46   34   55 1   
    47   34   56 1   
    48   34   57 1   
    49   35   36 1   
    50   35   58 1   
    51   35   59 1   
    52   36   37 1   
    53   36   38 1   
    54   36   60 1   
    55   37   61 1   
    56   37   62 1   
    57   37   63 1   
    58   38   64 1   
    59   39   40 1   
    60   40   65 1   
    61   40   66 1   
    62   40   67 1   
@<TRIPOS>SUBSTRUCTURE
     1 044         1 TEMP              0 ****  ****    0 ROOT
