@<TRIPOS>MOLECULE
044
   67    65     1     0     0
SMALL
bcc


@<TRIPOS>ATOM
      1 CAA        -0.1820    0.4450   -1.0350 c2        1 044      0.045100
      2 CAB         3.3090   -0.4360    2.5950 ca        1 044     -0.318300
      3 CAC         3.8190   -0.4190    1.2860 ca        1 044      0.436200
      4 NAD         3.0610   -0.3850    0.1820 nb        1 044     -0.686000
      5 CAE         1.7070   -0.3670    0.3280 ca        1 044      0.524100
      6 CAF         1.0780   -0.4050    1.6050 ca        1 044     -0.119300
      7 CAG         1.9210   -0.4300    2.7470 ca        1 044      0.177100
      8 CAH         0.9110   -0.3280   -0.9010 ce        1 044     -0.302800
      9 CAI        -1.5030   -0.4950    1.9200 c1        1 044     -0.138500
     10 CAJ        -0.3180   -0.4440    1.7550 cg        1 044     -0.104000
     11 OAK         1.2770   -0.4210    3.9730 os        1 044     -0.229200
     12 CAL         2.0840   -0.6500    5.0990 ce        1 044      0.025100
     13 CAM         2.6080   -1.9930    5.2280 ce        1 044     -0.133000
     14 CAN         2.1530    0.3890    5.9920 cf        1 044      0.305800
     15 CAO         2.7370    0.2890    7.2690 ch        1 044     -0.214300
     16 CAP         3.2130    0.2180    8.3710 c1        1 044      0.035200
     17 CAQ         3.5620   -2.3920    6.0710 c2        1 044     -0.197000
     18 NAR         3.7610    0.1090    9.5870 n         1 044     -0.409700
     19 CAS         5.0270   -0.3950   12.2360 c         1 044      0.698700
     20 CAT         4.4680    0.9110   11.7810 cc        1 044     -0.330400
     21 CAU         3.8580    1.1870   10.4750 c         1 044      0.719300
     22 OAV         3.4490    2.3200   10.1650 o         1 044     -0.565100
     23 NAW         5.2960    1.1860   13.9230 na        1 044     -0.151200
     24 CAX         4.6430    1.8280   12.7960 cd        1 044      0.276800
     25 NAY         5.4750   -0.1940   13.5960 n         1 044     -0.260400
     26 CBA         6.5830   -0.8900   14.1290 c2        1 044     -0.054400
     27 CBB         9.1560   -1.7670   18.7910 c1        1 044     -0.164000
     28 CBC         6.9650   -2.1300   13.7410 ce        1 044     -0.048700
     29 CBD         8.0250   -2.8000   14.3670 cg        1 044     -0.168300
     30 CBE        10.1720   -1.1350   18.7930 c1        1 044     -0.164000
     31 CBF         8.9260   -3.4020   14.8780 c1        1 044     -0.135500
     32 FBG         1.6050    1.5900    5.6790 f         1 044     -0.140500
     33 CBH         4.2450    3.2440   12.8540 c3        1 044     -0.083900
     34 CBI         5.5150    1.8100   15.0480 c1        1 044     -0.056500
     35 CBJ         8.4120    2.0270   17.0970 c2        1 044      0.026100
     36 CBK         9.3490    2.3050   18.0060 c2        1 044     -0.332000
     37 OBL         8.0130    0.7610   16.7410 oh        1 044     -0.547100
     38 OBM        -0.8480    0.4100   -2.2460 os        1 044     -0.332900
     39 CBN        -1.9620    1.2960   -2.3150 c3        1 044      0.113700
     40 HAB         3.9790   -0.4570    3.4640 ha        1 044      0.159000
     41 HAC         4.9110   -0.4280    1.1130 h4        1 044      0.025100
     42 HAH         1.2760   -0.9400   -1.7430 ha        1 044      0.163000
     43 HAI        -0.5920    1.1030   -0.2530 h4        1 044      0.144000
     44 HAJ        -2.5520   -0.5430    2.0650 ha        1 044      0.166500
     45 HAM         2.1400   -2.7140    4.5300 ha        1 044      0.145000
     46 HAO         4.0740   -1.7190    6.7720 ha        1 044      0.120500
     47 HAQ         3.8940   -3.4390    6.1040 ha        1 044      0.120500
     48 HNAR        4.0820   -0.8000    9.8660 hn        1 044      0.367500
     49 HBB         8.2560   -2.3310   18.7930 ha        1 044      0.166500
     50 HBC         7.1050   -0.3730   14.9640 h4        1 044      0.172000
     51 HBD         6.4690   -2.6780   12.9170 ha        1 044      0.176000
     52 HBE         9.7240   -3.9380   15.3260 ha        1 044      0.168500
     53 HBF        11.0790   -0.5840   18.8000 ha        1 044      0.166500
     54 HBH         4.9040    3.8330   13.5430 hc        1 044      0.096367
     55 HBHA        4.2800    3.6800   11.8200 hc        1 044      0.096367
     56 HBHB        3.1900    3.3150   13.2280 hc        1 044      0.096367
     57 HBI         6.5310    3.9980   15.1260 ha        1 044      0.001500
     58 HBIA        6.9610    4.5240   15.1110 ha        1 044      0.001500
     59 HBJ         5.9630    1.2830   15.9120 ha        1 044      0.063500
     60 HBK         7.8350    2.7670   16.5120 h4        1 044      0.167000
     61 HBKA        9.8870    1.5240   18.5600 ha        1 044      0.127000
     62 HBKB        9.6240    3.3370   18.2470 ha        1 044      0.127000
     63 HOBL        8.5080    0.1100   17.2670 ho        1 044      0.427000
     64 HBN        -2.7250    1.0270   -1.5450 h1        1 044      0.043033
     65 HBNA       -1.6310    2.3540   -2.1800 h1        1 044      0.043033
     66 HBNB       -2.3660    1.1360   -3.3460 h1        1 044      0.043033
     67 OAZ         5.0610   -1.4730   11.6330 o         1 044     -0.590500
@<TRIPOS>BOND
     1    1    8 2   
     2    1   38 1   
     3    1   43 1   
     4    2    3 ar  
     5    2    7 ar  
     6    2   40 1   
     7    3    4 ar  
     8    3   41 1   
     9    4    5 ar  
    10    5    6 ar  
    11    5    8 1   
    12    6    7 ar  
    13    6   10 1   
    14    7   11 1   
    15    8   42 1   
    16    9   10 3   
    17    9   44 1   
    18   11   12 1   
    19   12   13 1   
    20   12   14 2   
    21   13   17 2   
    22   13   45 1   
    23   14   15 1   
    24   14   32 1   
    25   15   16 3   
    26   16   18 1   
    27   17   46 1   
    28   17   47 1   
    29   18   21 1   
    30   18   48 1   
    31   19   20 1   
    32   19   25 1   
    33   19   67 2   
    34   20   21 1   
    35   20   24 2   
    36   21   22 2   
    37   23   24 1   
    38   23   25 1   
    39   23   34 3   
    40   24   33 1   
    41   25   26 1   
    42   26   28 2   
    43   26   50 1   
    44   27   30 3   
    45   27   49 1   
    46   28   29 1   
    47   28   51 1   
    48   29   31 3   
    49   30   53 1   
    50   31   52 1   
    51   33   54 1   
    52   33   55 1   
    53   33   56 1   
    54   34   59 1   
    55   35   36 2   
    56   35   37 1   
    57   35   60 1   
    58   36   61 1   
    59   36   62 1   
    60   37   63 1   
    61   38   39 1   
    62   39   64 1   
    63   39   65 1   
    64   39   66 1   
    65   57   58 1   
@<TRIPOS>SUBSTRUCTURE
     1 044         1 TEMP              0 ****  ****    0 ROOT
