@<TRIPOS>MOLECULE
044
   67    71     1     0     0
SMALL
bcc


@<TRIPOS>ATOM
      1 CAA        -9.3300   -0.3160    0.1580 ca        1 044      0.137100
      2 CAB        -4.6590   -0.2000   -1.7290 ca        1 044     -0.341300
      3 CAC        -5.6060   -0.3360   -2.7900 ca        1 044      0.449200
      4 NAD        -6.9140   -0.4000   -2.6320 nb        1 044     -0.683000
      5 CAE        -7.4150   -0.3270   -1.3410 ca        1 044      0.443600
      6 CAF        -6.5610   -0.1880   -0.2000 ca        1 044     -0.190300
      7 CAG        -5.1480   -0.1280   -0.4430 ca        1 044      0.181100
      8 CAH        -8.8220   -0.3910   -1.1310 ca        1 044     -0.217300
      9 CAI        -8.4790   -0.1750    1.2840 ca        1 044     -0.200000
     10 CAJ        -7.1190   -0.1130    1.0970 ca        1 044     -0.054000
     11 OAK        -4.3710    0.0040    0.6980 os        1 044     -0.233200
     12 CAL        -2.9910    0.0370    0.5050 ca        1 044      0.003100
     13 CAM        -2.2730   -1.1380    0.2570 ca        1 044     -0.085000
     14 CAN        -2.3050    1.2520    0.7090 ca        1 044      0.162900
     15 CAO        -0.9000    1.2810    0.6700 ca        1 044     -0.201000
     16 CAP        -0.1760    0.1010    0.4180 ca        1 044      0.110600
     17 CAQ        -0.8890   -1.1130    0.2120 ca        1 044     -0.192000
     18 NAR         1.2220    0.0500    0.3590 n         1 044     -0.463100
     19 CAS         4.1180   -0.5590    0.1680 c         1 044      0.692700
     20 CAT         3.5390    0.7890    0.3900 cc        1 044     -0.352400
     21 CAU         2.1100    1.1100    0.4990 c         1 044      0.725300
     22 OAV         1.7250    2.2810    0.7010 o         1 044     -0.614100
     23 NAW         5.8420    0.9570    0.4770 na        1 044     -0.400400
     24 CAX         4.6040    1.6730    0.5040 cd        1 044      0.205800
     25 NAY         5.5620   -0.3720    0.0980 n         1 044     -0.191400
     26 CBA         6.4100   -1.4190    0.5940 ca        1 044      0.030600
     27 CBB         7.3720   -1.2220    1.6040 ca        1 044     -0.128000
     28 CBC         6.2920   -2.6920   -0.0060 ca        1 044     -0.128000
     29 CBD         7.1300   -3.7280    0.3960 ca        1 044     -0.119500
     30 CBE         8.2050   -2.2710    1.9850 ca        1 044     -0.119500
     31 CBF         8.0910   -3.5230    1.3850 ca        1 044     -0.134000
     32 FBG        -2.9870    2.3930    0.9540 f         1 044     -0.121900
     33 CBH         4.5700    3.1350    0.7080 c3        1 044     -0.088900
     34 CBI         6.9890    1.6070   -0.1570 c3        1 044      0.186800
     35 CBJ         6.8720    1.9160   -1.6620 c3        1 044      0.117100
     36 CBK         7.6630    3.1670   -2.0040 c3        1 044     -0.134100
     37 OBL         7.4040    0.7810   -2.3290 oh        1 044     -0.586800
     38 OBM       -10.7080   -0.3900    0.2460 os        1 044     -0.325900
     39 CBN       -11.2650   -0.2930    1.5510 c3        1 044      0.113700
     40 HAB        -3.5860   -0.1530   -1.9510 ha        1 044      0.156000
     41 HAC        -5.2380   -0.3930   -3.8320 h4        1 044      0.022100
     42 HAH        -9.5040   -0.4980   -1.9880 ha        1 044      0.167000
     43 HAI        -8.9010   -0.1150    2.2970 ha        1 044      0.141000
     44 HAJ        -6.4380   -0.0020    1.9570 ha        1 044      0.153000
     45 HAM        -2.8200   -2.0810    0.1020 ha        1 044      0.155000
     46 HAO        -0.3940    2.2460    0.8400 ha        1 044      0.193000
     47 HAQ        -0.3460   -2.0510    0.0170 ha        1 044      0.147000
     48 HNAR        1.6090   -0.8600    0.1950 hn        1 044      0.350500
     49 HBB         7.4800   -0.2500    2.1080 ha        1 044      0.150500
     50 HBC         5.5270   -2.8730   -0.7790 ha        1 044      0.150500
     51 HBD         7.0290   -4.7160   -0.0770 ha        1 044      0.136000
     52 HBE         8.9560   -2.1050    2.7720 ha        1 044      0.136000
     53 HBF         8.7520   -4.3460    1.6930 ha        1 044      0.135000
     54 HBH         5.0910    3.6570   -0.1360 hc        1 044      0.083700
     55 HBHA        3.5090    3.4940    0.7560 hc        1 044      0.083700
     56 HBHB        5.0830    3.4050    1.6660 hc        1 044      0.083700
     57 HBI         7.1350    2.5700    0.4090 h1        1 044      0.088200
     58 HBIA        7.8880    0.9440    0.0010 h1        1 044      0.088200
     59 HBJ         5.7950    2.0590   -1.9600 h1        1 044      0.042700
     60 HBK         8.7270    3.0540   -1.6880 hc        1 044      0.048367
     61 HBKA        7.6400    3.3420   -3.1070 hc        1 044      0.048367
     62 HBKB        7.2220    4.0540   -1.4920 hc        1 044      0.048367
     63 HOBL        7.3080    0.9410   -3.2760 ho        1 044      0.406000
     64 HBN       -10.9170   -1.1390    2.1930 h1        1 044      0.045033
     65 HBNA      -11.0090    0.6880    2.0200 h1        1 044      0.045033
     66 HBNB      -12.3670   -0.3660    1.3670 h1        1 044      0.045033
     67 OAZ         3.5560   -1.6470   -0.0060 o         1 044     -0.605500
@<TRIPOS>BOND
     1    1    8 ar  
     2    1    9 ar  
     3    1   38 1   
     4    2    3 ar  
     5    2    7 ar  
     6    2   40 1   
     7    3    4 ar  
     8    3   41 1   
     9    4    5 ar  
    10    5    6 ar  
    11    5    8 ar  
    12    6    7 ar  
    13    6   10 ar  
    14    7   11 1   
    15    8   42 1   
    16    9   10 ar  
    17    9   43 1   
    18   10   44 1   
    19   11   12 1   
    20   12   13 ar  
    21   12   14 ar  
    22   13   17 ar  
    23   13   45 1   
    24   14   15 ar  
    25   14   32 1   
    26   15   16 ar  
    27   15   46 1   
    28   16   17 ar  
    29   16   18 1   
    30   17   47 1   
    31   18   21 1   
    32   18   48 1   
    33   19   20 1   
    34   19   25 1   
    35   19   67 2   
    36   20   21 1   
    37   20   24 2   
    38   21   22 2   
    39   23   24 1   
    40   23   25 1   
    41   23   34 1   
    42   24   33 1   
    43   25   26 1   
    44   26   27 ar  
    45   26   28 ar  
    46   27   30 ar  
    47   27   49 1   
    48   28   29 ar  
    49   28   50 1   
    50   29   31 ar  
    51   29   51 1   
    52   30   31 ar  
    53   30   52 1   
    54   31   53 1   
    55   33   54 1   
    56   33   55 1   
    57   33   56 1   
    58   34   35 1   
    59   34   57 1   
    60   34   58 1   
    61   35   36 1   
    62   35   37 1   
    63   35   59 1   
    64   36   60 1   
    65   36   61 1   
    66   36   62 1   
    67   37   63 1   
    68   38   39 1   
    69   39   64 1   
    70   39   65 1   
    71   39   66 1   
@<TRIPOS>SUBSTRUCTURE
     1 044         1 TEMP              0 ****  ****    0 ROOT
