@<TRIPOS>MOLECULE
046
   71    75     1     0     0
SMALL
bcc


@<TRIPOS>ATOM
      1 F1          6.7930   -2.4500    1.7430 f         1 046     -0.237967
      2 C2          6.2930   -2.1180    0.5050 c3        1 046      0.688200
      3 F3          7.3790   -1.6230   -0.1720 f         1 046     -0.237967
      4 F4          6.0750   -3.3390   -0.0900 f         1 046     -0.237967
      5 C5          5.0700   -1.2010    0.5510 ca        1 046     -0.123300
      6 C6          5.1610    0.1170    1.0080 ca        1 046     -0.042300
      7 C7          3.9930    0.8880    1.0530 ca        1 046     -0.113000
      8 C9          2.7650    0.3810    0.6480 ca        1 046     -0.109000
      9 C11         2.6720   -0.9490    0.1820 ca        1 046      0.062600
     10 C12         3.8450   -1.7350    0.1490 ca        1 046     -0.144000
     11 N14         1.4740   -1.5000   -0.3100 n         1 046     -0.461100
     12 C16         0.2030   -1.1520    0.1960 c         1 046      0.779100
     13 O17         0.0490   -0.1940    0.9840 o         1 046     -0.610100
     14 N18        -0.8960   -1.9440   -0.1990 n         1 046     -0.366000
     15 C19        -0.8560   -2.8370   -1.3630 c3        1 046      0.076000
     16 C22        -2.3260   -3.1210   -1.7740 c3        1 046     -0.036100
     17 C25        -3.1220   -2.2760   -0.8350 ca        1 046     -0.125300
     18 C26        -2.2430   -1.5780    0.0530 ca        1 046      0.057600
     19 C27        -2.7530   -0.7190    1.0280 ca        1 046     -0.122000
     20 C29        -4.1400   -0.5650    1.1210 ca        1 046     -0.097000
     21 C31        -4.9830   -1.2620    0.2540 ca        1 046      0.074100
     22 C32        -4.4890   -2.1210   -0.7450 ca        1 046     -0.086000
     23 O34        -6.3730   -1.2300    0.4220 os        1 046     -0.365400
     24 C35        -7.0270   -0.0380    0.1600 ca        1 046      0.671600
     25 N36        -6.3700    1.0770   -0.2580 nb        1 046     -0.762000
     26 C37        -7.1710    2.1530   -0.4720 ca        1 046      0.684900
     27 N39        -8.5110    2.2510   -0.3220 nb        1 046     -0.717000
     28 C40        -9.1550    1.1100    0.0990 ca        1 046      0.593200
     29 C41        -8.4260   -0.0890    0.3610 ca        1 046     -0.443600
     30 N43       -10.5400    1.0890    0.3010 n         1 046     -0.564400
     31 C45       -11.4800    2.0640   -0.0620 c         1 046      0.667100
     32 O46       -11.2030    3.0670   -0.7300 o         1 046     -0.524100
     33 C47       -12.8920    1.7940    0.4120 c3        1 046     -0.182100
     34 C51         6.4550    0.7320    1.4690 c3        1 046      0.209100
     35 N54         7.1470    1.4360    0.3970 n3        1 046     -0.730600
     36 C55         8.5950    1.3970    0.5480 c3        1 046      0.170300
     37 C58         9.3350    2.1580   -0.5680 c3        1 046      0.168300
     38 N61         8.8330    3.5100   -0.7650 n3        1 046     -0.732600
     39 C62         7.3870    3.5380   -0.9300 c3        1 046      0.168300
     40 C65         6.6440    2.7850    0.1900 c3        1 046      0.170300
     41 C68         9.5230    4.2050   -1.8280 c3        1 046      0.157100
     42 H1          4.0480    1.9260    1.4200 ha        1 046      0.145000
     43 H2          1.8660    1.0180    0.7030 ha        1 046      0.177000
     44 H3          3.8080   -2.7800   -0.2030 ha        1 046      0.149000
     45 H4          1.5740   -2.3950   -0.7400 hn        1 046      0.315500
     46 H5         -0.3020   -2.3650   -2.2200 h1        1 046      0.052700
     47 H6         -2.5030   -2.8330   -2.8390 hc        1 046      0.067700
     48 H7         -2.0840   -0.1650    1.7050 ha        1 046      0.178000
     49 H8         -4.5660    0.1160    1.8730 ha        1 046      0.153000
     50 H9         -5.1790   -2.6500   -1.4160 ha        1 046      0.152000
     51 H10        -6.6580    3.0790   -0.8160 h5        1 046      0.062100
     52 H11        -8.9000   -1.0170    0.6980 ha        1 046      0.164000
     53 H12       -10.8860    0.2680    0.7460 hn        1 046      0.323500
     54 H13       -12.9290    1.7440    1.5270 hc        1 046      0.070367
     55 H14       -13.5460    2.6310    0.0650 hc        1 046      0.070367
     56 H15       -13.2750    0.8360   -0.0130 hc        1 046      0.070367
     57 H16         6.2280    1.4170    2.3410 h1        1 046      0.049700
     58 H17         7.1250   -0.0890    1.8600 h1        1 046      0.049700
     59 H19         8.9220    1.8100    1.5470 h1        1 046      0.038700
     60 H20         8.9120    0.3160    0.4920 h1        1 046      0.038700
     61 H21        10.4180    2.2340   -0.2690 h1        1 046      0.037950
     62 H22         9.2790    1.5500   -1.5170 h1        1 046      0.037950
     63 H24         7.0570    4.6140   -0.8970 h1        1 046      0.037950
     64 H25         7.0710    3.1090   -1.9250 h1        1 046      0.037950
     65 H26         5.5610    2.7020   -0.1100 h1        1 046      0.038700
     66 H27         6.6970    3.4000    1.1350 h1        1 046      0.038700
     67 H28         9.3770    3.7340   -2.8390 h1        1 046      0.032033
     68 H29         9.1490    5.2620   -1.8700 h1        1 046      0.032033
     69 H30        10.6200    4.2190   -1.5970 h1        1 046      0.032033
     70 H31        -0.3360   -3.7870   -1.0680 h1        1 046      0.052700
     71 H32        -2.5650   -4.2060   -1.6530 hc        1 046      0.067700
@<TRIPOS>BOND
     1    1    2 1   
     2    2    3 1   
     3    2    4 1   
     4    2    5 1   
     5    5    6 ar  
     6    5   10 ar  
     7    6    7 ar  
     8    6   34 1   
     9    7    8 ar  
    10    7   42 1   
    11    8    9 ar  
    12    8   43 1   
    13    9   10 ar  
    14    9   11 1   
    15   10   44 1   
    16   11   12 1   
    17   11   45 1   
    18   12   13 2   
    19   12   14 1   
    20   14   15 1   
    21   14   18 1   
    22   15   16 1   
    23   15   46 1   
    24   15   70 1   
    25   16   17 1   
    26   16   47 1   
    27   16   71 1   
    28   17   18 ar  
    29   17   22 ar  
    30   18   19 ar  
    31   19   20 ar  
    32   19   48 1   
    33   20   21 ar  
    34   20   49 1   
    35   21   22 ar  
    36   21   23 1   
    37   22   50 1   
    38   23   24 1   
    39   24   25 ar  
    40   24   29 ar  
    41   25   26 ar  
    42   26   27 ar  
    43   26   51 1   
    44   27   28 ar  
    45   28   29 ar  
    46   28   30 1   
    47   29   52 1   
    48   30   31 1   
    49   30   53 1   
    50   31   32 2   
    51   31   33 1   
    52   33   54 1   
    53   33   55 1   
    54   33   56 1   
    55   34   35 1   
    56   34   57 1   
    57   34   58 1   
    58   35   36 1   
    59   35   40 1   
    60   36   37 1   
    61   36   59 1   
    62   36   60 1   
    63   37   38 1   
    64   37   61 1   
    65   37   62 1   
    66   38   39 1   
    67   38   41 1   
    68   39   40 1   
    69   39   63 1   
    70   39   64 1   
    71   40   65 1   
    72   40   66 1   
    73   41   67 1   
    74   41   68 1   
    75   41   69 1   
@<TRIPOS>SUBSTRUCTURE
     1 046         1 TEMP              0 ****  ****    0 ROOT
