@<TRIPOS>MOLECULE
046
   71    75     1     0     0
SMALL
bcc


@<TRIPOS>ATOM
      1 F1         -0.4410   -0.0350   -0.2600 f         1 046     -0.237967
      2 C2          0.9360   -0.0530   -0.2560 c3        1 046      0.688200
      3 F3          1.2610   -0.4190    1.0260 f         1 046     -0.237967
      4 F4          1.2430   -1.1720   -0.9950 f         1 046     -0.237967
      5 C5          1.5780    1.2400   -0.7550 ca        1 046     -0.123300
      6 C6          1.4660    2.4370   -0.0410 ca        1 046     -0.042300
      7 C7          2.0530    3.5900   -0.5760 ca        1 046     -0.113000
      8 C9          2.7440    3.5680   -1.7800 ca        1 046     -0.109000
      9 C11         2.8630    2.3600   -2.5010 ca        1 046      0.062600
     10 C12         2.2600    1.1970   -1.9720 ca        1 046     -0.144000
     11 N14         3.6100    2.2530   -3.6900 n         1 046     -0.461100
     12 C16         3.7170    3.3040   -4.6270 c         1 046      0.779100
     13 O17         3.3100    4.4580   -4.3700 o         1 046     -0.610100
     14 N18         4.2810    3.0010   -5.8850 n         1 046     -0.365000
     15 C19         5.0830    1.7970   -6.1280 c3        1 046      0.076000
     16 C22         5.9260    2.0580   -7.4050 c3        1 046     -0.036100
     17 C25         5.5940    3.4690   -7.7610 ca        1 046     -0.125300
     18 C26         4.6480    3.9970   -6.8260 ca        1 046      0.057600
     19 C27         4.1820    5.3060   -6.9490 ca        1 046     -0.122000
     20 C29         4.6540    6.0850   -8.0100 ca        1 046     -0.097000
     21 C31         5.5670    5.5520   -8.9200 ca        1 046      0.074100
     22 C32         6.0610    4.2390   -8.8060 ca        1 046     -0.086000
     23 O34         5.9430    6.2650  -10.0650 os        1 046     -0.365400
     24 C35         6.7180    7.4000   -9.8930 ca        1 046      0.671600
     25 N36         7.1280    7.8230   -8.6660 nb        1 046     -0.762000
     26 C37         7.8860    8.9500   -8.6860 ca        1 046      0.684900
     27 N39         8.2730    9.6880   -9.7510 nb        1 046     -0.717000
     28 C40         7.8510    9.2390  -10.9810 ca        1 046      0.593200
     29 C41         7.0450    8.0650  -11.0960 ca        1 046     -0.443600
     30 N43         8.1780    9.9240  -12.1570 n         1 046     -0.564400
     31 C45         9.0940   10.9730  -12.3180 c         1 046      0.667100
     32 O46         9.8390   11.3760  -11.4180 o         1 046     -0.524100
     33 C47         9.1270   11.5810  -13.7030 c3        1 046     -0.182100
     34 C51         0.7260    2.5380    1.2670 c3        1 046      0.209100
     35 N54         1.6030    2.3530    2.4160 n3        1 046     -0.730600
     36 C55         0.9200    1.7390    3.5450 c3        1 046      0.170300
     37 C58         1.8320    1.5610    4.7730 c3        1 046      0.168300
     38 N61         2.5340    2.7810    5.1440 n3        1 046     -0.732600
     39 C62         3.2270    3.3790    4.0120 c3        1 046      0.168300
     40 C65         2.3140    3.5670    2.7850 c3        1 046      0.170300
     41 C68         3.4020    2.5930    6.2850 c3        1 046      0.157100
     42 H1          1.9640    4.5430   -0.0280 ha        1 046      0.145000
     43 H2          3.1880    4.4990   -2.1720 ha        1 046      0.177000
     44 H3          2.3260    0.2380   -2.5130 ha        1 046      0.149000
     45 H4          3.7330    1.3200   -4.0210 hn        1 046      0.315500
     46 H5          5.7610    1.5760   -5.2590 h1        1 046      0.052700
     47 H6          7.0160    1.9310   -7.1940 hc        1 046      0.067700
     48 H7          3.4660    5.7260   -6.2240 ha        1 046      0.178000
     49 H8          4.3090    7.1240   -8.1210 ha        1 046      0.153000
     50 H9          6.7870    3.8520   -9.5350 ha        1 046      0.152000
     51 H10         8.2350    9.3170   -7.6960 h5        1 046      0.062100
     52 H11         6.6870    7.6770  -12.0550 ha        1 046      0.164000
     53 H12         7.7030    9.6050  -12.9730 hn        1 046      0.323500
     54 H13         9.4110   10.8160  -14.4650 hc        1 046      0.070367
     55 H14         9.8890   12.3990  -13.7110 hc        1 046      0.070367
     56 H15         8.1310   12.0120  -13.9670 hc        1 046      0.070367
     57 H16        -0.0770    1.7460    1.2890 h1        1 046      0.049700
     58 H17         0.2030    3.5410    1.2970 h1        1 046      0.049700
     59 H19         0.0090    2.3310    3.8530 h1        1 046      0.038700
     60 H20         0.5810    0.7150    3.2200 h1        1 046      0.038700
     61 H21         1.1820    1.2610    5.6420 h1        1 046      0.037950
     62 H22         2.5500    0.7130    4.5690 h1        1 046      0.037950
     63 H24         4.1270    2.7710    3.7030 h1        1 046      0.037950
     64 H25         3.5900    4.3960    4.3290 h1        1 046      0.037950
     65 H26         1.6040    4.4210    2.9920 h1        1 046      0.038700
     66 H27         2.9640    3.8610    1.9130 h1        1 046      0.038700
     67 H28         4.2420    1.8700    6.0940 h1        1 046      0.032033
     68 H29         2.7900    2.2110    7.1430 h1        1 046      0.032033
     69 H30         3.8440    3.5840    6.5690 h1        1 046      0.032033
     70 H31         4.3880    0.9280   -6.2820 h1        1 046      0.052700
     71 H32         5.6360    1.3500   -8.2190 hc        1 046      0.067700
@<TRIPOS>BOND
     1    1    2 1   
     2    2    3 1   
     3    2    4 1   
     4    2    5 1   
     5    5    6 ar  
     6    5   10 ar  
     7    6    7 ar  
     8    6   34 1   
     9    7    8 ar  
    10    7   42 1   
    11    8    9 ar  
    12    8   43 1   
    13    9   10 ar  
    14    9   11 1   
    15   10   44 1   
    16   11   12 1   
    17   11   45 1   
    18   12   13 2   
    19   12   14 1   
    20   14   15 1   
    21   14   18 1   
    22   15   16 1   
    23   15   46 1   
    24   15   70 1   
    25   16   17 1   
    26   16   47 1   
    27   16   71 1   
    28   17   18 ar  
    29   17   22 ar  
    30   18   19 ar  
    31   19   20 ar  
    32   19   48 1   
    33   20   21 ar  
    34   20   49 1   
    35   21   22 ar  
    36   21   23 1   
    37   22   50 1   
    38   23   24 1   
    39   24   25 ar  
    40   24   29 ar  
    41   25   26 ar  
    42   26   27 ar  
    43   26   51 1   
    44   27   28 ar  
    45   28   29 ar  
    46   28   30 1   
    47   29   52 1   
    48   30   31 1   
    49   30   53 1   
    50   31   32 2   
    51   31   33 1   
    52   33   54 1   
    53   33   55 1   
    54   33   56 1   
    55   34   35 1   
    56   34   57 1   
    57   34   58 1   
    58   35   36 1   
    59   35   40 1   
    60   36   37 1   
    61   36   59 1   
    62   36   60 1   
    63   37   38 1   
    64   37   61 1   
    65   37   62 1   
    66   38   39 1   
    67   38   41 1   
    68   39   40 1   
    69   39   63 1   
    70   39   64 1   
    71   40   65 1   
    72   40   66 1   
    73   41   67 1   
    74   41   68 1   
    75   41   69 1   
@<TRIPOS>SUBSTRUCTURE
     1 046         1 TEMP              0 ****  ****    0 ROOT
