@<TRIPOS>MOLECULE
046
   71    75     1     0     0
SMALL
bcc


@<TRIPOS>ATOM
      1 F1         -0.4430   -0.0310   -0.2590 f         1 046     -0.237967
      2 C2          0.9330   -0.0500   -0.2550 c3        1 046      0.688200
      3 F3          1.2580   -0.4170    1.0260 f         1 046     -0.237967
      4 F4          1.2380   -1.1690   -0.9960 f         1 046     -0.237967
      5 C5          1.5760    1.2430   -0.7550 ca        1 046     -0.123300
      6 C6          1.4650    2.4400   -0.0390 ca        1 046     -0.042300
      7 C7          2.0530    3.5920   -0.5740 ca        1 046     -0.113000
      8 C9          2.7440    3.5700   -1.7780 ca        1 046     -0.109000
      9 C11         2.8610    2.3620   -2.5000 ca        1 046      0.062600
     10 C12         2.2570    1.2000   -1.9720 ca        1 046     -0.144000
     11 N14         3.6080    2.2560   -3.6890 ns        1 046     -0.461100
     12 C16         3.7160    3.3070   -4.6260 c         1 046      0.780100
     13 O17         3.3100    4.4610   -4.3680 o         1 046     -0.610100
     14 N18         4.2780    3.0040   -5.8840 n         1 046     -0.366000
     15 C19         5.0780    1.7990   -6.1290 c3        1 046      0.076000
     16 C22         5.9200    2.0590   -7.4070 c3        1 046     -0.036100
     17 C25         5.5890    3.4710   -7.7630 ca        1 046     -0.126300
     18 C26         4.6460    4.0000   -6.8260 ca        1 046      0.057600
     19 C27         4.1810    5.3100   -6.9470 ca        1 046     -0.122000
     20 C29         4.6530    6.0890   -8.0090 ca        1 046     -0.097000
     21 C31         5.5640    5.5540   -8.9200 ca        1 046      0.074100
     22 C32         6.0560    4.2400   -8.8080 ca        1 046     -0.086000
     23 O34         5.9390    6.2670  -10.0650 os        1 046     -0.365400
     24 C35         6.7170    7.4000   -9.8940 ca        1 046      0.671600
     25 N36         7.1290    7.8220   -8.6680 nb        1 046     -0.762000
     26 C37         7.8900    8.9480   -8.6890 ca        1 046      0.684900
     27 N39         8.2780    9.6850   -9.7540 nb        1 046     -0.717000
     28 C40         7.8540    9.2360  -10.9840 ca        1 046      0.593200
     29 C41         7.0450    8.0650  -11.0980 ca        1 046     -0.443600
     30 N43         8.1810    9.9200  -12.1600 ns        1 046     -0.564400
     31 C45         9.1010   10.9660  -12.3220 c         1 046      0.667100
     32 O46         9.8480   11.3670  -11.4220 o         1 046     -0.524100
     33 C47         9.1340   11.5740  -13.7070 c3        1 046     -0.182100
     34 C51         0.7270    2.5400    1.2690 c3        1 046      0.209100
     35 N54         1.6040    2.3540    2.4170 n3        1 046     -0.730600
     36 C55         0.9200    1.7390    3.5460 c3        1 046      0.170300
     37 C58         1.8330    1.5590    4.7740 c3        1 046      0.168300
     38 N61         2.5360    2.7790    5.1460 n3        1 046     -0.732600
     39 C62         3.2280    3.3780    4.0140 c3        1 046      0.168300
     40 C65         2.3150    3.5670    2.7880 c3        1 046      0.170300
     41 C68         3.4040    2.5900    6.2860 c3        1 046      0.157100
     42 H1          1.9660    4.5440   -0.0250 ha        1 046      0.145000
     43 H2          3.1890    4.5010   -2.1690 ha        1 046      0.177000
     44 H3          2.3230    0.2410   -2.5130 ha        1 046      0.149000
     45 H4          3.7300    1.3230   -4.0210 hn        1 046      0.315500
     46 H5          4.3810    0.9310   -6.2830 h1        1 046      0.052700
     47 H6          7.0100    1.9300   -7.1980 hc        1 046      0.067700
     48 H7          3.4670    5.7310   -6.2210 ha        1 046      0.178000
     49 H8          4.3100    7.1280   -8.1190 ha        1 046      0.153000
     50 H9          6.7800    3.8520   -9.5380 ha        1 046      0.152000
     51 H10         8.2400    9.3140   -7.6990 h5        1 046      0.062100
     52 H11         6.6850    7.6760  -12.0560 ha        1 046      0.164000
     53 H12         7.7050    9.6030  -12.9760 hn        1 046      0.323500
     54 H13         8.1400   12.0090  -13.9700 hc        1 046      0.070367
     55 H14         9.8990   12.3890  -13.7160 hc        1 046      0.070367
     56 H15         9.4140   10.8080  -14.4690 hc        1 046      0.070367
     57 H16        -0.0780    1.7480    1.2900 h1        1 046      0.049700
     58 H17         0.2040    3.5440    1.3000 h1        1 046      0.049700
     59 H19         0.5820    0.7150    3.2200 h1        1 046      0.038700
     60 H20         0.0100    2.3310    3.8560 h1        1 046      0.038700
     61 H21         1.1830    1.2590    5.6420 h1        1 046      0.037950
     62 H22         2.5500    0.7110    4.5680 h1        1 046      0.037950
     63 H24         3.5910    4.3950    4.3320 h1        1 046      0.037950
     64 H25         4.1280    2.7690    3.7040 h1        1 046      0.037950
     65 H26         2.9650    3.8620    1.9160 h1        1 046      0.038700
     66 H27         1.6050    4.4210    2.9950 h1        1 046      0.038700
     67 H28         3.8450    3.5800    6.5710 h1        1 046      0.032033
     68 H29         2.7920    2.2060    7.1440 h1        1 046      0.032033
     69 H30         4.2430    1.8660    6.0940 h1        1 046      0.032033
     70 H31         5.7570    1.5760   -5.2610 h1        1 046      0.052700
     71 H32         5.6270    1.3520   -8.2220 hc        1 046      0.067700
@<TRIPOS>BOND
     1    1    2 1   
     2    2    3 1   
     3    2    4 1   
     4    2    5 1   
     5    5    6 ar  
     6    5   10 ar  
     7    6    7 ar  
     8    6   34 1   
     9    7    8 ar  
    10    7   42 1   
    11    8    9 ar  
    12    8   43 1   
    13    9   10 ar  
    14    9   11 1   
    15   10   44 1   
    16   11   12 1   
    17   11   45 1   
    18   12   13 2   
    19   12   14 1   
    20   14   15 1   
    21   14   18 1   
    22   15   16 1   
    23   15   46 1   
    24   15   70 1   
    25   16   17 1   
    26   16   47 1   
    27   16   71 1   
    28   17   18 ar  
    29   17   22 ar  
    30   18   19 ar  
    31   19   20 ar  
    32   19   48 1   
    33   20   21 ar  
    34   20   49 1   
    35   21   22 ar  
    36   21   23 1   
    37   22   50 1   
    38   23   24 1   
    39   24   25 ar  
    40   24   29 ar  
    41   25   26 ar  
    42   26   27 ar  
    43   26   51 1   
    44   27   28 ar  
    45   28   29 ar  
    46   28   30 1   
    47   29   52 1   
    48   30   31 1   
    49   30   53 1   
    50   31   32 2   
    51   31   33 1   
    52   33   54 1   
    53   33   55 1   
    54   33   56 1   
    55   34   35 1   
    56   34   57 1   
    57   34   58 1   
    58   35   36 1   
    59   35   40 1   
    60   36   37 1   
    61   36   59 1   
    62   36   60 1   
    63   37   38 1   
    64   37   61 1   
    65   37   62 1   
    66   38   39 1   
    67   38   41 1   
    68   39   40 1   
    69   39   63 1   
    70   39   64 1   
    71   40   65 1   
    72   40   66 1   
    73   41   67 1   
    74   41   68 1   
    75   41   69 1   
@<TRIPOS>SUBSTRUCTURE
     1 046         1 TEMP              0 ****  ****    0 ROOT
