@<TRIPOS>MOLECULE
046
   71    65     1     0     0
SMALL
bcc


@<TRIPOS>ATOM
      1 F1         -4.3050    1.8620    3.6140 f         1 046     -0.166000
      2 C2         -4.1260    0.5970    3.1930 c3        1 046      0.467000
      3 F3         -4.6630   -0.2540    4.0940 f         1 046     -0.166000
      4 F4         -4.7250    0.4310    2.0100 f         1 046     -0.166000
      5 C5         -2.6520    0.3150    3.0510 c1        1 046     -0.115000
      6 C6         -1.8540    0.1630    4.1950 c1        1 046     -0.037000
      7 C7         -0.4920   -0.1300    4.0630 c1        1 046     -0.113000
      8 C9          0.0760   -0.2710    2.7900 c1        1 046     -0.113000
      9 C11        -0.7220   -0.1190    1.6430 c1        1 046      0.072000
     10 C12        -2.0820    0.1740    1.7720 c1        1 046     -0.144000
     11 N14        -0.1240   -0.2380    0.3200 n2        1 046     -0.309000
     12 C16         0.1410   -1.5580   -0.2420 c1        1 046      0.395000
     13 O17        -0.1310   -2.5320    0.3780 o         1 046     -0.366000
     14 N18         0.6820   -1.6800   -1.5890 n2        1 046     -0.254000
     15 C19         0.9370   -2.9140   -2.2920 c3        1 046     -0.048000
     16 C22         1.4490   -2.5740   -3.6160 c3        1 046     -0.131000
     17 C25         1.3840   -1.0880   -3.7630 c2        1 046     -0.104000
     18 C26         0.9760   -0.5430   -2.5240 c2        1 046      0.048000
     19 C27         0.7410    0.8310   -2.4090 c1        1 046     -0.149000
     20 C29         0.9080    1.6630   -3.5180 c1        1 046     -0.100000
     21 C31         1.3190    1.1140   -4.7670 c1        1 046      0.033000
     22 C32         1.5520   -0.2490   -4.8800 c1        1 046     -0.079000
     23 O34         1.2530    1.9280   -5.9620 os        1 046     -0.149000
     24 C35         2.5650    2.2610   -6.3840 c2        1 046      0.173000
     25 N36         3.5030    2.5600   -5.4770 n2        1 046     -0.239000
     26 C37         4.7600    2.9240   -5.8830 c1        1 046      0.022000
     27 N39         5.0600    2.9820   -7.2150 n1        1 046     -0.190000
     28 C40         4.1230    2.6840   -8.1280 c1        1 046      0.186000
     29 C41         2.8620    2.3190   -7.7210 c1        1 046     -0.312000
     30 N43         4.4120    2.8620   -9.5690 n3        1 046     -0.331000
     31 C45         5.7350    3.3160  -10.0010 c1        1 046      0.312000
     32 O46         6.5870    3.5450   -9.1840 o         1 046     -0.284000
     33 C47         6.0680    3.3550  -11.4520 c2        1 046     -0.250000
     34 C51        -2.4410    0.4960    5.6020 c3        1 046     -0.035000
     35 N54        -2.8600   -0.7280    6.2530 n3        1 046     -0.256000
     36 C55        -4.0840   -0.4920    6.9800 c3        1 046     -0.066000
     37 C58        -4.5110   -1.6980    7.8110 c3        1 046     -0.068500
     38 N61        -3.4660   -2.1810    8.6450 n3        1 046     -0.258000
     39 C62        -2.2350   -2.4200    7.9170 c3        1 046     -0.068500
     40 C65        -1.8060   -1.2120    7.0920 c3        1 046     -0.066000
     41 C68        -3.8960   -3.4080    9.2860 c3        1 046     -0.119000
     42 H1          0.0660   -0.2370    4.8640 ha        1 046      0.160000
     43 H2          1.0320   -0.4760    2.7000 ha        1 046      0.160000
     44 H3         -2.6430    0.2810    0.9660 ha        1 046      0.151000
     45 H4         -0.0010    0.5200   -0.2020 hn        1 046      0.239000
     46 H5          1.6260   -3.4350   -1.7990 h1        1 046      0.112000
     47 H6          0.8710   -2.9970   -4.3060 hc        1 046      0.108500
     48 H7          0.4550    1.2180   -1.5320 ha        1 046      0.141000
     49 H8          0.7440    2.6090   -3.4400 ha        1 046      0.151000
     50 H9          1.8470   -0.6410   -5.7690 ha        1 046      0.157000
     51 H10         5.4590    3.1460   -5.2050 ha        1 046      0.199000
     52 H11         2.1580    2.0960   -8.4040 ha        1 046      0.165000
     53 H12         3.7520    2.6640  -10.2080 hn        1 046      0.237000
     54 H13         7.0030    3.0530  -11.5830 ha        1 046      0.110333
     55 H14         5.9710    4.2630  -11.7810 ha        1 046      0.110333
     56 H15         5.4660    2.7680  -11.9390 ha        1 046      0.110333
     57 H16        -1.7520    0.9420    6.1510 h1        1 046      0.088500
     58 H17        -3.1950    1.0790    5.5030 h1        1 046      0.088500
     59 H19        -4.8070   -0.2780    6.3300 h1        1 046      0.078000
     60 H20        -3.9550    0.2860    7.5870 h1        1 046      0.078000
     61 H21        -4.7950   -2.4180    7.2060 h1        1 046      0.077500
     62 H22        -5.2860   -1.4340    8.3860 h1        1 046      0.077500
     63 H24        -2.3660   -3.1880    7.3130 h1        1 046      0.077500
     64 H25        -1.4980   -2.6440    8.5780 h1        1 046      0.077500
     65 H26        -1.0390   -1.4650    6.5270 h1        1 046      0.078000
     66 H27        -1.5250   -0.4830    7.7090 h1        1 046      0.078000
     67 H28        -3.2410   -3.6710    9.9600 h1        1 046      0.071333
     68 H29        -3.9770   -4.1170    8.6150 h1        1 046      0.071333
     69 H30        -4.7590   -3.2660    9.7130 h1        1 046      0.071333
     70 H31         0.0970   -3.4090   -2.3880 h1        1 046      0.112000
     71 H32         2.3740   -2.8610   -3.6860 hc        1 046      0.108500
@<TRIPOS>BOND
     1    1    2 1   
     2    2    3 1   
     3    2    4 1   
     4    2    5 1   
     5    5    6 1   
     6    6   34 1   
     7    7    8 1   
     8    7   42 1   
     9    8   43 1   
    10    9   10 1   
    11   10   44 1   
    12   11   12 1   
    13   11   45 1   
    14   12   13 1   
    15   14   15 1   
    16   14   18 1   
    17   15   16 1   
    18   15   46 1   
    19   15   70 1   
    20   16   17 1   
    21   16   47 1   
    22   16   71 1   
    23   17   18 1   
    24   17   22 1   
    25   18   19 1   
    26   19   48 1   
    27   20   21 1   
    28   20   49 1   
    29   21   23 1   
    30   22   50 1   
    31   23   24 1   
    32   24   25 1   
    33   24   29 1   
    34   25   26 1   
    35   26   51 1   
    36   27   28 1   
    37   28   30 1   
    38   29   52 1   
    39   30   31 1   
    40   30   53 1   
    41   31   32 1   
    42   33   54 1   
    43   33   55 1   
    44   33   56 1   
    45   34   35 1   
    46   34   57 1   
    47   34   58 1   
    48   35   36 1   
    49   35   40 1   
    50   36   37 1   
    51   36   59 1   
    52   36   60 1   
    53   37   38 1   
    54   37   61 1   
    55   37   62 1   
    56   38   39 1   
    57   38   41 1   
    58   39   40 1   
    59   39   63 1   
    60   39   64 1   
    61   40   65 1   
    62   40   66 1   
    63   41   67 1   
    64   41   68 1   
    65   41   69 1   
@<TRIPOS>SUBSTRUCTURE
     1 046         1 TEMP              0 ****  ****    0 ROOT
