@<TRIPOS>MOLECULE
046
   73    77     1     0     0
SMALL
bcc


@<TRIPOS>ATOM
      1 F1          0.1680    0.7680   -1.9250 f         1 046     -0.218633
      2 C2          1.3520    0.0770   -1.8830 c3        1 046      0.691200
      3 F3          1.1470   -0.9430   -0.9920 f         1 046     -0.218633
      4 F4          1.4230   -0.5420   -3.1080 f         1 046     -0.218633
      5 C5          2.5730    0.9500   -1.5610 ca        1 046     -0.166300
      6 C6          2.5850    1.8160   -0.4530 ca        1 046      0.047700
      7 C7          3.7310    2.5990   -0.2270 ca        1 046     -0.094000
      8 C9          4.8390    2.5180   -1.0580 ca        1 046     -0.073000
      9 C11         4.8150    1.6310   -2.1540 ca        1 046     -0.090400
     10 C12         3.6800    0.8460   -2.4040 ca        1 046     -0.070000
     11 N14         5.9960    1.5010   -3.0070 n4        1 046     -0.519200
     12 C16         6.2900    2.8000   -3.7760 c         1 046      0.655100
     13 O17         7.1620    3.4970   -3.2430 o         1 046     -0.497100
     14 N18         5.6410    3.0150   -4.9560 n         1 046     -0.329000
     15 C19         4.5500    2.1980   -5.5080 c3        1 046      0.073000
     16 C22         3.9780    2.9810   -6.7210 c3        1 046     -0.038100
     17 C25         4.8030    4.2250   -6.7670 ca        1 046     -0.088300
     18 C26         5.7640    4.2220   -5.7110 ca        1 046      0.029600
     19 C27         6.6610    5.2740   -5.5370 ca        1 046     -0.102000
     20 C29         6.5960    6.3500   -6.4330 ca        1 046     -0.088000
     21 C31         5.6500    6.3420   -7.4580 ca        1 046      0.079100
     22 C32         4.7440    5.2820   -7.6540 ca        1 046     -0.072000
     23 O34         5.4580    7.4730   -8.2700 os        1 046     -0.336400
     24 C35         6.4560    7.8330   -9.1420 ca        1 046      0.691600
     25 N36         7.6310    7.1650   -9.2440 nb        1 046     -0.706000
     26 C37         8.5070    7.6530  -10.1660 ca        1 046      0.719900
     27 N39         8.3320    8.7230  -10.9780 nb        1 046     -0.720000
     28 C40         7.1370    9.3780  -10.8430 ca        1 046      0.528200
     29 C41         6.1390    8.9850   -9.9380 ca        1 046     -0.335600
     30 N43         6.9120   10.5520  -11.7130 n4        1 046     -0.685500
     31 C45         6.9420   10.1550  -13.2050 c         1 046      0.580100
     32 O46         5.8900    9.7160  -13.6250 o         1 046     -0.387100
     33 C47         8.2350   10.3930  -13.8960 c3        1 046     -0.185100
     34 C51         1.3730    1.9170    0.4380 c3        1 046      0.185100
     35 N54         1.6310    2.5460    1.7200 n3        1 046     -0.749600
     36 C55         2.0600    1.5900    2.7350 c3        1 046      0.166800
     37 C58         2.2950    2.2400    4.1120 c3        1 046      0.170300
     38 N61         1.1610    3.0380    4.5490 n3        1 046     -0.732600
     39 C62         0.7650    4.0160    3.5480 c3        1 046      0.170300
     40 C65         0.5190    3.3810    2.1660 c3        1 046      0.166800
     41 C68         1.3520    3.6190    5.8590 c3        1 046      0.155100
     42 H1          3.7580    3.2950    0.6340 ha        1 046      0.204000
     43 H2          5.7240    3.1460   -0.8560 ha        1 046      0.173000
     44 H3          3.6450    0.1340   -3.2480 ha        1 046      0.165000
     45 H4          5.8800    0.7080   -3.6460 hn        1 046      0.471800
     46 H5          3.7550    2.0340   -4.7310 h1        1 046      0.071700
     47 H6          4.0830    2.3810   -7.6590 hc        1 046      0.097200
     48 H7          7.4040    5.2770   -4.7220 ha        1 046      0.184000
     49 H8          7.2930    7.1950   -6.3180 ha        1 046      0.169000
     50 H9          4.0100    5.3120   -8.4730 ha        1 046      0.175000
     51 H10         9.4780    7.1120  -10.2650 h5        1 046      0.103100
     52 H11         5.1680    9.4840   -9.8120 ha        1 046      0.200000
     53 H12         5.9940   10.9530  -11.4820 hn        1 046      0.472300
     54 H13         8.1360   10.0390  -14.9580 hc        1 046      0.125033
     55 H14         9.0680    9.8270  -13.4020 hc        1 046      0.125033
     56 H15         8.4860   11.4860  -13.9050 hc        1 046      0.125033
     57 H16         0.9450    0.8740    0.5580 h1        1 046      0.080200
     58 H17         0.6080    2.5200   -0.1400 h1        1 046      0.080200
     59 H19         1.3140    0.7510    2.8550 h1        1 046      0.043700
     60 H20         3.0340    1.1430    2.3910 h1        1 046      0.043700
     61 H21         3.2460    2.8470    4.0700 h1        1 046      0.044200
     62 H22         2.4460    1.4110    4.8590 h1        1 046      0.044200
     63 H24        -0.2020    4.4840    3.8840 h1        1 046      0.044200
     64 H25         1.5300    4.8390    3.4390 h1        1 046      0.044200
     65 H26         0.3950    4.2160    1.4210 h1        1 046      0.043700
     66 H27        -0.4450    2.7960    2.2030 h1        1 046      0.043700
     67 H28         1.5630    2.7950    6.5900 h1        1 046      0.041700
     68 H29         2.1980    4.3590    5.8970 h1        1 046      0.041700
     69 H30         0.4060    4.1380    6.1630 h1        1 046      0.041700
     70 H31         4.9660    1.2080   -5.8400 h1        1 046      0.071700
     71 H32         2.8930    3.2110   -6.5650 hc        1 046      0.097200
     72 H142        6.8180    1.3350   -2.4030 hn        1 046      0.471800
     73 H432        7.6450   11.2500  -11.5330 hn        1 046      0.472300
@<TRIPOS>BOND
     1    1    2 1   
     2    2    3 1   
     3    2    4 1   
     4    2    5 1   
     5    5    6 ar  
     6    5   10 ar  
     7    6    7 ar  
     8    6   34 1   
     9    7    8 ar  
    10    7   42 1   
    11    8    9 ar  
    12    8   43 1   
    13    9   10 ar  
    14    9   11 1   
    15   10   44 1   
    16   11   12 1   
    17   11   45 1   
    18   11   72 1   
    19   12   13 2   
    20   12   14 1   
    21   14   15 1   
    22   14   18 1   
    23   15   16 1   
    24   15   46 1   
    25   15   70 1   
    26   16   17 1   
    27   16   47 1   
    28   16   71 1   
    29   17   18 ar  
    30   17   22 ar  
    31   18   19 ar  
    32   19   20 ar  
    33   19   48 1   
    34   20   21 ar  
    35   20   49 1   
    36   21   22 ar  
    37   21   23 1   
    38   22   50 1   
    39   23   24 1   
    40   24   25 ar  
    41   24   29 ar  
    42   25   26 ar  
    43   26   27 ar  
    44   26   51 1   
    45   27   28 ar  
    46   28   29 ar  
    47   28   30 1   
    48   29   52 1   
    49   30   31 1   
    50   30   53 1   
    51   30   73 1   
    52   31   32 2   
    53   31   33 1   
    54   33   54 1   
    55   33   55 1   
    56   33   56 1   
    57   34   35 1   
    58   34   57 1   
    59   34   58 1   
    60   35   36 1   
    61   35   40 1   
    62   36   37 1   
    63   36   59 1   
    64   36   60 1   
    65   37   38 1   
    66   37   61 1   
    67   37   62 1   
    68   38   39 1   
    69   38   41 1   
    70   39   40 1   
    71   39   63 1   
    72   39   64 1   
    73   40   65 1   
    74   40   66 1   
    75   41   67 1   
    76   41   68 1   
    77   41   69 1   
@<TRIPOS>SUBSTRUCTURE
     1 046         1 TEMP              0 ****  ****    0 ROOT
