@<TRIPOS>MOLECULE
047
   53    52     1     0     0
SMALL
bcc


@<TRIPOS>ATOM
      1 N1          0.5950    0.0430   -2.5700 na        1 047     -0.129000
      2 C2          2.2010    0.0330   -2.5780 c2        1 047      0.011000
      3 C3          2.5760    0.0030   -1.1350 c2        1 047     -0.073000
      4 C4          1.3120   -0.0040   -0.4490 c2        1 047     -0.158000
      5 C5          0.2730    0.0170   -1.2500 c2        1 047     -0.047000
      6 C7          1.2060    0.5860    0.9600 c3        1 047     -0.004000
      7 N10         0.3540   -0.2510    1.7720 n3        1 047     -0.307000
      8 C12         0.1890    0.3570    3.0850 c3        1 047     -0.071000
      9 C15        -0.8030   -0.4790    3.9210 c3        1 047     -0.105000
     10 C17        -2.1680    0.1740    3.8600 c3        1 047     -0.152000
     11 C20        -2.2130    1.5090    4.6080 c3        1 047     -0.156000
     12 C23        -1.6870    1.3970    6.0330 c3        1 047     -0.155000
     13 C26        -0.3200    0.7450    6.0970 c3        1 047     -0.156000
     14 C29        -0.2740   -0.5910    5.3510 c3        1 047     -0.152000
     15 C32         3.9020    0.0100   -0.7700 c1        1 047     -0.088000
     16 C34         4.9070    0.0450   -1.7630 c1        1 047     -0.135500
     17 C36         4.5480    0.0740   -3.1540 c1        1 047     -0.135500
     18 C38         3.1830    0.0680   -3.5370 c1        1 047     -0.139000
     19 C40        -0.2540   -0.3390   -3.6510 c2        1 047      0.061000
     20 C41        -0.8260    0.6420   -4.4710 c2        1 047     -0.144000
     21 C43        -1.7050    0.2740   -5.4880 c1        1 047     -0.114000
     22 C45        -2.0180   -1.0790   -5.6890 c1        1 047     -0.078000
     23 C46        -1.4430   -2.0640   -4.8660 c1        1 047     -0.113000
     24 C48        -0.5670   -1.6960   -3.8530 c1        1 047     -0.144000
     25 C50        -2.9960   -1.4720   -6.7570 c3        1 047     -0.179000
     26 H5         -0.5820    0.4090   -0.9410 h4        1 047      0.180000
     27 H71         2.1050    0.6310    1.3650 h1        1 047      0.076500
     28 H72         0.8290    1.4800    0.9080 h1        1 047      0.076500
     29 HN10       -0.4700   -0.3360    1.3680 hn        1 047      0.155000
     30 H121        1.0610    0.3880    3.5440 h1        1 047      0.070000
     31 H122       -0.1600    1.2770    2.9810 h1        1 047      0.070000
     32 H15        -0.8650   -1.3810    3.5330 hc        1 047      0.098000
     33 H171       -2.8380   -0.4440    4.2620 hc        1 047      0.079250
     34 H172       -2.4050    0.3290    2.9150 hc        1 047      0.079250
     35 H201       -1.6740    2.1600    4.1230 hc        1 047      0.078500
     36 H202       -3.1420    1.8250    4.6370 hc        1 047      0.078500
     37 H231       -1.6260    2.3240    6.4330 hc        1 047      0.078000
     38 H232       -2.3100    0.8690    6.5570 hc        1 047      0.078000
     39 H261        0.3330    1.3460    5.7060 hc        1 047      0.078500
     40 H262       -0.0850    0.5920    7.0420 hc        1 047      0.078500
     41 H291        0.6600   -0.9080    5.3220 hc        1 047      0.079250
     42 H292       -0.8180   -1.2490    5.8410 hc        1 047      0.079250
     43 H32         4.1520   -0.0100    0.1880 ha        1 047      0.133000
     44 H34         5.8650    0.0500   -1.4990 ha        1 047      0.129500
     45 H36         5.2370    0.0980   -3.8280 ha        1 047      0.129500
     46 H38         2.9350    0.0880   -4.5050 ha        1 047      0.138000
     47 H41        -0.6080    1.5870   -4.3300 ha        1 047      0.147000
     48 H43        -2.1140    0.9760   -6.0750 ha        1 047      0.136000
     49 H46        -1.6640   -3.0250   -5.0090 ha        1 047      0.136000
     50 H48        -0.1560   -2.3990   -3.2650 ha        1 047      0.143000
     51 H501       -3.4070   -2.3470   -6.5260 hc        1 047      0.085333
     52 H502       -3.7020   -0.7850   -6.8260 hc        1 047      0.085333
     53 H503       -2.5230   -1.5480   -7.6260 hc        1 047      0.085333
@<TRIPOS>BOND
     1    1    2 1   
     2    1    5 1   
     3    1   19 1   
     4    2    3 1   
     5    2   18 1   
     6    3    4 1   
     7    3   15 1   
     8    4    5 1   
     9    4    6 1   
    10    5   26 1   
    11    6    7 1   
    12    6   27 1   
    13    6   28 1   
    14    7    8 1   
    15    7   29 1   
    16    8    9 1   
    17    8   30 1   
    18    8   31 1   
    19    9   10 1   
    20    9   14 1   
    21    9   32 1   
    22   10   11 1   
    23   10   33 1   
    24   10   34 1   
    25   11   12 1   
    26   11   35 1   
    27   11   36 1   
    28   12   13 1   
    29   12   37 1   
    30   12   38 1   
    31   13   14 1   
    32   13   39 1   
    33   13   40 1   
    34   14   41 1   
    35   14   42 1   
    36   15   43 1   
    37   16   17 1   
    38   16   44 1   
    39   17   45 1   
    40   18   46 1   
    41   19   20 1   
    42   19   24 1   
    43   20   21 1   
    44   20   47 1   
    45   21   48 1   
    46   22   23 1   
    47   22   25 1   
    48   23   49 1   
    49   24   50 1   
    50   25   51 1   
    51   25   52 1   
    52   25   53 1   
@<TRIPOS>SUBSTRUCTURE
     1 047         1 TEMP              0 ****  ****    0 ROOT
