@<TRIPOS>MOLECULE
047
   54    57     1     0     0
SMALL
bcc


@<TRIPOS>ATOM
      1 N1         -0.1740    0.0170   -0.1300 na        1 047      0.040500
      2 C2          1.2300    0.1290   -0.0380 ca        1 047     -0.044200
      3 C3          1.5780    0.2140    1.3600 ca        1 047     -0.079800
      4 C4          0.3330    0.1510    2.0940 cc        1 047     -0.299400
      5 C5         -0.7010    0.0270    1.1510 cd        1 047     -0.012100
      6 C7          0.1960    0.1630    3.5480 c3        1 047      0.227000
      7 N10         0.4920    1.5420    4.0900 n4        1 047     -0.772000
      8 C12         0.4180    1.5950    5.5750 c3        1 047      0.098800
      9 C15         0.6730    2.9940    6.1430 c3        1 047     -0.089700
     10 C17         2.1070    3.4430    5.9020 c3        1 047     -0.078400
     11 C20         2.3670    4.7910    6.5460 c3        1 047     -0.077900
     12 C23         2.0480    4.7680    8.0260 c3        1 047     -0.083400
     13 C26         0.6270    4.3070    8.2730 c3        1 047     -0.077900
     14 C29         0.3670    2.9570    7.6370 c3        1 047     -0.078400
     15 C32         2.9200    0.3210    1.7310 ca        1 047     -0.129000
     16 C34         3.8890    0.3430    0.7390 ca        1 047     -0.111000
     17 C36         3.5430    0.2580   -0.6220 ca        1 047     -0.109000
     18 C38         2.2230    0.1470   -1.0310 ca        1 047     -0.105000
     19 C40        -0.9330   -0.1150   -1.3190 ca        1 047     -0.043200
     20 C41        -1.9610   -1.0770   -1.3980 ca        1 047     -0.122500
     21 C43        -2.7100   -1.1950   -2.5630 ca        1 047     -0.116500
     22 C45        -2.4560   -0.3740   -3.6690 ca        1 047     -0.047300
     23 C46        -1.4330    0.5790   -3.5860 ca        1 047     -0.116500
     24 C48        -0.6760    0.7170   -2.4270 ca        1 047     -0.122500
     25 C50        -3.2450   -0.5220   -4.9120 c3        1 047     -0.066800
     26 H5         -1.7800   -0.0650    1.3150 h4        1 047      0.184000
     27 H71         0.9350   -0.5410    4.0300 hx        1 047      0.098700
     28 H72        -0.8470   -0.1130    3.8730 hx        1 047      0.098700
     29 HN10       -0.1700    2.2130    3.6860 hn        1 047      0.447800
     30 H121       -0.6090    1.2440    5.8800 hx        1 047      0.100200
     31 H122        1.1810    0.8730    5.9860 hx        1 047      0.100200
     32 H15        -0.0270    3.7320    5.6590 hc        1 047      0.067700
     33 H171        2.8140    2.6830    6.3270 hc        1 047      0.045700
     34 H172        2.3110    3.5240    4.8020 hc        1 047      0.045700
     35 H201        1.7440    5.5740    6.0390 hc        1 047      0.056950
     36 H202        3.4440    5.0670    6.3960 hc        1 047      0.056950
     37 H231        2.1870    5.7960    8.4530 hc        1 047      0.058200
     38 H232        2.7630    4.0850    8.5550 hc        1 047      0.058200
     39 H261       -0.0920    5.0620    7.8600 hc        1 047      0.056950
     40 H262        0.4410    4.2340    9.3770 hc        1 047      0.056950
     41 H291       -0.7050    2.6670    7.7950 hc        1 047      0.045700
     42 H292        1.0080    2.1790    8.1300 hc        1 047      0.045700
     43 H32         3.2030    0.3640    2.7910 ha        1 047      0.118000
     44 H34         4.9530    0.4210    1.0140 ha        1 047      0.148000
     45 H36         4.3440    0.2720   -1.3790 ha        1 047      0.153000
     46 H38         1.9580    0.0660   -2.0960 ha        1 047      0.158000
     47 H41        -2.1720   -1.7440   -0.5480 ha        1 047      0.145000
     48 H43        -3.5110   -1.9500   -2.6180 ha        1 047      0.151500
     49 H46        -1.2260    1.2320   -4.4480 ha        1 047      0.151500
     50 H48         0.1190    1.4780   -2.3850 ha        1 047      0.145000
     51 H501       -2.7490   -1.2630   -5.5900 hc        1 047      0.058700
     52 H502       -3.3240    0.4510   -5.4560 hc        1 047      0.058700
     53 H503       -4.2780   -0.8890   -4.6910 hc        1 047      0.058700
     54 H102        1.4330    1.8170    3.7800 hn        1 047      0.447800
@<TRIPOS>BOND
     1    1    2 1   
     2    1    5 1   
     3    1   19 1   
     4    2    3 ar  
     5    2   18 ar  
     6    3    4 1   
     7    3   15 ar  
     8    4    5 2   
     9    4    6 1   
    10    5   26 1   
    11    6    7 1   
    12    6   27 1   
    13    6   28 1   
    14    7    8 1   
    15    7   29 1   
    16    7   54 1   
    17    8    9 1   
    18    8   30 1   
    19    8   31 1   
    20    9   10 1   
    21    9   14 1   
    22    9   32 1   
    23   10   11 1   
    24   10   33 1   
    25   10   34 1   
    26   11   12 1   
    27   11   35 1   
    28   11   36 1   
    29   12   13 1   
    30   12   37 1   
    31   12   38 1   
    32   13   14 1   
    33   13   39 1   
    34   13   40 1   
    35   14   41 1   
    36   14   42 1   
    37   15   16 ar  
    38   15   43 1   
    39   16   17 ar  
    40   16   44 1   
    41   17   18 ar  
    42   17   45 1   
    43   18   46 1   
    44   19   20 ar  
    45   19   24 ar  
    46   20   21 ar  
    47   20   47 1   
    48   21   22 ar  
    49   21   48 1   
    50   22   23 ar  
    51   22   25 1   
    52   23   24 ar  
    53   23   49 1   
    54   24   50 1   
    55   25   51 1   
    56   25   52 1   
    57   25   53 1   
@<TRIPOS>SUBSTRUCTURE
     1 047         1 TEMP              0 ****  ****    0 ROOT
