@<TRIPOS>MOLECULE
047
   54    57     1     0     0
SMALL
bcc


@<TRIPOS>ATOM
      1 N1         -0.1700    0.0210   -0.1330 na        1 047      0.040500
      2 C2          1.2340    0.1430   -0.0440 ca        1 047     -0.044200
      3 C3          1.5840    0.2260    1.3540 ca        1 047     -0.079800
      4 C4          0.3410    0.1510    2.0910 cc        1 047     -0.299400
      5 C5         -0.6940    0.0220    1.1490 cd        1 047     -0.012100
      6 C7          0.2070    0.1570    3.5440 c3        1 047      0.227000
      7 N10         0.4960    1.5360    4.0900 ny        1 047     -0.772000
      8 C12         0.4250    1.5840    5.5760 c3        1 047      0.098800
      9 C15         0.6710    2.9830    6.1480 c3        1 047     -0.089700
     10 C17         2.1010    3.4430    5.9040 c3        1 047     -0.078400
     11 C20         2.3530    4.7910    6.5530 c3        1 047     -0.077900
     12 C23         2.0380    4.7610    8.0330 c3        1 047     -0.083400
     13 C26         0.6210    4.2880    8.2820 c3        1 047     -0.077900
     14 C29         0.3690    2.9380    7.6430 c3        1 047     -0.078400
     15 C32         2.9260    0.3410    1.7210 ca        1 047     -0.129000
     16 C34         3.8920    0.3740    0.7270 ca        1 047     -0.111000
     17 C36         3.5430    0.2900   -0.6330 ca        1 047     -0.109000
     18 C38         2.2230    0.1710   -1.0400 ca        1 047     -0.105000
     19 C40        -0.9310   -0.1130   -1.3200 ca        1 047     -0.043200
     20 C41        -1.9520   -1.0820   -1.4000 ca        1 047     -0.122500
     21 C43        -2.7030   -1.2020   -2.5640 ca        1 047     -0.116500
     22 C45        -2.4570   -0.3760   -3.6680 ca        1 047     -0.047300
     23 C46        -1.4420    0.5840   -3.5840 ca        1 047     -0.116500
     24 C48        -0.6820    0.7240   -2.4270 ca        1 047     -0.122500
     25 C50        -3.2490   -0.5260   -4.9090 c3        1 047     -0.066800
     26 H5         -1.7720   -0.0780    1.3150 h4        1 047      0.184000
     27 H71        -0.8330   -0.1280    3.8710 hx        1 047      0.098700
     28 H72         0.9530   -0.5430    4.0230 hx        1 047      0.098700
     29 HN10        1.4340    1.8190    3.7790 hn        1 047      0.447800
     30 H121       -0.5990    1.2240    5.8830 hx        1 047      0.100200
     31 H122        1.1940    0.8660    5.9820 hx        1 047      0.100200
     32 H15        -0.0360    3.7180    5.6680 hc        1 047      0.067700
     33 H171        2.3020    3.5290    4.8040 hc        1 047      0.045700
     34 H172        2.8150    2.6870    6.3260 hc        1 047      0.045700
     35 H201        1.7230    5.5710    6.0500 hc        1 047      0.056950
     36 H202        3.4270    5.0750    6.4010 hc        1 047      0.056950
     37 H231        2.1710    5.7880    8.4630 hc        1 047      0.058200
     38 H232        2.7590    4.0810    8.5580 hc        1 047      0.058200
     39 H261       -0.1050    5.0400    7.8730 hc        1 047      0.056950
     40 H262        0.4380    4.2100    9.3860 hc        1 047      0.056950
     41 H291       -0.7010    2.6410    7.8020 hc        1 047      0.045700
     42 H292        1.0170    2.1640    8.1320 hc        1 047      0.045700
     43 H32         3.2120    0.3820    2.7810 ha        1 047      0.118000
     44 H34         4.9560    0.4580    1.0000 ha        1 047      0.148000
     45 H36         4.3420    0.3120   -1.3920 ha        1 047      0.153000
     46 H38         1.9570    0.0910   -2.1040 ha        1 047      0.158000
     47 H41        -2.1570   -1.7530   -0.5510 ha        1 047      0.145000
     48 H43        -3.4990   -1.9620   -2.6190 ha        1 047      0.151500
     49 H46        -1.2400    1.2410   -4.4450 ha        1 047      0.151500
     50 H48         0.1080    1.4900   -2.3840 ha        1 047      0.145000
     51 H501       -4.2830   -0.8870   -4.6850 hc        1 047      0.058700
     52 H502       -3.3240    0.4450   -5.4580 hc        1 047      0.058700
     53 H503       -2.7570   -1.2720   -5.5840 hc        1 047      0.058700
     54 H102       -0.1720    2.2040    3.6910 hn        1 047      0.447800
@<TRIPOS>BOND
     1    1    2 1   
     2    1    5 1   
     3    1   19 1   
     4    2    3 ar  
     5    2   18 ar  
     6    3    4 1   
     7    3   15 ar  
     8    4    5 2   
     9    4    6 1   
    10    5   26 1   
    11    6    7 1   
    12    6   27 1   
    13    6   28 1   
    14    7    8 1   
    15    7   29 1   
    16    7   54 1   
    17    8    9 1   
    18    8   30 1   
    19    8   31 1   
    20    9   10 1   
    21    9   14 1   
    22    9   32 1   
    23   10   11 1   
    24   10   33 1   
    25   10   34 1   
    26   11   12 1   
    27   11   35 1   
    28   11   36 1   
    29   12   13 1   
    30   12   37 1   
    31   12   38 1   
    32   13   14 1   
    33   13   39 1   
    34   13   40 1   
    35   14   41 1   
    36   14   42 1   
    37   15   16 ar  
    38   15   43 1   
    39   16   17 ar  
    40   16   44 1   
    41   17   18 ar  
    42   17   45 1   
    43   18   46 1   
    44   19   20 ar  
    45   19   24 ar  
    46   20   21 ar  
    47   20   47 1   
    48   21   22 ar  
    49   21   48 1   
    50   22   23 ar  
    51   22   25 1   
    52   23   24 ar  
    53   23   49 1   
    54   24   50 1   
    55   25   51 1   
    56   25   52 1   
    57   25   53 1   
@<TRIPOS>SUBSTRUCTURE
     1 047         1 TEMP              0 ****  ****    0 ROOT
