@<TRIPOS>MOLECULE
047
   53    56     1     0     0
SMALL
bcc


@<TRIPOS>ATOM
      1 N1          7.9870   -4.9900   -0.7560 na        1 047     -0.009500
      2 C2          9.0550   -4.5100   -1.5350 ca        1 047     -0.033200
      3 C3          8.5820   -3.3610   -2.2760 ca        1 047     -0.086800
      4 C4          7.1920   -3.1730   -1.9100 cc        1 047     -0.177400
      5 C5          6.8700   -4.1680   -0.9950 cd        1 047     -0.085100
      6 C7          6.2950   -2.1010   -2.4070 c3        1 047      0.230000
      7 N10         5.9870   -2.1100   -3.8220 n3        1 047     -0.812200
      8 C12         5.0780   -3.1690   -4.2210 c3        1 047      0.157800
      9 C15         5.0300   -3.4110   -5.7350 c3        1 047     -0.065700
     10 C17         4.4760   -2.2000   -6.4700 c3        1 047     -0.072400
     11 C20         4.3590   -2.4660   -7.9570 c3        1 047     -0.076900
     12 C23         3.5180   -3.6950   -8.2350 c3        1 047     -0.076400
     13 C26         4.0580   -4.9040   -7.4980 c3        1 047     -0.076900
     14 C29         4.1730   -4.6390   -6.0120 c3        1 047     -0.072400
     15 C32         9.4550   -2.6810   -3.1250 ca        1 047     -0.089000
     16 C34        10.7650   -3.1240   -3.2370 ca        1 047     -0.153000
     17 C36        11.2220   -4.2330   -2.5060 ca        1 047     -0.116000
     18 C38        10.3870   -4.9350   -1.6490 ca        1 047     -0.139000
     19 C40         7.9880   -6.1080    0.0980 ca        1 047      0.014800
     20 C41         7.2810   -6.0670    1.3200 ca        1 047     -0.144000
     21 C43         7.2720   -7.1760    2.1590 ca        1 047     -0.113500
     22 C45         7.9630   -8.3440    1.8170 ca        1 047     -0.084300
     23 C46         8.6630   -8.3840    0.6070 ca        1 047     -0.113500
     24 C48         8.6770   -7.2900   -0.2500 ca        1 047     -0.144000
     25 C50         7.9390   -9.5210    2.7140 c3        1 047     -0.053800
     26 H5          5.9230   -4.3680   -0.4890 h4        1 047      0.170000
     27 H71         5.3240   -2.1360   -1.8340 h1        1 047      0.056200
     28 H72         6.7850   -1.1050   -2.1950 h1        1 047      0.056200
     29 HN10        6.8350   -2.1590   -4.3590 hn        1 047      0.357800
     30 H121        5.3350   -4.1500   -3.7210 h1        1 047      0.032200
     31 H122        4.0500   -2.8720   -3.8670 h1        1 047      0.032200
     32 H15         6.0710   -3.6150   -6.1130 hc        1 047      0.047700
     33 H171        5.1460   -1.3170   -6.3010 hc        1 047      0.043200
     34 H172        3.4680   -1.9420   -6.0530 hc        1 047      0.043200
     35 H201        5.3820   -2.6080   -8.3930 hc        1 047      0.038200
     36 H202        3.8990   -1.5760   -8.4600 hc        1 047      0.038200
     37 H231        2.4600   -3.5050   -7.9130 hc        1 047      0.037700
     38 H232        3.5040   -3.9010   -9.3360 hc        1 047      0.037700
     39 H261        3.3830   -5.7820   -7.6700 hc        1 047      0.038200
     40 H262        5.0680   -5.1710   -7.9090 hc        1 047      0.038200
     41 H291        3.1500   -4.4840   -5.5780 hc        1 047      0.043200
     42 H292        4.6230   -5.5320   -5.5060 hc        1 047      0.043200
     43 H32         9.1030   -1.8050   -3.6880 ha        1 047      0.135000
     44 H34        11.4640   -2.5980   -3.9040 ha        1 047      0.131000
     45 H36        12.2710   -4.5490   -2.6130 ha        1 047      0.130000
     46 H38        10.7620   -5.7900   -1.0680 ha        1 047      0.138000
     47 H41         6.7370   -5.1570    1.6180 ha        1 047      0.144000
     48 H43         6.7180   -7.1290    3.1100 ha        1 047      0.137000
     49 H46         9.2090   -9.2970    0.3240 ha        1 047      0.137000
     50 H48         9.2220   -7.3540   -1.2050 ha        1 047      0.144000
     51 H501        8.8710  -10.1290    2.6020 hc        1 047      0.046033
     52 H502        7.8480   -9.2070    3.7830 hc        1 047      0.046033
     53 H503        7.0640  -10.1730    2.4640 hc        1 047      0.046033
@<TRIPOS>BOND
     1    1    2 1   
     2    1    5 1   
     3    1   19 1   
     4    2    3 ar  
     5    2   18 ar  
     6    3    4 1   
     7    3   15 ar  
     8    4    5 2   
     9    4    6 1   
    10    5   26 1   
    11    6    7 1   
    12    6   27 1   
    13    6   28 1   
    14    7    8 1   
    15    7   29 1   
    16    8    9 1   
    17    8   30 1   
    18    8   31 1   
    19    9   10 1   
    20    9   14 1   
    21    9   32 1   
    22   10   11 1   
    23   10   33 1   
    24   10   34 1   
    25   11   12 1   
    26   11   35 1   
    27   11   36 1   
    28   12   13 1   
    29   12   37 1   
    30   12   38 1   
    31   13   14 1   
    32   13   39 1   
    33   13   40 1   
    34   14   41 1   
    35   14   42 1   
    36   15   16 ar  
    37   15   43 1   
    38   16   17 ar  
    39   16   44 1   
    40   17   18 ar  
    41   17   45 1   
    42   18   46 1   
    43   19   20 ar  
    44   19   24 ar  
    45   20   21 ar  
    46   20   47 1   
    47   21   22 ar  
    48   21   48 1   
    49   22   23 ar  
    50   22   25 1   
    51   23   24 ar  
    52   23   49 1   
    53   24   50 1   
    54   25   51 1   
    55   25   52 1   
    56   25   53 1   
@<TRIPOS>SUBSTRUCTURE
     1 047         1 TEMP              0 ****  ****    0 ROOT
