@<TRIPOS>MOLECULE
047
   54    57     1     0     0
SMALL
bcc


@<TRIPOS>ATOM
      1 N1         -0.1730    0.0320   -0.1330 na        1 047      0.040500
      2 C2          1.2300    0.1540   -0.0440 ca        1 047     -0.044200
      3 C3          1.5810    0.2380    1.3530 ca        1 047     -0.079800
      4 C4          0.3380    0.1630    2.0910 cc        1 047     -0.299400
      5 C5         -0.6970    0.0340    1.1490 cd        1 047     -0.012100
      6 C7          0.2040    0.1700    3.5440 c3        1 047      0.227000
      7 N10         0.4950    1.5480    4.0900 n4        1 047     -0.772000
      8 C12         0.4250    1.5960    5.5760 c3        1 047      0.098800
      9 C15         0.6730    2.9950    6.1470 c3        1 047     -0.089700
     10 C17         2.1040    3.4520    5.9040 c3        1 047     -0.078400
     11 C20         2.3600    4.7980    6.5520 c3        1 047     -0.077900
     12 C23         2.0440    4.7690    8.0330 c3        1 047     -0.083400
     13 C26         0.6260    4.3000    8.2820 c3        1 047     -0.077900
     14 C29         0.3710    2.9510    7.6420 c3        1 047     -0.078400
     15 C32         2.9230    0.3530    1.7210 ca        1 047     -0.129000
     16 C34         3.8890    0.3860    0.7270 ca        1 047     -0.111000
     17 C36         3.5400    0.3020   -0.6340 ca        1 047     -0.109000
     18 C38         2.2200    0.1830   -1.0400 ca        1 047     -0.105000
     19 C40        -0.9340   -0.1020   -1.3200 ca        1 047     -0.043200
     20 C41        -1.9530   -1.0740   -1.4000 ca        1 047     -0.122500
     21 C43        -2.7030   -1.1960   -2.5640 ca        1 047     -0.116500
     22 C45        -2.4590   -0.3700   -3.6680 ca        1 047     -0.047300
     23 C46        -1.4440    0.5900   -3.5850 ca        1 047     -0.116500
     24 C48        -0.6860    0.7330   -2.4280 ca        1 047     -0.122500
     25 C50        -3.2690   -0.5030   -4.8990 c3        1 047     -0.066800
     26 H5         -1.7750   -0.0670    1.3150 h4        1 047      0.184000
     27 H71        -0.8360   -0.1140    3.8710 hx        1 047      0.098700
     28 H72         0.9490   -0.5320    4.0230 hx        1 047      0.098700
     29 HN10        1.4330    1.8300    3.7780 hn        1 047      0.447800
     30 H121       -0.6000    1.2390    5.8830 hx        1 047      0.100200
     31 H122        1.1920    0.8760    5.9820 hx        1 047      0.100200
     32 H15        -0.0310    3.7310    5.6680 hc        1 047      0.067700
     33 H171        2.3060    3.5370    4.8040 hc        1 047      0.045700
     34 H172        2.8170    2.6940    6.3260 hc        1 047      0.045700
     35 H201        3.4350    5.0810    6.4010 hc        1 047      0.056950
     36 H202        1.7320    5.5810    6.0490 hc        1 047      0.056950
     37 H231        2.1790    5.7960    8.4630 hc        1 047      0.058200
     38 H232        2.7640    4.0880    8.5580 hc        1 047      0.058200
     39 H261        0.4430    4.2230    9.3860 hc        1 047      0.056950
     40 H262       -0.0980    5.0530    7.8730 hc        1 047      0.056950
     41 H291       -0.6990    2.6560    7.8010 hc        1 047      0.045700
     42 H292        1.0180    2.1750    8.1320 hc        1 047      0.045700
     43 H32         3.2090    0.3950    2.7810 ha        1 047      0.118000
     44 H34         4.9530    0.4710    1.0000 ha        1 047      0.148000
     45 H36         4.3390    0.3240   -1.3920 ha        1 047      0.153000
     46 H38         1.9540    0.1020   -2.1040 ha        1 047      0.158000
     47 H41        -2.1570   -1.7450   -0.5510 ha        1 047      0.145000
     48 H43        -3.4960   -1.9600   -2.6200 ha        1 047      0.151500
     49 H46        -1.2410    1.2450   -4.4480 ha        1 047      0.151500
     50 H48         0.1040    1.5000   -2.3850 ha        1 047      0.145000
     51 H501       -4.1720    0.1560   -4.8320 hc        1 047      0.058700
     52 H502       -2.6820   -0.2000   -5.8010 hc        1 047      0.058700
     53 H503       -3.6160   -1.5570   -5.0400 hc        1 047      0.058700
     54 H102       -0.1720    2.2170    3.6910 hn        1 047      0.447800
@<TRIPOS>BOND
     1    1    2 1   
     2    1    5 1   
     3    1   19 1   
     4    2    3 ar  
     5    2   18 ar  
     6    3    4 1   
     7    3   15 ar  
     8    4    5 2   
     9    4    6 1   
    10    5   26 1   
    11    6    7 1   
    12    6   27 1   
    13    6   28 1   
    14    7    8 1   
    15    7   29 1   
    16    7   54 1   
    17    8    9 1   
    18    8   30 1   
    19    8   31 1   
    20    9   10 1   
    21    9   14 1   
    22    9   32 1   
    23   10   11 1   
    24   10   33 1   
    25   10   34 1   
    26   11   12 1   
    27   11   35 1   
    28   11   36 1   
    29   12   13 1   
    30   12   37 1   
    31   12   38 1   
    32   13   14 1   
    33   13   39 1   
    34   13   40 1   
    35   14   41 1   
    36   14   42 1   
    37   15   16 ar  
    38   15   43 1   
    39   16   17 ar  
    40   16   44 1   
    41   17   18 ar  
    42   17   45 1   
    43   18   46 1   
    44   19   20 ar  
    45   19   24 ar  
    46   20   21 ar  
    47   20   47 1   
    48   21   22 ar  
    49   21   48 1   
    50   22   23 ar  
    51   22   25 1   
    52   23   24 ar  
    53   23   49 1   
    54   24   50 1   
    55   25   51 1   
    56   25   52 1   
    57   25   53 1   
@<TRIPOS>SUBSTRUCTURE
     1 047         1 TEMP              0 ****  ****    0 ROOT
