@<TRIPOS>MOLECULE
048
   52    50     1     0     0
SMALL
bcc


@<TRIPOS>ATOM
      1 OAA         6.1390    3.1190   -2.0900 o         1 048     -0.381000
      2 OAB         7.6210    1.5000   -3.2800 oh        1 048     -0.172000
      3 CAD         4.6260    1.9480   -8.5700 c1        1 048     -0.224500
      4 CAE         5.5780    2.6670   -8.4690 c1        1 048     -0.224500
      5 CAF         6.6900    0.0280   -6.4020 c2        1 048     -0.149000
      6 CAG         5.1730   -1.1550   -3.3290 c1        1 048     -0.129000
      7 CAH         6.4350   -0.0950   -5.1470 c1        1 048      0.103000
      8 CAI         4.5750   -1.8390    0.2920 c1        1 048      0.399000
      9 CAJ         4.5800   -0.5150    0.3470 c2        1 048     -0.573000
     10 CAK         3.5690    2.8300    1.9350 c3        1 048     -0.081000
     11 CAL         4.1680    3.1800    0.6870 c1        1 048     -0.101000
     12 CAM         5.7140    2.8000    3.1740 c1        1 048     -0.317000
     13 CAN         6.5900    0.8910    0.8550 c2        1 048     -0.031000
     14 CAO         1.4270   -0.1530    2.2430 cx        1 048     -0.235000
     15 CAP         0.4590    0.9540    2.4720 cu        1 048     -0.156000
     16 CAQ         4.7950    5.1140   -2.2520 c3        1 048     -0.266000
     17 CAR        -0.0580   -0.2030    2.1120 cu        1 048     -0.156000
     18 NAT         4.7680    0.6350    2.4940 n4        1 048     -0.014000
     19 CAU         5.2620    3.8570   -1.6080 c2        1 048      0.389000
     20 CAV         6.8560    0.5070   -2.8090 c2        1 048      0.395000
     21 CAW         8.6860    1.0430   -0.3340 c2        1 048      0.093000
     22 CAX         4.5030    2.0780    2.9000 c3        1 048      0.086000
     23 CAY         5.3840    0.3690    1.1760 c2        1 048     -0.030000
     24 CAZ         6.1330   -0.2720   -3.8510 c2        1 048     -0.198000
     25 CBA         6.6540    3.4770    3.4820 c1        1 048     -0.017000
     26 CBB         7.3530    0.7060   -0.3800 c2        1 048     -0.083000
     27 CBC         4.6450    3.5100   -0.3610 c1        1 048     -0.193000
     28 HAD         6.1700    0.7690   -7.0580 ha        1 048      0.236000
     29 HAE         4.5520   -1.7740   -3.9810 ha        1 048      0.127000
     30 HAF         3.7700    1.3310   -8.6920 ha        1 048      0.229500
     31 HAG         6.4110    3.3250   -8.4110 ha        1 048      0.229500
     32 HAH         7.4400   -0.5940   -6.9340 ha        1 048      0.236000
     33 HAI         9.1680    1.4390    0.5820 h4        1 048      0.200000
     34 HAJ         3.8640   -0.0040   -0.3470 ha        1 048      0.237000
     35 HAK         2.6300    2.2230    1.7610 hc        1 048      0.162000
     36 HAL         3.2540    3.7760    2.4750 hc        1 048      0.162000
     37 HAM         3.9300    1.9740    3.8870 hx        1 048      0.171000
     38 HAN         7.1130    1.5460    1.5870 ha        1 048      0.174000
     39 HAO         0.3530    1.9780    2.7650 ha        1 048      0.210000
     40 HAOA        3.6930    5.0610   -2.4400 hc        1 048      0.135333
     41 HAP         1.9180   -0.6690    3.0910 hc        1 048      0.067000
     42 HAPA        2.0570   -0.1750    1.3310 hc        1 048      0.067000
     43 HAQ         5.3250    5.2810   -3.2230 hc        1 048      0.135333
     44 HAQA        4.9930    5.9830   -1.5750 hc        1 048      0.135333
     45 HAR         7.4890    4.0800    3.7660 ha        1 048      0.266000
     46 HARA       -0.8840   -0.8470    1.8790 ha        1 048      0.210000
     47 HNAS        6.0750   -0.6230   -1.3590 hn        1 048      0.320000
     48 HNAT        5.3750    0.2200    3.2150 hn        1 048      0.266500
     49 NAS         6.7330    0.1430   -1.5190 n3        1 048     -0.211000
     50 HAT2        3.8510    0.1510    2.5110 hn        1 048      0.266500
     51 HAS2        7.9560    2.1100   -2.5880 ho        1 048      0.294000
     52 FAC         9.5080    0.9320   -1.3820 f         1 048     -0.060000
@<TRIPOS>BOND
     1    1   19 1   
     2    2   20 1   
     3    2   51 1   
     4    3    4 1   
     5    3   30 1   
     6    4   31 1   
     7    5    7 1   
     8    5   28 1   
     9    5   32 1   
    10    6   24 1   
    11    6   29 1   
    12    7   24 1   
    13    8    9 1   
    14    9   23 1   
    15    9   34 1   
    16   10   11 1   
    17   10   22 1   
    18   10   35 1   
    19   10   36 1   
    20   11   27 1   
    21   12   22 1   
    22   12   25 1   
    23   13   23 1   
    24   13   26 1   
    25   13   38 1   
    26   14   15 1   
    27   14   17 1   
    28   14   41 1   
    29   14   42 1   
    30   15   17 1   
    31   15   39 1   
    32   16   19 1   
    33   16   40 1   
    34   16   43 1   
    35   16   44 1   
    36   17   46 1   
    37   18   22 1   
    38   18   23 1   
    39   18   48 1   
    40   18   50 1   
    41   19   27 1   
    42   20   24 1   
    43   20   49 1   
    44   21   26 1   
    45   21   33 1   
    46   21   52 1   
    47   22   37 1   
    48   25   45 1   
    49   26   49 1   
    50   47   49 1   
@<TRIPOS>SUBSTRUCTURE
     1 048         1 TEMP              0 ****  ****    0 ROOT
