@<TRIPOS>MOLECULE
048
   50    46     1     0     0
SMALL
bcc


@<TRIPOS>ATOM
      1 OAA        -5.8230    0.5720   -2.0780 o         1 048     -0.286000
      2 OAB         4.2520    0.7490   -1.7480 o         1 048     -0.320000
      3 FAC         3.3630    2.7820   -0.9040 f         1 048     -0.086000
      4 CAD         8.5930   -1.4320   -1.1610 c1        1 048     -0.113750
      5 CAE         7.9190   -0.8040   -2.1960 c1        1 048     -0.113750
      6 CAF         7.9790   -1.5860    0.0730 c1        1 048     -0.113750
      7 CAG         6.6310   -0.3290   -1.9980 c1        1 048     -0.113750
      8 CAH         6.6930   -1.1110    0.2710 c1        1 048     -0.108000
      9 CAI         1.5160    2.8970    0.1210 c1        1 048     -0.127000
     10 CAJ         0.3930    2.4290    0.7850 c1        1 048     -0.180500
     11 CAK        -2.7960    1.8610    1.1390 c1        1 048     -0.180500
     12 CAL        -4.0150    1.8250    0.4750 c1        1 048     -0.060000
     13 CAM        -2.5310   -0.5050    0.7850 c1        1 048     -0.174000
     14 CAN         1.4610    0.3020    1.0930 c1        1 048     -0.185000
     15 CAO        -6.8980   -1.6540   -0.1820 c3        1 048     -0.148000
     16 CAP        -5.5810   -2.2510    0.2590 c3        1 048     -0.156000
     17 CAQ        -6.8850   -0.1500   -0.0290 c3        1 048     -0.205000
     18 CAR        -4.4400   -1.7220   -0.5820 c3        1 048     -0.132000
     19 NAS         3.8680    0.1620    0.4240 n         1 048     -0.333000
     20 NAT        -0.8130    0.7760    1.9780 n3        1 048     -0.263000
     21 CAU        -5.7460    0.3610   -0.8840 c2        1 048      0.277000
     22 CAV         4.6660    0.1980   -0.7480 c2        1 048      0.349000
     23 CAW         2.6120    2.0670   -0.0580 c2        1 048      0.072000
     24 CAX        -2.0530    0.6950    1.2940 c1        1 048      0.075500
     25 CAY         0.3660    1.1320    1.2710 c1        1 048      0.075500
     26 CAZ         6.0180   -0.4820   -0.7640 c1        1 048     -0.121000
     27 CBA        -3.7600   -0.5430    0.1150 c2        1 048     -0.004000
     28 CBB         2.5850    0.7690    0.4280 c2        1 048      0.059000
     29 CBC        -4.4970    0.6160   -0.0380 c2        1 048     -0.169000
     30 HAD         9.4990   -1.7670   -1.3000 ha        1 048      0.142750
     31 HAE         8.3500   -0.6960   -3.0650 ha        1 048      0.142750
     32 HAF         8.4540   -2.0280    0.8020 ha        1 048      0.142750
     33 HAG         6.1570    0.1130   -2.7270 ha        1 048      0.142750
     34 HAH         6.2610   -1.2180    1.1400 ha        1 048      0.132000
     35 HAI         1.5360    3.8110   -0.2220 ha        1 048      0.154000
     36 HAJ        -0.3780    3.0140    0.9110 ha        1 048      0.143500
     37 HAK        -2.4600    2.7050    1.4970 ha        1 048      0.143500
     38 HAL        -4.5360    2.6440    0.3670 ha        1 048      0.144000
     39 HAM        -2.0100   -1.3230    0.8930 ha        1 048      0.150000
     40 HAN         1.4420   -0.6120    1.4350 ha        1 048      0.140000
     41 HAO        -7.6190   -2.0270    0.3630 hc        1 048      0.089000
     42 HAOA       -7.0550   -1.8800   -1.1210 hc        1 048      0.089000
     43 HAP        -5.4220   -2.0220    1.1970 hc        1 048      0.088000
     44 HAPA       -5.6220   -3.2240    0.1680 hc        1 048      0.088000
     45 HAQ        -7.7120    0.2920   -0.3090 hc        1 048      0.106500
     46 HAQA       -6.7970    0.0900    0.9160 hc        1 048      0.106500
     47 HAR        -3.7820   -2.4360   -0.7020 hc        1 048      0.096000
     48 HARA       -4.7990   -1.4140   -1.4380 hc        1 048      0.096000
     49 HNAS        4.1880   -0.2320    1.1820 hn        1 048      0.233000
     50 HNAT       -0.7710    0.5880    2.8690 hn        1 048      0.217000
@<TRIPOS>BOND
     1    1   21 1   
     2    2   22 1   
     3    3   23 1   
     4    4    6 1   
     5    4   30 1   
     6    5    7 1   
     7    5   31 1   
     8    6   32 1   
     9    7   33 1   
    10    8   26 1   
    11    8   34 1   
    12    9   23 1   
    13    9   35 1   
    14   10   25 1   
    15   10   36 1   
    16   11   24 1   
    17   11   37 1   
    18   12   29 1   
    19   12   38 1   
    20   13   27 1   
    21   13   39 1   
    22   14   28 1   
    23   14   40 1   
    24   15   16 1   
    25   15   17 1   
    26   15   41 1   
    27   15   42 1   
    28   16   18 1   
    29   16   43 1   
    30   16   44 1   
    31   17   21 1   
    32   17   45 1   
    33   17   46 1   
    34   18   27 1   
    35   18   47 1   
    36   18   48 1   
    37   19   22 1   
    38   19   28 1   
    39   19   49 1   
    40   20   24 1   
    41   20   25 1   
    42   20   50 1   
    43   21   29 1   
    44   22   26 1   
    45   23   28 1   
    46   27   29 1   
@<TRIPOS>SUBSTRUCTURE
     1 048         1 TEMP              0 ****  ****    0 ROOT
