@<TRIPOS>MOLECULE
048
   50    73     1     0     0
SMALL
bcc


@<TRIPOS>ATOM
      1 OAA         0.0000    0.0000    0.0000 o         1 048     -0.219000
      2 OAB         7.3940    2.1840   -1.6860 oh        1 048     -0.460000
      3 CAD         7.2210    2.0890   -7.1410 c3        1 048     -0.071000
      4 CAE         6.4820    2.9490   -6.3470 c3        1 048      0.098000
      5 CAF         8.0010    1.1020   -6.5630 DU        1 048     -0.184000
      6 CAG         6.5180    2.8270   -4.9740 c3        1 048     -0.116000
      7 CAH         8.0460    0.9700   -5.1900 c3        1 048     -0.305000
      8 CAI         9.2070   -0.2090    1.6100 c3        1 048      0.007000
      9 CAJ         8.0370    0.1650    2.2410 c2        1 048     -0.216000
     10 CAK         4.3290    0.0000    0.5400 c2        1 048      0.004000
     11 CAL         3.0730    0.0000    0.0000 c2        1 048      0.109000
     12 CAM         3.6870    1.7560    2.0720 c2        1 048     -0.087000
     13 CAN         7.0610    0.7180    0.1130 c2        1 048     -0.456000
     14 CAO        -0.0790    3.2540    0.1330 DU        1 048      0.457000
     15 CAP         1.0110    3.7340    1.0790 DU        1 048      0.347000
     16 CAQ         0.3730    2.1980   -0.8430 DU        1 048      0.121000
     17 CAR         1.3610    2.6700    2.1130 c3        1 048     -0.076000
     18 NAT         5.9320    0.8850    2.1030 n7        1 048     -0.077000
     19 CAU         0.7670    0.9350   -0.1000 c2        1 048      0.198000
     20 CAV         7.7220    1.4220   -2.5740 c1        1 048      0.412000
     21 CAW         9.3110   -0.1240    0.2340 c3        1 048      0.247000
     22 CAX         4.6490    0.8800    1.5720 c3        1 048     -0.052000
     23 CAY         6.9600    0.6300    1.4950 c2        1 048      0.090000
     24 CAZ         7.3040    1.8350   -4.3850 c2        1 048     -0.077000
     25 CBA         2.4290    1.7510    1.5450 c2        1 048     -0.125000
     26 CBB         8.2380    0.3400   -0.5190 c3        1 048      0.014000
     27 CBC         2.1090    0.8880    0.4940 c2        1 048     -0.313000
     28 HAD         7.5350    1.6450   -6.2040 DU        1 048      0.277000
     29 HAE         6.8410    2.4880   -5.4350 DU        1 048     -0.054000
     30 HAF         7.5900    1.6510   -7.4020 DU        1 048      0.094000
     31 HAG         6.1910    3.2800   -5.9020 DU        1 048      0.147000
     32 HAH         8.3150    0.6960   -6.2030 DU        1 048      0.221000
     33 HAI         8.8220    0.3150    0.7440 DU        1 048     -0.101000
     34 HAJ         8.2340    0.1170    1.1770 DU        1 048      0.151000
     35 HAK         5.3960   -0.0960    0.7020 ha        1 048      0.258000
     36 HAL         3.9800   -0.0230    0.5930 ha        1 048     -0.128000
     37 HAM         4.1320    0.9800    1.4610 ha        1 048     -0.033000
     38 HAN         6.0780    0.3430   -0.1450 ha        1 048      0.174000
     39 HAO         0.8040    3.0760    0.7360 DU        1 048     -0.192000
     40 HAOA        0.9470    2.9220    0.0250 DU        1 048      0.209000
     41 HAP         0.0420    3.2830    0.9000 DU        1 048     -0.192000
     42 HAPA        0.2710    3.9250    0.3120 DU        1 048     -0.192000
     43 HAQ         0.9860    2.9100   -0.3040 DU        1 048     -0.216000
     44 HAQA        0.4640    2.9600   -0.0790 DU        1 048     -0.216000
     45 HAR         1.3240    2.6390    1.0310 DU        1 048      0.246000
     46 HARA        0.8830    2.4840    1.1590 DU        1 048      0.006000
     47 HNAS        7.7270    0.9600   -1.3320 DU        1 048      0.405000
     48 HNAT        4.9550    1.0990    2.1430 DU        1 048      0.358000
     49 FAC        10.4570   -0.4920   -0.3800 f         1 048     -0.064000
     50 NAS         8.3430    0.4260   -1.9120 n7        1 048     -0.432000
@<TRIPOS>BOND
     1    1   19 1   
     2    2   20 1   
     3    2   47 1   
     4    3    4 1   
     5    3    5 1   
     6    3   28 1   
     7    3   30 1   
     8    4    6 1   
     9    4   29 1   
    10    4   31 1   
    11    5    7 1   
    12    5   28 1   
    13    5   30 1   
    14    5   32 1   
    15    6   24 1   
    16    6   29 1   
    17    6   31 1   
    18    7   24 1   
    19    7   28 1   
    20    7   32 1   
    21    8    9 1   
    22    8   21 1   
    23    8   33 1   
    24    8   34 1   
    25    9   23 1   
    26    9   34 1   
    27   10   11 1   
    28   10   22 1   
    29   10   35 1   
    30   11   27 1   
    31   11   36 1   
    32   12   22 1   
    33   12   25 1   
    34   12   37 1   
    35   13   23 1   
    36   13   26 1   
    37   13   38 1   
    38   14   15 1   
    39   14   16 1   
    40   14   39 1   
    41   14   40 1   
    42   14   41 1   
    43   14   42 1   
    44   15   17 1   
    45   15   39 1   
    46   15   41 1   
    47   15   42 1   
    48   15   45 1   
    49   16   19 1   
    50   16   40 1   
    51   16   43 1   
    52   16   44 1   
    53   17   25 1   
    54   17   45 1   
    55   17   46 1   
    56   18   22 1   
    57   18   23 1   
    58   18   48 1   
    59   19   27 1   
    60   20   50 1   
    61   21   26 1   
    62   21   33 1   
    63   21   49 1   
    64   22   48 1   
    65   24   29 1   
    66   25   27 1   
    67   26   47 1   
    68   26   50 1   
    69   40   43 1   
    70   40   44 1   
    71   43   44 1   
    72   45   46 1   
    73   47   50 1   
@<TRIPOS>SUBSTRUCTURE
     1 048         1 TEMP              0 ****  ****    0 ROOT
