@<TRIPOS>MOLECULE
048
   50    53     1     0     0
SMALL
bcc


@<TRIPOS>ATOM
      1 OAA        -5.1100   -1.5720    2.2550 o         1 048     -0.525100
      2 OAB         1.4780   -1.2580   -0.3160 o         1 048     -0.580100
      3 CAD         5.5670   -4.1060    0.2790 ca        1 048     -0.105000
      4 CAE         4.5590   -4.1860   -0.6810 ca        1 048     -0.136500
      5 CAF         5.6400   -3.0000    1.1260 ca        1 048     -0.136500
      6 CAG         3.6230   -3.1590   -0.7990 ca        1 048     -0.089500
      7 CAH         4.7110   -1.9660    1.0100 ca        1 048     -0.089500
      8 CAI         2.3970    3.9570   -0.3980 ca        1 048     -0.104000
      9 CAJ         1.0130    3.9720   -0.3910 ca        1 048     -0.185000
     10 CAK        -1.6790    0.9040    1.2050 ca        1 048     -0.160000
     11 CAL        -2.5660   -0.1160    1.5260 ca        1 048     -0.062000
     12 CAM        -3.1230    1.5340   -0.6450 ca        1 048     -0.189000
     13 CAN         0.9930    1.5470   -0.1440 ca        1 048     -0.198000
     14 CAO        -5.8290   -2.1040   -0.9570 c3        1 048     -0.069400
     15 CAP        -5.3640   -0.9640   -1.8380 c3        1 048     -0.077400
     16 CAQ        -4.8020   -2.5180    0.0740 c3        1 048     -0.177400
     17 CAR        -5.2690    0.3570   -1.1000 c3        1 048     -0.044100
     18 NAT        -1.1130    2.8380   -0.2010 nh        1 048     -0.632000
     19 CAU        -4.6040   -1.4660    1.1330 c         1 048      0.586700
     20 CAV         2.6710   -0.9760   -0.1090 c         1 048      0.683700
     21 CAW         3.1030    2.7530   -0.2730 ca        1 048      0.026900
     22 CAX        -1.9410    1.7450    0.1010 ca        1 048      0.164600
     23 CAY         0.2890    2.7640   -0.2490 ca        1 048      0.173600
     24 CAZ         3.7050   -2.0430    0.0420 ca        1 048     -0.149600
     25 CBA        -4.0100    0.5080   -0.3150 ca        1 048     -0.013300
     26 CBB         2.3980    1.5150   -0.1460 ca        1 048      0.079600
     27 CBC        -3.7200   -0.3350    0.7670 ca        1 048     -0.184600
     28 HAD         6.3040   -4.9180    0.3720 ha        1 048      0.137000
     29 HAE         4.4960   -5.0610   -1.3440 ha        1 048      0.139500
     30 HAF         6.4290   -2.9420    1.8900 ha        1 048      0.139500
     31 HAG         2.8110   -3.2200   -1.5410 ha        1 048      0.146500
     32 HAH         4.7690   -1.1070    1.6960 ha        1 048      0.146500
     33 HAI         2.9630    4.8960   -0.5010 ha        1 048      0.150000
     34 HAJ         0.4860    4.9330   -0.4880 ha        1 048      0.142000
     35 HAK        -0.7790    1.0580    1.8210 ha        1 048      0.150000
     36 HAL        -2.3610   -0.7610    2.3960 ha        1 048      0.146000
     37 HAM        -3.3610    2.1900   -1.4980 ha        1 048      0.132000
     38 HAN         0.4290    0.5990   -0.0720 ha        1 048      0.188000
     39 HAO        -6.7850   -1.8210   -0.4410 hc        1 048      0.048700
     40 HAOA       -6.0510   -2.9920   -1.6070 hc        1 048      0.048700
     41 HAP        -4.3710   -1.2170   -2.2930 hc        1 048      0.047200
     42 HAPA       -6.0980   -0.8470   -2.6800 hc        1 048      0.047200
     43 HAQ        -5.1420   -3.4670    0.5700 hc        1 048      0.068200
     44 HAQA       -3.8170   -2.7210   -0.4240 hc        1 048      0.068200
     45 HAR        -5.3450    1.1910   -1.8500 hc        1 048      0.054200
     46 HARA       -6.1440    0.4640   -0.4020 hc        1 048      0.054200
     47 HNAS        4.1260    0.4550    0.0580 hn        1 048      0.330500
     48 HNAT       -1.5090    3.5050   -0.8290 hn        1 048      0.424800
     49 FAC         4.4630    2.7770   -0.2740 f         1 048     -0.150900
     50 NAS         3.1380    0.3320   -0.0160 n         1 048     -0.468100
@<TRIPOS>BOND
     1    1   19 2   
     2    2   20 2   
     3    3    4 ar  
     4    3    5 ar  
     5    3   28 1   
     6    4    6 ar  
     7    4   29 1   
     8    5    7 ar  
     9    5   30 1   
    10    6   24 ar  
    11    6   31 1   
    12    7   24 ar  
    13    7   32 1   
    14    8    9 ar  
    15    8   21 ar  
    16    8   33 1   
    17    9   23 ar  
    18    9   34 1   
    19   10   11 ar  
    20   10   22 ar  
    21   10   35 1   
    22   11   27 ar  
    23   11   36 1   
    24   12   22 ar  
    25   12   25 ar  
    26   12   37 1   
    27   13   23 ar  
    28   13   26 ar  
    29   13   38 1   
    30   14   15 1   
    31   14   16 1   
    32   14   39 1   
    33   14   40 1   
    34   15   17 1   
    35   15   41 1   
    36   15   42 1   
    37   16   19 1   
    38   16   43 1   
    39   16   44 1   
    40   17   25 1   
    41   17   45 1   
    42   17   46 1   
    43   18   22 1   
    44   18   23 1   
    45   18   48 1   
    46   19   27 1   
    47   20   24 1   
    48   20   50 1   
    49   21   26 ar  
    50   21   49 1   
    51   25   27 ar  
    52   26   50 1   
    53   47   50 1   
@<TRIPOS>SUBSTRUCTURE
     1 048         1 TEMP              0 ****  ****    0 ROOT
