@<TRIPOS>MOLECULE
049
   37    35     1     0     0
SMALL
bcc


@<TRIPOS>ATOM
      1 C4         -3.9250   -1.5970   -0.6730 c1        1 049     -0.069000
      2 C5         -2.5990   -1.3200   -0.9910 c1        1 049     -0.069000
      3 C6         -1.6950   -0.9960    0.0170 c1        1 049     -0.039100
      4 C7          0.6030   -0.0530   -0.3180 c3        1 049      0.095700
      5 C8         -0.2520   -1.3150   -0.4200 c3        1 049     -0.073300
      6 C10         2.6000   -0.0620    1.1880 cx        1 049      0.034800
      7 O21         2.7810    0.2420   -1.1950 oh        1 049     -0.601800
      8 C9          2.0550   -0.4370   -0.2210 c3        1 049      0.135100
      9 C12         2.3340   -1.0060    2.2260 cx        1 049      0.065400
     10 O13         3.6770   -0.8970    1.6870 os        1 049     -0.414600
     11 C11         2.6460    1.4070    1.6190 c3        1 049     -0.093100
     12 N22         0.4000    0.7540   -1.4770 n         1 049     -0.526900
     13 C23         0.1220    2.1580   -1.3360 c         1 049      0.659100
     14 C18         0.1120    3.0650   -2.5710 c3        1 049     -0.174100
     15 O49        -0.1370    2.6210   -0.2390 o         1 049     -0.611100
     16 C3         -4.3480   -1.5510    0.6520 c1        1 049     -0.069000
     17 C2         -3.4440   -1.2270    1.6600 c1        1 049     -0.069000
     18 C1         -2.1180   -0.9490    1.3420 c1        1 049     -0.064500
     19 H4         -4.5630   -1.8260   -1.3840 ha        1 049      0.072750
     20 H5         -2.3020   -1.3520   -1.9240 ha        1 049      0.072750
     21 H7          0.3450    0.4530    0.4820 h1        1 049      0.098700
     22 H8         -0.2540   -1.6350   -1.3500 hc        1 049      0.051200
     23 H8A         0.1210   -2.0120    0.1650 hc        1 049      0.051200
     24 HO21        3.4350   -0.2840   -1.5000 ho        1 049      0.423000
     25 H9          2.1480   -1.4060   -0.3610 h1        1 049      0.043700
     26 H12         2.2030   -0.6260    3.1230 h1        1 049      0.079200
     27 H12A        1.8310   -1.8040    1.9560 h1        1 049      0.079200
     28 H11         3.5500    1.6270    1.9380 hc        1 049      0.063700
     29 H11A        2.4190    1.9790    0.8560 hc        1 049      0.063700
     30 H11B        1.9980    1.5550    2.3440 hc        1 049      0.063700
     31 HN22        0.4380    0.3750   -2.3130 hn        1 049      0.301500
     32 H18        -0.6620    2.8410   -3.1360 hc        1 049      0.066700
     33 H18A        0.0490    4.0050   -2.2880 hc        1 049      0.066700
     34 H18B        0.9400    2.9320   -3.0820 hc        1 049      0.066700
     35 H3         -5.2830   -1.7460    0.8760 ha        1 049      0.072750
     36 H2         -3.7430   -1.1940    2.5950 ha        1 049      0.072750
     37 H1         -1.4810   -0.7210    2.0520 ha        1 049      0.073500
@<TRIPOS>BOND
     1    1    2 3   
     2    1   19 1   
     3    2   20 1   
     4    3    5 1   
     5    3   18 3   
     6    4    5 1   
     7    4    8 1   
     8    4   12 1   
     9    4   21 1   
    10    5   22 1   
    11    5   23 1   
    12    6    8 1   
    13    6    9 1   
    14    6   10 1   
    15    6   11 1   
    16    7    8 1   
    17    7   24 1   
    18    8   25 1   
    19    9   10 1   
    20    9   26 1   
    21    9   27 1   
    22   11   28 1   
    23   11   29 1   
    24   11   30 1   
    25   12   13 1   
    26   12   31 1   
    27   13   14 1   
    28   13   15 2   
    29   14   32 1   
    30   14   33 1   
    31   14   34 1   
    32   16   17 3   
    33   16   35 1   
    34   17   36 1   
    35   18   37 1   
@<TRIPOS>SUBSTRUCTURE
     1 049         1 TEMP              0 ****  ****    0 ROOT
