@<TRIPOS>MOLECULE
049
   38    39     1     0     0
SMALL
bcc


@<TRIPOS>ATOM
      1 C4          0.2290   -0.2210    1.9430 c2        1 049      0.036500
      2 C5          1.5710   -0.2520    1.6900 c2        1 049     -0.204500
      3 C6          2.0830    0.1500    0.4260 c2        1 049      0.251000
      4 C7          4.3010    1.1400    1.0960 c3        1 049      0.055000
      5 C8          3.5390    0.1560    0.1750 c3        1 049     -0.205000
      6 C10         6.4590    0.5340   -0.2060 cx        1 049     -0.053000
      7 C9          5.7890    0.6830    1.1500 c3        1 049      0.042000
      8 C12         7.2980   -0.6780   -0.4590 cx        1 049     -0.075000
      9 O13         5.9660   -0.5820   -0.9780 os        1 049     -0.267000
     10 C11         6.7160    1.7900   -0.9770 c3        1 049     -0.207000
     11 N22         4.1430    2.5200    0.7080 ns        1 049     -0.366000
     12 C23         2.9980    3.2320    1.0230 c2        1 049      0.315000
     13 C18         3.0230    4.7270    0.8530 c3        1 049     -0.243000
     14 O49         1.9680    2.6210    1.3920 o         1 049     -0.425000
     15 C3         -0.7430    0.2080    0.9280 c3        1 049     -0.211000
     16 C2         -0.1700    0.5160   -0.3900 c2        1 049      0.036500
     17 C1          1.1760    0.4820   -0.6170 c2        1 049     -0.204500
     18 H4          2.2830   -0.5600    2.4760 ha        1 049      0.181000
     19 H5         -0.1710   -0.5070    2.9340 ha        1 049      0.177000
     20 H7          3.7670    0.3920   -0.9020 hc        1 049      0.152500
     21 H8          3.8900    1.0170    2.1470 h1        1 049      0.112000
     22 H8A         3.9390   -0.8820    0.3700 hc        1 049      0.152500
     23 H9          5.7990   -0.3200    1.6700 h1        1 049      0.096000
     24 H12         7.4320   -1.4490    0.3230 h1        1 049      0.133000
     25 H12A        8.0950   -0.6540   -1.2260 h1        1 049      0.133000
     26 H11         7.5160    1.6250   -1.7400 hc        1 049      0.101000
     27 H11A        5.7910    2.1130   -1.5140 hc        1 049      0.101000
     28 H11B        7.0470    2.5990   -0.2800 hc        1 049      0.101000
     29 HN22        4.9860    3.0240    0.5390 hn        1 049      0.249000
     30 H18         3.3250    5.0050   -0.1860 hc        1 049      0.120667
     31 H18A        2.0020    5.1320    1.0570 hc        1 049      0.120667
     32 H18B        3.7440    5.1820    1.5760 hc        1 049      0.120667
     33 H3         -1.5620   -0.5690    0.8230 hc        1 049      0.204000
     34 H2         -1.2690    1.1430    1.3150 hc        1 049      0.204000
     35 H1         -0.8770    0.7920   -1.1930 ha        1 049      0.177000
     36 O21         6.4690    1.6350    1.9520 oh        1 049     -0.319000
     37 HO21        7.3960    1.3650    1.9940 ho        1 049      0.229000
     38 H222        1.5850    0.7360   -1.6130 ha        1 049      0.181000
@<TRIPOS>BOND
     1    1    2 1   
     2    1   15 1   
     3    1   19 1   
     4    2    3 1   
     5    2   18 1   
     6    3    5 1   
     7    3   17 1   
     8    4    5 1   
     9    4    7 1   
    10    4   11 1   
    11    4   21 1   
    12    5   20 1   
    13    5   22 1   
    14    6    7 1   
    15    6    8 1   
    16    6    9 1   
    17    6   10 1   
    18    7   23 1   
    19    7   36 1   
    20    8    9 1   
    21    8   24 1   
    22    8   25 1   
    23   10   26 1   
    24   10   27 1   
    25   10   28 1   
    26   11   12 1   
    27   11   29 1   
    28   12   13 1   
    29   12   14 1   
    30   13   30 1   
    31   13   31 1   
    32   13   32 1   
    33   15   16 1   
    34   15   33 1   
    35   15   34 1   
    36   16   17 1   
    37   16   35 1   
    38   17   38 1   
    39   36   37 1   
@<TRIPOS>SUBSTRUCTURE
     1 049         1 TEMP              0 ****  ****    0 ROOT
