@<TRIPOS>MOLECULE
049
   38    38     1     0     0
SMALL
bcc


@<TRIPOS>ATOM
      1 C4          0.1180    1.1780    1.3920 c3        1 049     -0.233000
      2 C5          1.0840    0.2020    0.8930 c2        1 049      0.074000
      3 C6          1.6380   -0.7650    1.7160 c2        1 049     -0.146000
      4 C7          4.5840    1.3560   -0.0390 c2        1 049     -0.094000
      5 C8          2.6430   -1.7220    1.1930 c3        1 049     -0.211000
      6 C10         7.1000    1.2750   -0.3550 cx        1 049      0.001000
      7 C9          5.7970    0.7700    0.1310 c2        1 049     -0.002000
      8 C12         8.0630    1.8800    0.6180 cx        1 049     -0.070000
      9 O13         8.2290    0.5320    0.1650 os        1 049     -0.255000
     10 C11         7.1920    1.6170   -1.8110 c3        1 049     -0.208000
     11 N22         4.3540    2.5590   -0.7040 n         1 049     -0.305000
     12 C23         3.0940    3.1210   -0.7910 c2        1 049      0.335000
     13 C18         2.9560    4.4210   -1.5360 c3        1 049     -0.245000
     14 O49         2.1060    2.5540   -0.2630 o         1 049     -0.462000
     15 C3         -0.2640    1.0420    2.7960 c2        1 049      0.022000
     16 C2          0.2960    0.0760    3.5930 c2        1 049     -0.206000
     17 C1          1.2420   -0.8260    3.0650 c2        1 049      0.111000
     18 H4          1.3840    0.2910   -0.1700 ha        1 049      0.198000
     19 H5         -0.8020    1.2000    0.7240 hc        1 049      0.240000
     20 H7          2.4330   -1.9770    0.1250 hc        1 049      0.119667
     21 H8          3.6770    0.8740    0.3750 h4        1 049      0.156000
     22 H8A         3.6710   -1.2700    1.2470 hc        1 049      0.119667
     23 H9          2.6460   -2.6690    1.7880 hc        1 049      0.119667
     24 H12         1.6800   -1.6000    3.7260 ha        1 049      0.183000
     25 H12A        7.7980    1.9760    1.6870 h1        1 049      0.133000
     26 H11         8.8390    2.5840    0.2630 h1        1 049      0.133000
     27 H11A        7.1530    2.7260   -1.9480 hc        1 049      0.101000
     28 H11B        8.1620    1.2470   -2.2280 hc        1 049      0.101000
     29 HN22        6.3590    1.1460   -2.3860 hc        1 049      0.101000
     30 H18         3.2770    4.3000   -2.6000 hc        1 049      0.121000
     31 H18A        1.8840    4.7380   -1.5160 hc        1 049      0.121000
     32 H18B        3.5780    5.2160   -1.0570 hc        1 049      0.121000
     33 H3          0.5790    2.2210    1.2200 hc        1 049      0.240000
     34 H2         -1.0140    1.7500    3.1940 ha        1 049      0.179000
     35 H1          0.0090   -0.0120    4.6570 ha        1 049      0.186000
     36 O21         5.7790   -0.4130    0.8460 oh        1 049     -0.275000
     37 HO21        6.6820   -0.7750    0.8550 ho        1 049      0.254000
     38 H222        5.1240    3.0200   -1.1350 hn        1 049      0.244000
@<TRIPOS>BOND
     1    1    2 1   
     2    1   15 1   
     3    1   19 1   
     4    1   33 1   
     5    2    3 1   
     6    2   18 1   
     7    3    5 1   
     8    3   17 1   
     9    4    7 1   
    10    4   11 1   
    11    4   21 1   
    12    5   20 1   
    13    5   22 1   
    14    5   23 1   
    15    6    7 1   
    16    6    8 1   
    17    6    9 1   
    18    6   10 1   
    19    7   36 1   
    20    8    9 1   
    21    8   25 1   
    22    8   26 1   
    23   10   27 1   
    24   10   28 1   
    25   10   29 1   
    26   11   12 1   
    27   11   38 1   
    28   12   13 1   
    29   12   14 1   
    30   13   30 1   
    31   13   31 1   
    32   13   32 1   
    33   15   16 1   
    34   15   34 1   
    35   16   17 1   
    36   16   35 1   
    37   17   24 1   
    38   36   37 1   
@<TRIPOS>SUBSTRUCTURE
     1 049         1 TEMP              0 ****  ****    0 ROOT
