@<TRIPOS>MOLECULE
049
   37    38     1     0     0
SMALL
bcc


@<TRIPOS>ATOM
      1 C4          3.7260   -0.3120    1.4900 ca        1 049     -0.128000
      2 C5          2.3550   -0.5610    1.4380 ca        1 049     -0.126000
      3 C6          1.7120   -0.7210    0.2050 ca        1 049     -0.084300
      4 C7         -0.5490    0.0730   -0.5870 c3        1 049      0.076700
      5 C8          0.2550   -1.0110    0.1530 c3        1 049     -0.059100
      6 C10        -2.6840   -0.7690    0.6250 cx        1 049      0.039800
      7 O21        -2.1640   -1.3740   -1.6580 oh        1 049     -0.590800
      8 C9         -2.0470   -0.3490   -0.6870 c3        1 049      0.147100
      9 C12        -3.7550   -1.8120    0.5990 cx        1 049      0.065400
     10 O13        -2.4200   -2.1400    1.0050 os        1 049     -0.419600
     11 C11        -2.6520    0.2230    1.7420 c3        1 049     -0.078100
     12 N22        -0.3900    1.3860   -0.0130 n         1 049     -0.566900
     13 C23        -0.0290    2.4870   -0.7750 c         1 049      0.657100
     14 C18         0.2910    3.7610   -0.0310 c3        1 049     -0.175100
     15 O49        -0.0060    2.4360   -2.0200 o         1 049     -0.601100
     16 C3          4.4660   -0.2220    0.3120 ca        1 049     -0.131000
     17 C2          3.8310   -0.3830   -0.9200 ca        1 049     -0.128000
     18 C1          2.4620   -0.6330   -0.9740 ca        1 049     -0.126000
     19 H4          4.2240   -0.1910    2.4630 ha        1 049      0.132500
     20 H5          1.7790   -0.6400    2.3720 ha        1 049      0.133500
     21 H7         -0.1790    0.1150   -1.6610 h1        1 049      0.102700
     22 H8          0.0950   -1.9820   -0.3900 hc        1 049      0.063700
     23 H8A        -0.1560   -1.1470    1.1900 hc        1 049      0.063700
     24 HO21       -1.7700   -2.1750   -1.2850 ho        1 049      0.410000
     25 H9         -2.6470    0.5040   -1.1190 h1        1 049      0.098700
     26 H12        -4.5070   -1.8620    1.4070 h1        1 049      0.085700
     27 H12A       -4.0680   -2.2650   -0.3610 h1        1 049      0.085700
     28 H11        -1.6550    0.2090    2.2470 hc        1 049      0.050700
     29 H11A       -2.8530    1.2480    1.3470 hc        1 049      0.050700
     30 H11B       -3.4270   -0.0260    2.5080 hc        1 049      0.050700
     31 HN22       -0.2720    1.4320    0.9710 hn        1 049      0.304500
     32 H18         1.1930    3.6170    0.6120 hc        1 049      0.066033
     33 H18A        0.5000    4.5670   -0.7760 hc        1 049      0.066033
     34 H18B       -0.5690    4.0720    0.6090 hc        1 049      0.066033
     35 H3          5.5470   -0.0250    0.3530 ha        1 049      0.132000
     36 H2          4.4120   -0.3120   -1.8520 ha        1 049      0.132500
     37 H1          1.9640   -0.7590   -1.9480 ha        1 049      0.133500
@<TRIPOS>BOND
     1    1    2 ar  
     2    1   16 ar  
     3    1   19 1   
     4    2    3 ar  
     5    2   20 1   
     6    3    5 1   
     7    3   18 ar  
     8    4    5 1   
     9    4    8 1   
    10    4   12 1   
    11    4   21 1   
    12    5   22 1   
    13    5   23 1   
    14    6    8 1   
    15    6    9 1   
    16    6   10 1   
    17    6   11 1   
    18    7    8 1   
    19    7   24 1   
    20    8   25 1   
    21    9   10 1   
    22    9   26 1   
    23    9   27 1   
    24   11   28 1   
    25   11   29 1   
    26   11   30 1   
    27   12   13 1   
    28   12   31 1   
    29   13   14 1   
    30   13   15 2   
    31   14   32 1   
    32   14   33 1   
    33   14   34 1   
    34   16   17 ar  
    35   16   35 1   
    36   17   18 ar  
    37   17   36 1   
    38   18   37 1   
@<TRIPOS>SUBSTRUCTURE
     1 049         1 TEMP              0 ****  ****    0 ROOT
