@<TRIPOS>MOLECULE
049
   38    39     1     0     0
SMALL
bcc


@<TRIPOS>ATOM
      1 C4          0.0530   -0.5290    0.0390 ca        1 049     -0.116500
      2 C5          1.4440   -0.4730    0.1130 ca        1 049     -0.138500
      3 C6          2.0670    0.1130    1.2230 ca        1 049     -0.151300
      4 C7          4.1170    1.5090    0.9080 c3        1 049      0.147500
      5 C8          3.5500    0.1420    1.3190 c3        1 049     -0.058100
      6 C10         6.4610    0.8360    0.0070 cx        1 049     -0.006200
      7 O21         5.8970    1.0410    2.3630 oh        1 049     -0.582800
      8 C9          5.6610    1.5730    1.0710 c3        1 049      0.150100
      9 C12         6.7580   -0.6200    0.1530 cx        1 049      0.109400
     10 O13         5.7400   -0.1630   -0.7510 os        1 049     -0.442600
     11 C11         7.3640    1.7140   -0.8030 c3        1 049     -0.098100
     12 N22         3.6930    1.8710   -0.4930 n4        1 049     -0.687800
     13 C23         3.6560    3.3650   -0.7070 c         1 049      0.552100
     14 C18         2.3550    4.0350   -0.4270 c3        1 049     -0.188100
     15 O49         4.6960    3.8730   -1.1010 o         1 049     -0.415100
     16 C3         -0.7250   -0.0030    1.0710 ca        1 049     -0.105000
     17 C2         -0.1090    0.5760    2.1810 ca        1 049     -0.116500
     18 C1          1.2820    0.6340    2.2590 ca        1 049     -0.138500
     19 H4         -0.4310   -1.0060   -0.8280 ha        1 049      0.154000
     20 H5          2.0520   -0.9340   -0.6810 ha        1 049      0.140000
     21 H7          3.6720    2.2910    1.5970 hx        1 049      0.104700
     22 H8          3.8780   -0.0350    2.3840 hc        1 049      0.107700
     23 H8A         4.0100   -0.6690    0.6910 hc        1 049      0.107700
     24 HO21        6.8420    1.1450    2.5460 ho        1 049      0.440000
     25 H9          5.9700    2.6610    1.0500 h1        1 049      0.070700
     26 H12         6.3750   -1.1760    1.0320 h1        1 049      0.106200
     27 H12A        7.6450   -1.0610   -0.3400 h1        1 049      0.106200
     28 H11         6.7920    2.5700   -1.2410 hc        1 049      0.068700
     29 H11A        7.8280    1.1330   -1.6380 hc        1 049      0.068700
     30 H11B        8.1770    2.1190   -0.1520 hc        1 049      0.068700
     31 HN22        4.3480    1.4380   -1.1630 hn        1 049      0.475300
     32 H18         1.5950    3.7370   -1.1950 hc        1 049      0.114033
     33 H18A        1.9700    3.7710    0.5900 hc        1 049      0.114033
     34 H18B        2.5030    5.1460   -0.4840 hc        1 049      0.114033
     35 H3         -1.8230   -0.0580    1.0160 ha        1 049      0.156000
     36 H2         -0.7210    0.9750    3.0050 ha        1 049      0.154000
     37 H1          1.7650    1.0670    3.1490 ha        1 049      0.140000
     38 H222        2.7540    1.4740   -0.6510 hn        1 049      0.475300
@<TRIPOS>BOND
     1    1    2 ar  
     2    1   16 ar  
     3    1   19 1   
     4    2    3 ar  
     5    2   20 1   
     6    3    5 1   
     7    3   18 ar  
     8    4    5 1   
     9    4    8 1   
    10    4   12 1   
    11    4   21 1   
    12    5   22 1   
    13    5   23 1   
    14    6    8 1   
    15    6    9 1   
    16    6   10 1   
    17    6   11 1   
    18    7    8 1   
    19    7   24 1   
    20    8   25 1   
    21    9   10 1   
    22    9   26 1   
    23    9   27 1   
    24   11   28 1   
    25   11   29 1   
    26   11   30 1   
    27   12   13 1   
    28   12   31 1   
    29   12   38 1   
    30   13   14 1   
    31   13   15 2   
    32   14   32 1   
    33   14   33 1   
    34   14   34 1   
    35   16   17 ar  
    36   16   35 1   
    37   17   18 ar  
    38   17   36 1   
    39   18   37 1   
@<TRIPOS>SUBSTRUCTURE
     1 049         1 TEMP              0 ****  ****    0 ROOT
