@<TRIPOS>MOLECULE
04A
   59    59     1     0     0
SMALL
bcc


@<TRIPOS>ATOM
      1 OAA        -1.2600   -0.8180   -1.3270 o         1 04A     -0.340000
      2 OAB        -2.9590    8.2420  -12.0500 o         1 04A     -0.357000
      3 CAC         0.1100    0.1370    5.5080 c1        1 04A     -0.124000
      4 CAD         3.0680   11.1080  -13.1570 c1        1 04A     -0.059500
      5 CAE         2.5570    0.1530    1.6510 c2        1 04A     -0.208000
      6 CAF        -0.0470   -0.1200    4.3310 c1        1 04A     -0.181000
      7 CAG         2.3530   10.9080  -12.1920 c1        1 04A     -0.204000
      8 CAH        -3.1480   11.4400   -9.1140 c1        1 04A     -0.191000
      9 CAI         1.3570    0.7090    1.8080 c2        1 04A     -0.194000
     10 CAJ        -0.3400   -0.5670    3.0930 c1        1 04A      0.016000
     11 CAK         1.4510   10.6310  -11.2350 c1        1 04A     -0.059500
     12 CAL        -2.6180   11.5140  -10.1840 c1        1 04A     -0.185000
     13 CAM         0.7370    1.5630   -7.0840 c3        1 04A     -0.268000
     14 CAN         0.3530    3.5620   -8.9590 c3        1 04A     -0.263000
     15 CAP        -0.0620    3.8650  -10.3790 c3        1 04A     -0.070000
     16 CAQ        -0.0420   -1.1120    0.7390 c3        1 04A     -0.156000
     17 CAR        -2.4180   10.5610  -12.4460 c3        1 04A     -0.166000
     18 NAS         1.4360    2.0870   -4.1260 n2        1 04A     -0.034000
     19 NAT         1.0940    6.0900  -10.5190 n2        1 04A     -0.034000
     20 NAU         1.6840    1.6690   -2.9270 n2        1 04A     -0.111000
     21 NAV         0.9190    7.3310  -10.8390 n2        1 04A     -0.135000
     22 NAW         0.7590    0.2550   -1.1730 ns        1 04A     -0.291000
     23 NAX        -0.7790    8.8590  -11.6810 ns        1 04A     -0.303000
     24 SAY         0.0790    1.8290   -8.7000 ss        1 04A      0.046000
     25 SAZ        -0.5720    0.5840   -3.5790 ss        1 04A      0.568000
     26 SBA        -1.3670    6.1880  -11.2450 ss        1 04A      0.553000
     27 CBB        -0.2470   -0.5530   -0.6540 c2        1 04A      0.296000
     28 CBC        -2.0930    9.1400  -12.0320 c2        1 04A      0.302000
     29 CBD         0.0530   -0.0190    1.8020 c3        1 04A     -0.078000
     30 CBE        -1.9740   11.6240  -11.4590 c3        1 04A     -0.054000
     31 CBF         0.2750    1.6160   -4.6470 c2        1 04A     -0.391000
     32 CBG        -0.0110    5.3180  -10.6680 c2        1 04A     -0.400000
     33 CBH         0.7040    0.8290   -2.4350 c2        1 04A     -0.211000
     34 CBI        -0.3670    7.6040  -11.2710 c2        1 04A     -0.188000
     35 HAC         0.2360    0.3470    6.5400 ha        1 04A      0.231000
     36 HAE         3.4790    0.7500    1.6890 ha        1 04A      0.123000
     37 HAF         2.7130   -0.9210    1.4840 ha        1 04A      0.123000
     38 HAG         1.6690   10.6530  -10.1640 ha        1 04A      0.183000
     39 HAH        -3.6190   11.3680   -8.1670 ha        1 04A      0.225000
     40 HAI         1.2660    1.7940    1.9920 ha        1 04A      0.135000
     41 HAJ        -0.7770    0.7350    1.5850 hc        1 04A      0.155000
     42 HAK        -0.8540   11.5880  -11.3180 hc        1 04A      0.110000
     43 HAL        -2.2150   12.6330  -11.9040 hc        1 04A      0.110000
     44 HAM         1.7020    2.1120   -6.9560 h1        1 04A      0.124500
     45 HAMA        0.9530    0.4660   -7.0350 h1        1 04A      0.124500
     46 HAN        -0.2490    4.1600   -8.2330 h1        1 04A      0.112500
     47 HANA        1.4290    3.8160   -8.7990 h1        1 04A      0.112500
     48 HAP        -1.1070    3.4910  -10.5570 hc        1 04A      0.109000
     49 HAPA        0.6180    3.3210  -11.0930 hc        1 04A      0.109000
     50 HAQ         0.8770   -1.7550    0.7520 hc        1 04A      0.135500
     51 HAQA       -0.9250   -1.7700    0.9700 hc        1 04A      0.135500
     52 HAR        -3.5310   10.6140  -12.5890 hc        1 04A      0.121000
     53 HARA       -1.9300   10.7550  -13.4380 hc        1 04A      0.121000
     54 HNAW        1.5500    0.4710   -0.5990 hn        1 04A      0.263000
     55 HNAX       -0.0930    9.6200  -11.6330 hn        1 04A      0.302000
     56 CAO        -0.2350    1.9570   -5.9970 c3        1 04A     -0.082000
     57 HAD         3.6850   11.2810  -14.0050 ha        1 04A      0.183000
     58 HAO        -0.4290    3.0650   -6.0500 hc        1 04A      0.105500
     59 HAOA       -1.2180    1.4380   -6.1620 hc        1 04A      0.105500
@<TRIPOS>BOND
     1    1   27 1   
     2    2   28 1   
     3    3    6 1   
     4    3   35 1   
     5    4    7 1   
     6    4   57 1   
     7    5    9 1   
     8    5   36 1   
     9    5   37 1   
    10    6   10 1   
    11    7   11 1   
    12    8   12 1   
    13    8   39 1   
    14    9   29 1   
    15    9   40 1   
    16   10   29 1   
    17   11   38 1   
    18   12   30 1   
    19   13   24 1   
    20   13   44 1   
    21   13   45 1   
    22   13   56 1   
    23   14   15 1   
    24   14   24 1   
    25   14   46 1   
    26   14   47 1   
    27   15   32 1   
    28   15   48 1   
    29   15   49 1   
    30   16   27 1   
    31   16   29 1   
    32   16   50 1   
    33   16   51 1   
    34   17   28 1   
    35   17   30 1   
    36   17   52 1   
    37   17   53 1   
    38   18   20 1   
    39   18   31 1   
    40   19   21 1   
    41   19   32 1   
    42   20   33 1   
    43   21   34 1   
    44   22   27 1   
    45   22   33 1   
    46   22   54 1   
    47   23   28 1   
    48   23   34 1   
    49   23   55 1   
    50   25   31 1   
    51   25   33 1   
    52   26   32 1   
    53   26   34 1   
    54   29   41 1   
    55   30   42 1   
    56   30   43 1   
    57   31   56 1   
    58   56   58 1   
    59   56   59 1   
@<TRIPOS>SUBSTRUCTURE
     1 04A         1 TEMP              0 ****  ****    0 ROOT
