@<TRIPOS>MOLECULE
04A
   61    59     1     0     0
SMALL
bcc


@<TRIPOS>ATOM
      1 OAA        -2.2160   -1.0840   -1.0750 o         1 04A     -0.144000
      2 OAB         1.6340   11.2240  -11.8610 o         1 04A     -0.241000
      3 CAC         1.4890   -3.0240    4.7310 c2        1 04A     -0.037000
      4 CAD        -2.0800   12.9860  -15.8990 c2        1 04A      0.002000
      5 CAE         0.8670    1.3030    2.1740 c1        1 04A     -0.228000
      6 CAF         0.9160   -2.9740    3.5600 c1        1 04A     -0.131000
      7 CAG        -1.8250   11.6560  -15.8570 c2        1 04A     -0.189000
      8 CAH        -1.8910   13.8830  -14.8410 c1        1 04A     -0.177000
      9 CAI         0.0720    1.9850    1.5930 c1        1 04A     -0.228000
     10 CAJ         0.3390   -2.9590    2.4370 c1        1 04A     -0.054000
     11 CAK        -1.4540   10.8910  -14.7460 c1        1 04A     -0.075000
     12 CAL        -1.7380   14.6930  -13.9690 c1        1 04A     -0.153000
     13 CAM         0.7540    2.5610   -5.6410 c3        1 04A     -0.363000
     14 CAN         0.8590    4.1940   -7.7600 c2        1 04A     -0.262000
     15 CAP         1.1160    4.6700   -9.0300 c2        1 04A     -0.200000
     16 CAQ        -1.4900   -2.2510    0.9620 c3        1 04A     -0.130000
     17 CAR        -0.3800   10.1360  -12.7060 c3        1 04A     -0.165000
     18 NAS        -0.1110    1.7310   -3.0270 n2        1 04A     -0.022000
     19 NAT         0.1110    6.9000   -8.5860 n2        1 04A      0.016000
     20 NAU        -0.3220    1.2940   -1.8420 n2        1 04A      0.031000
     21 NAV        -0.1530    7.9990   -8.9970 n2        1 04A      0.028000
     22 NAW        -0.0050   -0.6750   -0.3900 n4        1 04A     -0.037000
     23 NAX         0.9740    9.4240  -10.6860 n         1 04A     -0.326000
     24 SAY         1.2820    2.6920   -7.3250 ss        1 04A      0.561000
     25 SAZ         0.9070   -0.6210   -3.0540 ss        1 04A      0.700000
     26 SBA         1.0660    6.5180  -10.9840 s         1 04A      0.280000
     27 CBB        -1.3780   -1.3520   -0.2370 c2        1 04A      0.263000
     28 CBC         0.7870   10.3350  -11.7790 c2        1 04A      0.301000
     29 CBD        -0.2410   -2.9880    1.2630 c2        1 04A     -0.230000
     30 CBE        -0.3680   11.1630  -13.8300 c3        1 04A     -0.176000
     31 CBF         0.5420    0.8370   -3.8420 c2        1 04A     -0.314000
     32 CBG         0.7900    5.9500   -9.5020 c2        1 04A     -0.170000
     33 CBH         0.1640    0.0130   -1.6480 c2        1 04A     -0.460000
     34 CBI         0.1490    8.3750  -10.4000 c2        1 04A      0.032000
     35 HAC         1.1340   -2.4240    5.5860 ha        1 04A      0.167000
     36 HAE         2.3590   -3.6760    4.9270 ha        1 04A      0.167000
     37 HAF         1.5800    0.7450    2.7310 ha        1 04A      0.238000
     38 HAH        -1.6030   15.4200  -13.2070 ha        1 04A      0.235000
     39 HAI        -0.6250    2.6200    1.0970 ha        1 04A      0.238000
     40 HAJ         0.1180   -3.6810    0.4810 ha        1 04A      0.153000
     41 HAK         0.6240   11.1290  -14.3670 hc        1 04A      0.141500
     42 HAL        -0.4560   12.2060  -13.4020 hc        1 04A      0.141500
     43 HAM        -0.2990    2.9220   -5.5130 h1        1 04A      0.155000
     44 HAMA        1.3990    3.1940   -4.9780 h1        1 04A      0.155000
     45 HAN        -0.3850    5.7100   -4.6930 ha        1 04A      0.001000
     46 HANA       -0.0900    5.1470   -4.9310 ha        1 04A      0.001000
     47 HAP         0.3520    4.8620   -7.0300 h4        1 04A      0.193000
     48 HAPA        1.6200    4.0020   -9.7580 ha        1 04A      0.179000
     49 HAQ        -2.3210   -2.9860    0.7370 hc        1 04A      0.172000
     50 HAQA       -1.8290   -1.6180    1.8320 hc        1 04A      0.172000
     51 HAR        -1.3390   10.2360  -12.1290 hc        1 04A      0.127500
     52 HARA       -0.3420    9.1060  -13.1520 hc        1 04A      0.127500
     53 HNAW        0.0950    0.0070    0.3950 hn        1 04A      0.279000
     54 HNAX       -0.7840    8.3140  -11.0320 h5        1 04A      0.204000
     55 HAD        -2.5410   13.4280  -16.8060 ha        1 04A      0.159000
     56 HAW2        0.7270   -1.3900   -0.2830 hn        1 04A      0.279000
     57 HAX2        1.7420    9.6370  -10.0740 hn        1 04A      0.264000
     58 CAO         0.8700    1.1010   -5.2660 c3        1 04A     -0.094000
     59 HAG        -2.0560   11.0470  -16.7580 ha        1 04A      0.174000
     60 HAO         0.1660    0.4920   -5.9060 hc        1 04A      0.135000
     61 HAOA        1.9170    0.7390   -5.4710 hc        1 04A      0.135000
@<TRIPOS>BOND
     1    1   27 1   
     2    2   28 1   
     3    3    6 1   
     4    3   35 1   
     5    3   36 1   
     6    4    7 1   
     7    4    8 1   
     8    4   55 1   
     9    5    9 1   
    10    5   37 1   
    11    6   10 1   
    12    7   11 1   
    13    7   59 1   
    14    8   12 1   
    15    9   39 1   
    16   10   29 1   
    17   11   30 1   
    18   12   38 1   
    19   13   24 1   
    20   13   43 1   
    21   13   44 1   
    22   13   58 1   
    23   14   15 1   
    24   14   24 1   
    25   14   47 1   
    26   15   32 1   
    27   15   48 1   
    28   16   27 1   
    29   16   29 1   
    30   16   49 1   
    31   16   50 1   
    32   17   28 1   
    33   17   30 1   
    34   17   51 1   
    35   17   52 1   
    36   18   20 1   
    37   18   31 1   
    38   19   21 1   
    39   19   32 1   
    40   20   33 1   
    41   21   34 1   
    42   22   27 1   
    43   22   33 1   
    44   22   53 1   
    45   22   56 1   
    46   23   28 1   
    47   23   34 1   
    48   23   57 1   
    49   25   31 1   
    50   25   33 1   
    51   26   32 1   
    52   29   40 1   
    53   30   41 1   
    54   30   42 1   
    55   31   58 1   
    56   34   54 1   
    57   45   46 1   
    58   58   60 1   
    59   58   61 1   
@<TRIPOS>SUBSTRUCTURE
     1 04A         1 TEMP              0 ****  ****    0 ROOT
