@<TRIPOS>MOLECULE
04A
   59    62     1     0     0
SMALL
bcc


@<TRIPOS>ATOM
      1 OAA         7.5760   -1.0720   -2.0260 o         1 04A     -0.586100
      2 OAB        -7.5680   -1.0070    2.0800 o         1 04A     -0.586100
      3 CAC        11.4820    2.1860    1.5270 ca        1 04A     -0.118000
      4 CAD       -11.4880    2.1090   -1.5810 ca        1 04A     -0.118000
      5 CAE        10.6260    2.9960    0.7820 ca        1 04A     -0.123500
      6 CAF        11.6400    0.8430    1.1850 ca        1 04A     -0.123500
      7 CAG       -11.6430    0.7790   -1.1890 ca        1 04A     -0.123500
      8 CAH       -10.6310    2.9490   -0.8690 ca        1 04A     -0.123500
      9 CAI         9.9270    2.4660   -0.3010 ca        1 04A     -0.123000
     10 CAJ        10.9430    0.3080    0.1030 ca        1 04A     -0.123000
     11 CAK       -10.9420    0.2870   -0.0890 ca        1 04A     -0.123000
     12 CAL        -9.9280    2.4600    0.2310 ca        1 04A     -0.123000
     13 CAM         1.3690   -0.8240    0.1080 c3        1 04A      0.001700
     14 CAN        -1.3670   -0.8290   -0.0750 c3        1 04A      0.001700
     15 CAP        -2.6100   -1.6650   -0.2620 c3        1 04A     -0.088700
     16 CAQ         9.3500    0.5530   -1.8110 c3        1 04A     -0.100100
     17 CAR        -9.3450    0.6060    1.8100 c3        1 04A     -0.100100
     18 NAS         4.0630    0.2750    1.0350 nc        1 04A     -0.296000
     19 NAT        -4.0640    0.2300   -1.0370 nc        1 04A     -0.296000
     20 NAU         5.2080    0.8400    0.8300 nc        1 04A     -0.372000
     21 NAV        -5.2100    0.8010   -0.8500 nc        1 04A     -0.372000
     22 NAW         7.2190    0.6300   -0.5290 n         1 04A     -0.517400
     23 NAX        -7.2170    0.6380    0.5210 n         1 04A     -0.517400
     24 SAY         0.0020   -1.9500    0.0360 ss        1 04A     -0.328200
     25 SAZ         5.1410   -1.1820   -0.7830 ss        1 04A     -0.058800
     26 SBA        -5.1360   -1.1590    0.8370 ss        1 04A     -0.058800
     27 CBB         7.9980   -0.0430   -1.4650 c         1 04A      0.661100
     28 CBC        -7.9920    0.0000    1.4830 c         1 04A      0.661100
     29 CBD        10.0790    1.1170   -0.6450 ca        1 04A     -0.108300
     30 CBE       -10.0780    1.1250    0.6260 ca        1 04A     -0.108300
     31 CBF         3.8410   -0.8220    0.2680 cd        1 04A      0.280700
     32 CBG        -3.8390   -0.8370   -0.2300 cd        1 04A      0.280700
     33 CBH         5.9620    0.1980   -0.1340 cd        1 04A      0.448300
     34 CBI        -5.9600    0.1940    0.1390 cd        1 04A      0.448300
     35 HAC        12.0320    2.6050    2.3820 ha        1 04A      0.138000
     36 HAE        10.5010    4.0570    1.0480 ha        1 04A      0.138500
     37 HAF        12.3160    0.2010    1.7710 ha        1 04A      0.138500
     38 HAG       -12.3190    0.1160   -1.7480 ha        1 04A      0.138500
     39 HAH       -10.5080    3.9980   -1.1750 ha        1 04A      0.138500
     40 HAI         9.2590    3.1120   -0.8920 ha        1 04A      0.136500
     41 HAJ        11.0720   -0.7510   -0.1650 ha        1 04A      0.136500
     42 HAK       -11.0690   -0.7620    0.2190 ha        1 04A      0.136500
     43 HAL        -9.2600    3.1290    0.7950 ha        1 04A      0.136500
     44 HAM         1.2290   -0.0930    0.9420 h1        1 04A      0.074200
     45 HAMA        1.4390   -0.2450   -0.8440 h1        1 04A      0.074200
     46 HAN        -1.2290   -0.1300   -0.9360 h1        1 04A      0.074200
     47 HANA       -1.4360   -0.2160    0.8550 h1        1 04A      0.074200
     48 HAP        -2.5540   -2.2070   -1.2480 hc        1 04A      0.071200
     49 HAPA       -2.6690   -2.4440    0.5480 hc        1 04A      0.071200
     50 HAQ         9.9550   -0.2660   -2.2910 hc        1 04A      0.090200
     51 HAQA        9.1770    1.3470   -2.5880 hc        1 04A      0.090200
     52 HAR        -9.9470   -0.1950    2.3210 hc        1 04A      0.090200
     53 HARA       -9.1700    1.4290    2.5560 hc        1 04A      0.090200
     54 HNAW        7.6110    1.4170   -0.0520 hn        1 04A      0.350500
     55 HNAX       -7.6110    1.4070    0.0160 hn        1 04A      0.350500
     56 CAO         2.6130   -1.6510    0.3280 c3        1 04A     -0.088700
     57 HAD       -12.0410    2.4960   -2.4500 ha        1 04A      0.138000
     58 HAO         2.5570   -2.1560    1.3320 hc        1 04A      0.071200
     59 HAOA        2.6750   -2.4580   -0.4530 hc        1 04A      0.071200
@<TRIPOS>BOND
     1    1   27 2   
     2    2   28 2   
     3    3    5 ar  
     4    3    6 ar  
     5    3   35 1   
     6    4    7 ar  
     7    4    8 ar  
     8    4   57 1   
     9    5    9 ar  
    10    5   36 1   
    11    6   10 ar  
    12    6   37 1   
    13    7   11 ar  
    14    7   38 1   
    15    8   12 ar  
    16    8   39 1   
    17    9   29 ar  
    18    9   40 1   
    19   10   29 ar  
    20   10   41 1   
    21   11   30 ar  
    22   11   42 1   
    23   12   30 ar  
    24   12   43 1   
    25   13   24 1   
    26   13   44 1   
    27   13   45 1   
    28   13   56 1   
    29   14   15 1   
    30   14   24 1   
    31   14   46 1   
    32   14   47 1   
    33   15   32 1   
    34   15   48 1   
    35   15   49 1   
    36   16   27 1   
    37   16   29 1   
    38   16   50 1   
    39   16   51 1   
    40   17   28 1   
    41   17   30 1   
    42   17   52 1   
    43   17   53 1   
    44   18   20 1   
    45   18   31 2   
    46   19   21 1   
    47   19   32 2   
    48   20   33 2   
    49   21   34 2   
    50   22   27 1   
    51   22   33 1   
    52   22   54 1   
    53   23   28 1   
    54   23   34 1   
    55   23   55 1   
    56   25   31 1   
    57   25   33 1   
    58   26   32 1   
    59   26   34 1   
    60   31   56 1   
    61   56   58 1   
    62   56   59 1   
@<TRIPOS>SUBSTRUCTURE
     1 04A         1 TEMP              0 ****  ****    0 ROOT
