@<TRIPOS>MOLECULE
04A
   59    58     1     0     0
SMALL
bcc


@<TRIPOS>ATOM
      1 OAA         2.4740   -1.5250   -1.1860 o         1 04A     -0.349000
      2 OAB        -2.7700    7.2210  -12.7100 o         1 04A     -0.341000
      3 CAC        -2.1990   -1.0100    2.1840 c1        1 04A      0.389500
      4 CAD        -0.0130   13.6390  -13.7670 c1        1 04A     -0.018000
      5 CAE         0.4670    0.1440    4.2810 c3        1 04A     -0.194000
      6 CAF        -3.4780   -0.9550    2.3030 c1        1 04A     -0.777000
      7 CAG         0.2990   12.3340  -13.3400 c2        1 04A     -0.176000
      8 CAH         1.3700   16.3310  -12.3680 c1        1 04A     -0.234000
      9 CAI         1.5230   -0.2040    3.3110 c2        1 04A     -0.136000
     10 CAJ        -4.7620   -0.8980    2.4140 c1        1 04A      0.389500
     11 CAK        -0.5610   11.3950  -13.0120 c1        1 04A     -0.126000
     12 CAL         1.8840   17.3010  -11.8930 c1        1 04A     -0.234000
     13 CAM        -0.8200    1.3800   -6.0330 c3        1 04A     -0.266000
     14 CAN        -0.5190    3.0040   -8.2530 c3        1 04A     -0.266000
     15 CAP        -0.5840    3.0720   -9.7600 c3        1 04A     -0.074000
     16 CAQ         2.3450   -1.2300    1.2080 c3        1 04A     -0.141000
     17 CAR        -1.9710    9.4120  -13.3340 c3        1 04A     -0.135000
     18 NAS         0.0130    2.1360   -3.1920 n2        1 04A     -0.036000
     19 NAT         0.7300    5.1980  -10.0080 n2        1 04A     -0.032000
     20 NAU         0.1900    1.8820   -1.9360 n2        1 04A     -0.112000
     21 NAV         0.7060    6.3740  -10.5470 n2        1 04A     -0.105000
     22 NAW         1.3240    0.3170   -0.4520 n         1 04A     -0.284000
     23 NAX        -0.6910    7.8080  -11.9340 n         1 04A     -0.285000
     24 SAY        -0.8890    1.3310   -7.7970 ss        1 04A      0.048000
     25 SAZ         1.5020    0.0450   -3.2000 ss        1 04A      0.571000
     26 SBA        -1.5300    5.2640  -11.2230 ss        1 04A      0.573000
     27 CBB         2.0520   -0.8480   -0.2290 c2        1 04A      0.306000
     28 CBC        -1.8620    8.0700  -12.6350 c2        1 04A      0.304000
     29 CBD         1.2820   -0.8450    2.1630 c2        1 04A     -0.212000
     30 CBE        -1.4140   10.5340  -12.5390 c2        1 04A     -0.141000
     31 CBF         0.6360    1.2650   -4.0270 c2        1 04A     -0.394000
     32 CBG        -0.3780    4.4540  -10.2560 c2        1 04A     -0.386000
     33 CBH         0.9840    0.7720   -1.7170 c2        1 04A     -0.208000
     34 CBI        -0.4500    6.6150  -11.2640 c2        1 04A     -0.215000
     35 HAC         0.4650    1.2480    4.4680 hc        1 04A      0.087000
     36 HAE         0.6550   -0.3740    5.2550 hc        1 04A      0.087000
     37 HAF        -0.5480   -0.1540    3.9120 hc        1 04A      0.087000
     38 HAG         1.3860   12.1560  -13.1700 ha        1 04A      0.187000
     39 HAH         0.9090   15.4630  -12.7930 ha        1 04A      0.230000
     40 HAI         2.5450    0.1000    3.5970 ha        1 04A      0.121000
     41 HAJ         0.2540   -1.1500    1.8890 ha        1 04A      0.153000
     42 HAK        -1.7950   10.6250  -11.5040 ha        1 04A      0.157000
     43 HAL         2.3400   18.1600  -11.4730 ha        1 04A      0.230000
     44 HAM        -1.3570    2.2800   -5.6440 h1        1 04A      0.125000
     45 HAMA       -1.3810    0.4710   -5.6980 h1        1 04A      0.125000
     46 HAN        -1.2590    3.7010   -7.7900 h1        1 04A      0.113000
     47 HANA        0.4960    3.2950   -7.8880 h1        1 04A      0.113000
     48 HAP        -1.5830    2.6980  -10.1140 hc        1 04A      0.111500
     49 HAPA        0.2040    2.3990  -10.2010 hc        1 04A      0.111500
     50 HAQ         3.3330   -0.7670    1.4790 hc        1 04A      0.127500
     51 HAQA        2.4780   -2.3480    1.2280 hc        1 04A      0.127500
     52 HAR        -3.0650    9.6000  -13.5220 hc        1 04A      0.135000
     53 HARA       -1.4620    9.3180  -14.3310 hc        1 04A      0.135000
     54 HNAW        0.9680    0.8210    0.3340 hn        1 04A      0.264000
     55 HNAX        0.0090    8.5170  -11.8790 hn        1 04A      0.262000
     56 CAO         0.5950    1.3490   -5.5060 c3        1 04A     -0.083000
     57 HAD        -0.6890   13.8030  -14.6160 ha        1 04A      0.081000
     58 HAO         1.1400    2.2780   -5.8360 hc        1 04A      0.106500
     59 HAOA        1.1410    0.4680   -5.9410 hc        1 04A      0.106500
@<TRIPOS>BOND
     1    1   27 1   
     2    2   28 1   
     3    3    6 1   
     4    4    7 1   
     5    4   57 1   
     6    5    9 1   
     7    5   35 1   
     8    5   36 1   
     9    5   37 1   
    10    6   10 1   
    11    7   11 1   
    12    7   38 1   
    13    8   12 1   
    14    8   39 1   
    15    9   29 1   
    16    9   40 1   
    17   11   30 1   
    18   12   43 1   
    19   13   24 1   
    20   13   44 1   
    21   13   45 1   
    22   13   56 1   
    23   14   15 1   
    24   14   24 1   
    25   14   46 1   
    26   14   47 1   
    27   15   32 1   
    28   15   48 1   
    29   15   49 1   
    30   16   27 1   
    31   16   29 1   
    32   16   50 1   
    33   16   51 1   
    34   17   28 1   
    35   17   30 1   
    36   17   52 1   
    37   17   53 1   
    38   18   20 1   
    39   18   31 1   
    40   19   21 1   
    41   19   32 1   
    42   20   33 1   
    43   21   34 1   
    44   22   27 1   
    45   22   33 1   
    46   22   54 1   
    47   23   28 1   
    48   23   34 1   
    49   23   55 1   
    50   25   31 1   
    51   25   33 1   
    52   26   32 1   
    53   26   34 1   
    54   29   41 1   
    55   30   42 1   
    56   31   56 1   
    57   56   58 1   
    58   56   59 1   
@<TRIPOS>SUBSTRUCTURE
     1 04A         1 TEMP              0 ****  ****    0 ROOT
