@<TRIPOS>MOLECULE
04A
   59    56     1     0     0
SMALL
bcc


@<TRIPOS>ATOM
      1 OAA         4.1240   -4.8650    5.1190 o         1 04A     -0.586100
      2 OAB        -2.5610    4.5430   -6.0610 o         1 04A     -0.586100
      3 CAC         4.4370   -1.8620    9.2290 c1        1 04A     -0.064500
      4 CAD        -6.4550    7.6280   -6.5130 c1        1 04A     -0.064500
      5 CAE         5.2470   -2.9390    8.9080 c1        1 04A     -0.064500
      6 CAF         3.1180   -1.8360    8.8030 c1        1 04A     -0.064500
      7 CAG        -5.2390    7.7590   -7.1660 c1        1 04A     -0.064500
      8 CAH        -6.5080    7.0390   -5.2600 c1        1 04A     -0.064500
      9 CAI         4.7390   -3.9910    8.1620 c1        1 04A     -0.065500
     10 CAJ         2.6100   -2.8870    8.0570 c1        1 04A     -0.064500
     11 CAK        -4.0770    7.3010   -6.5660 c1        1 04A     -0.064500
     12 CAL        -5.3450    6.5810   -4.6590 c1        1 04A     -0.065500
     13 CAM         1.0060   -3.2830   -0.7580 c3        1 04A      0.001700
     14 CAN         0.3460   -1.2130   -2.6680 c3        1 04A      0.001700
     15 CAO         1.4800   -4.7120   -0.6170 c3        1 04A     -0.088700
     16 CAP        -0.2490   -0.9650   -4.0350 c3        1 04A     -0.088700
     17 CAQ         2.7900   -5.1560    7.0520 c3        1 04A     -0.134300
     18 CAR        -2.8520    6.3660   -4.5790 c3        1 04A     -0.134300
     19 NAS         3.2310   -4.8110    1.1370 nc        1 04A     -0.296000
     20 NAT        -0.9680    0.7840   -5.5180 nc        1 04A     -0.296000
     21 NAU         3.3980   -4.9270    2.7010 nc        1 04A     -0.372000
     22 NAV        -1.5430    2.2530   -5.5570 nc        1 04A     -0.372000
     23 NAW         1.9140   -5.2140    4.6710 n         1 04A     -0.517400
     24 NAX        -1.8650    4.1180   -3.9280 n         1 04A     -0.517400
     25 SAY         0.6430   -2.9470   -2.4590 ss        1 04A     -0.329200
     26 SAZ         1.1020   -5.2000    2.1310 ss        1 04A     -0.058800
     27 SBA        -0.7980    1.7560   -3.3500 ss        1 04A     -0.058800
     28 CBB         3.0070   -5.0520    5.5590 c         1 04A      0.660100
     29 CBC        -2.4400    4.9510   -4.9220 c         1 04A      0.660100
     30 CBD         3.4200   -3.9650    7.7360 c1        1 04A     -0.074100
     31 CBE        -4.1300    6.7130   -5.3120 c1        1 04A     -0.074100
     32 CBF         1.8630   -4.9760    0.8210 cd        1 04A      0.280700
     33 CBG        -0.5320    0.5100   -4.2010 cd        1 04A      0.280700
     34 CBH         2.1240   -5.1570    3.2700 cd        1 04A      0.448300
     35 CBI        -1.4320    2.8100   -4.2620 cd        1 04A      0.448300
     36 HAC         4.7950   -1.1210    9.7540 ha        1 04A      0.080625
     37 HAD        -7.2740    7.9500   -6.9360 ha        1 04A      0.080625
     38 HAE         6.1760   -2.9570    9.2070 ha        1 04A      0.080625
     39 HAF         2.5470   -1.0770    9.0290 ha        1 04A      0.080625
     40 HAG        -5.2020    8.1740   -8.0490 ha        1 04A      0.080625
     41 HAH        -7.3640    6.9460   -4.8000 ha        1 04A      0.080625
     42 HAI         5.3100   -4.7500    7.9360 ha        1 04A      0.079000
     43 HAJ         1.6810   -2.8690    7.7580 ha        1 04A      0.080625
     44 HAK        -3.2210    7.3940   -7.0260 ha        1 04A      0.080625
     45 HAL        -5.3820    6.1660   -3.7760 ha        1 04A      0.079000
     46 HAM         1.7070   -2.6760   -0.4480 h1        1 04A      0.074200
     47 HAMA        0.1990   -3.1520   -0.2200 h1        1 04A      0.074200
     48 HAN         1.1890   -0.7260   -2.5860 h1        1 04A      0.074200
     49 HANA       -0.2780   -0.9040   -1.9800 h1        1 04A      0.074200
     50 HAO         2.2560   -4.8570   -1.1930 hc        1 04A      0.071200
     51 HAOA        0.7610   -5.3210   -0.8800 hc        1 04A      0.071200
     52 HAP        -1.0830   -1.4690   -4.1240 hc        1 04A      0.071200
     53 HAPA        0.3830   -1.2550   -4.7230 hc        1 04A      0.071200
     54 HAQ         3.2010   -5.9790    7.3850 hc        1 04A      0.090200
     55 HAQA        1.8300   -5.1710    7.2410 hc        1 04A      0.090200
     56 HAR        -3.0000    6.4380   -3.6140 hc        1 04A      0.090200
     57 HARA       -2.1440    6.9860   -4.8470 hc        1 04A      0.090200
     58 HNAW        1.0750   -5.3510    5.0010 hn        1 04A      0.350500
     59 HNAX       -1.7680    4.4270   -3.0750 hn        1 04A      0.350500
@<TRIPOS>BOND
     1    1   28 2   
     2    2   29 2   
     3    3    5 3   
     4    3   36 1   
     5    4    8 3   
     6    4   37 1   
     7    5   38 1   
     8    6   10 3   
     9    6   39 1   
    10    7   11 3   
    11    7   40 1   
    12    8   41 1   
    13    9   30 3   
    14    9   42 1   
    15   10   43 1   
    16   11   44 1   
    17   12   31 3   
    18   12   45 1   
    19   13   15 1   
    20   13   25 1   
    21   13   46 1   
    22   13   47 1   
    23   14   16 1   
    24   14   25 1   
    25   14   48 1   
    26   14   49 1   
    27   15   32 1   
    28   15   50 1   
    29   15   51 1   
    30   16   33 1   
    31   16   52 1   
    32   16   53 1   
    33   17   28 1   
    34   17   30 1   
    35   17   54 1   
    36   17   55 1   
    37   18   29 1   
    38   18   31 1   
    39   18   56 1   
    40   18   57 1   
    41   19   21 1   
    42   19   32 2   
    43   20   22 1   
    44   20   33 2   
    45   21   34 2   
    46   22   35 2   
    47   23   28 1   
    48   23   34 1   
    49   23   58 1   
    50   24   29 1   
    51   24   35 1   
    52   24   59 1   
    53   26   32 1   
    54   26   34 1   
    55   27   33 1   
    56   27   35 1   
@<TRIPOS>SUBSTRUCTURE
     1 04A         1 TEMP              0 ****  ****    0 ROOT
