@<TRIPOS>MOLECULE
04B
   34    34     1     0     0
SMALL
bcc


@<TRIPOS>ATOM
      1 N22         0.2560   -0.3450   -1.5690 n3        1 04B     -0.904800
      2 C8          0.3620   -0.2160   -0.1320 c3        1 04B      0.141500
      3 C9          1.7050   -0.7000    0.4840 c3        1 04B      0.093100
      4 H3          1.6860   -0.4910    1.5920 h1        1 04B      0.080700
      5 O20         1.7990   -2.1140    0.4080 oh        1 04B     -0.589800
      6 C10         2.9470   -0.0460   -0.1320 c3        1 04B     -0.100700
      7 C11         4.1940   -0.5540    0.5650 c3        1 04B     -0.088100
      8 C12         2.8750    1.4750   -0.0370 c3        1 04B      0.132400
      9 O13         4.0220    1.9910   -0.6960 oh        1 04B     -0.600800
     10 C7         -0.7740   -0.9520    0.6050 c3        1 04B     -0.026100
     11 C6         -2.1040   -0.3390    0.3480 ca        1 04B     -0.072300
     12 C5         -2.6410    0.5840    1.2540 ca        1 04B     -0.118000
     13 C4         -3.8940    1.1490    1.0260 ca        1 04B     -0.131500
     14 C3         -4.6230    0.7980   -0.1100 ca        1 04B     -0.132000
     15 C2         -4.0950   -0.1200   -1.0170 ca        1 04B     -0.131500
     16 C1         -2.8420   -0.6870   -0.7900 ca        1 04B     -0.118000
     17 H28         1.0070    0.1390   -2.0220 hn        1 04B      0.349300
     18 H29         0.2640    0.8860    0.1050 h1        1 04B      0.067700
     19 H35         5.1000   -0.1090    0.0880 hc        1 04B      0.044700
     20 H36         4.1820   -0.2710    1.6440 hc        1 04B      0.044700
     21 H37         4.2460   -1.6680    0.4920 hc        1 04B      0.044700
     22 H38         1.9520    1.8660   -0.5460 h1        1 04B      0.027200
     23 H39         2.8680    1.7990    1.0380 h1        1 04B      0.027200
     24 H40         3.9910    2.9490   -0.5890 ho        1 04B      0.403000
     25 H45        -0.7780   -2.0330    0.3010 hc        1 04B      0.056200
     26 H46        -0.5460   -0.9200    1.7040 hc        1 04B      0.056200
     27 H47        -2.0710    0.8630    2.1530 ha        1 04B      0.130000
     28 H48        -4.3080    1.8730    1.7430 ha        1 04B      0.128500
     29 H49        -5.6120    1.2440   -0.2900 ha        1 04B      0.129000
     30 H50        -4.6660   -0.3970   -1.9150 ha        1 04B      0.128500
     31 H51        -2.4220   -1.4030   -1.5120 ha        1 04B      0.130000
     32 H2          0.2640   -1.3070   -1.8440 hn        1 04B      0.349300
     33 H1          1.9630   -2.3470   -0.5130 ho        1 04B      0.394000
     34 H32         3.0180   -0.3260   -1.2210 hc        1 04B      0.054700
@<TRIPOS>BOND
     1    1    2 1   
     2    1   17 1   
     3    1   32 1   
     4    2    3 1   
     5    2   10 1   
     6    2   18 1   
     7    3    4 1   
     8    3    5 1   
     9    3    6 1   
    10    5   33 1   
    11    6    7 1   
    12    6    8 1   
    13    6   34 1   
    14    7   19 1   
    15    7   20 1   
    16    7   21 1   
    17    8    9 1   
    18    8   22 1   
    19    8   23 1   
    20    9   24 1   
    21   10   11 1   
    22   10   25 1   
    23   10   26 1   
    24   11   12 ar  
    25   11   16 ar  
    26   12   13 ar  
    27   12   27 1   
    28   13   14 ar  
    29   13   28 1   
    30   14   15 ar  
    31   14   29 1   
    32   15   16 ar  
    33   15   30 1   
    34   16   31 1   
@<TRIPOS>SUBSTRUCTURE
     1 04B         1 TEMP              0 ****  ****    0 ROOT
