@<TRIPOS>MOLECULE
04B
   34    31     1     0     0
SMALL
bcc


@<TRIPOS>ATOM
      1 N22        -1.8720    0.1310    0.1430 n3        1 04B     -0.901800
      2 C8         -0.4650    0.1410    0.1300 c3        1 04B      0.180500
      3 C9          0.0550    0.1880    1.5610 c3        1 04B      0.144100
      4 H3          0.9760    0.2550    1.5520 h1        1 04B      0.029700
      5 O20        -0.5070    1.3380    2.2320 oh        1 04B     -0.605800
      6 C10        -0.3460   -1.0560    2.2900 c3        1 04B     -0.097700
      7 C11        -1.5480   -0.7190    3.2620 c3        1 04B     -0.083100
      8 C12         0.7880   -1.5530    3.0640 c3        1 04B      0.128400
      9 O13         0.4370   -2.8590    3.6810 oh        1 04B     -0.595800
     10 C7          0.0390    1.3910   -0.6400 c3        1 04B     -0.114300
     11 C6          0.4320    0.9850   -2.1190 c1        1 04B     -0.048100
     12 C5          1.7850    1.0090   -2.5210 c1        1 04B     -0.069750
     13 C4          2.1200    0.7200   -3.8340 c1        1 04B     -0.069750
     14 C3          1.0800    0.3920   -4.7980 c1        1 04B     -0.069750
     15 C2         -0.2600    0.3660   -4.4080 c1        1 04B     -0.069750
     16 C1         -0.6080    0.6550   -3.0910 c1        1 04B     -0.077500
     17 H28        -2.2140   -0.7540   -0.2430 hn        1 04B      0.356300
     18 H29        -0.1510   -0.6280   -0.2890 h1        1 04B      0.061700
     19 H35        -2.2340   -0.2610    2.7690 hc        1 04B      0.042700
     20 H36        -1.9260   -1.5770    3.6520 hc        1 04B      0.042700
     21 H37        -1.2230   -0.1300    4.0060 hc        1 04B      0.042700
     22 H38         1.5090   -1.6630    2.5080 h1        1 04B      0.017200
     23 H39         1.0130   -0.9090    3.7650 h1        1 04B      0.017200
     24 H40         1.1830   -3.2180    4.0830 ho        1 04B      0.399000
     25 H45         0.8130    1.7530   -0.1900 hc        1 04B      0.059700
     26 H46        -0.6440    2.0450   -0.6650 hc        1 04B      0.059700
     27 H47         2.5220    1.2410   -1.8440 ha        1 04B      0.073750
     28 H48         3.1000    0.7370   -4.1260 ha        1 04B      0.073750
     29 H49         1.3270    0.1840   -5.7500 ha        1 04B      0.073750
     30 H50        -0.9620    0.1420   -5.0670 ha        1 04B      0.073750
     31 H51        -1.5280    0.6360   -2.8270 ha        1 04B      0.073500
     32 H2         -2.2000    0.8560   -0.3810 hn        1 04B      0.356300
     33 H1          0.1300    1.8950    2.4380 ho        1 04B      0.406000
     34 H32        -0.6220   -1.7300    1.6560 hc        1 04B      0.087700
@<TRIPOS>BOND
     1    1    2 1   
     2    1   17 1   
     3    1   32 1   
     4    2    3 1   
     5    2   10 1   
     6    2   18 1   
     7    3    4 1   
     8    3    5 1   
     9    3    6 1   
    10    5   33 1   
    11    6    7 1   
    12    6    8 1   
    13    6   34 1   
    14    7   19 1   
    15    7   20 1   
    16    7   21 1   
    17    8    9 1   
    18    8   22 1   
    19    8   23 1   
    20    9   24 1   
    21   10   11 1   
    22   10   25 1   
    23   10   26 1   
    24   11   16 3   
    25   12   13 3   
    26   12   27 1   
    27   13   28 1   
    28   14   15 3   
    29   14   29 1   
    30   15   30 1   
    31   16   31 1   
@<TRIPOS>SUBSTRUCTURE
     1 04B         1 TEMP              0 ****  ****    0 ROOT
