@<TRIPOS>MOLECULE
04B
   35    50     1     0     0
SMALL
bcc


@<TRIPOS>ATOM
      1 N22         0.0000    0.0000    0.0000 nz        1 04B      0.799000
      2 C8          1.4700    0.0000    0.0000 DU        1 04B      0.027000
      3 C9          1.9800    0.0000    1.4420 DU        1 04B      0.013000
      4 H3          3.0630   -0.0210    1.4300 ha        1 04B      0.126500
      5 O20         1.5390    1.1870    2.1040 oh        1 04B     -0.332000
      6 C10         1.4330   -1.2270    2.1760 DU        1 04B      0.064000
      7 C11         1.8390   -1.1620    3.6500 c3        1 04B      0.381000
      8 C12         2.0060   -2.4970    1.5440 DU        1 04B     -0.011000
      9 O13         1.4070   -3.6420    2.1520 oh        1 04B     -0.481000
     10 C7          1.9790    1.2500   -0.7220 c3        1 04B      0.405000
     11 C6          1.5790    1.1910   -2.1730 c3        1 04B     -0.348000
     12 C5          2.4160    0.5920   -3.0960 c3        1 04B     -0.232000
     13 C4          2.0510    0.5380   -4.4280 c3        1 04B     -0.045000
     14 C3          0.8470    1.0820   -4.8370 c3        1 04B     -0.113000
     15 C2          0.0090    1.6790   -3.9130 c3        1 04B     -0.228000
     16 C1          0.3740    1.7290   -2.5810 c2        1 04B     -0.381000
     17 H28        -0.3340   -0.2860    0.8990 hn        1 04B      0.062333
     18 H29         2.0760   -0.1920   -0.8770 hx        1 04B      0.201000
     19 H35         2.2840   -1.5330    2.7350 DU        1 04B      0.073000
     20 H36         0.9630   -1.4370    3.0750 DU        1 04B      0.079000
     21 H37         1.5850   -1.3930    2.6230 hc        1 04B     -0.810000
     22 H38         2.2710   -2.0320    2.4860 DU        1 04B     -0.161000
     23 H39         1.6360   -2.1130    2.4870 DU        1 04B      0.479000
     24 H40         2.1510   -3.2000    1.7790 DU        1 04B      0.295000
     25 H45         1.9610    0.4060   -0.0420 DU        1 04B     -0.338000
     26 H46         1.9670    0.2460   -0.3130 DU        1 04B     -0.338000
     27 H47         2.5110    0.7410   -2.0270 DU        1 04B      0.412000
     28 H48         2.7140    0.3490   -3.5930 DU        1 04B      0.241000
     29 H49         1.7880    0.5690   -4.9970 DU        1 04B      0.196000
     30 H50         0.2870    1.3560   -4.9090 DU        1 04B      0.180000
     31 H51        -0.3340    1.9520   -3.3700 DU        1 04B      0.246000
     32 H2         -0.3340    0.9220   -0.2020 hn        1 04B      0.062333
     33 H1          2.4540    1.0290    1.9450 DU        1 04B      0.288000
     34 H32         1.0810   -0.2080    2.0670 ha        1 04B      0.126500
     35 H223       -0.3340    0.0160   -0.9430 hn        1 04B      0.062333
@<TRIPOS>BOND
     1    1    2 1   
     2    1   17 1   
     3    1   32 1   
     4    1   35 1   
     5    2    3 1   
     6    2   10 1   
     7    2   18 1   
     8    2   25 1   
     9    2   26 1   
    10    3    4 1   
    11    3    5 1   
    12    3    6 1   
    13    3   33 1   
    14    3   34 1   
    15    5   33 1   
    16    6    7 1   
    17    6    8 1   
    18    6   19 1   
    19    6   20 1   
    20    6   22 1   
    21    7   19 1   
    22    7   20 1   
    23    7   21 1   
    24    8    9 1   
    25    8   22 1   
    26    8   23 1   
    27    8   24 1   
    28    9   24 1   
    29   10   11 1   
    30   10   25 1   
    31   10   26 1   
    32   11   12 1   
    33   11   16 1   
    34   11   27 1   
    35   12   13 1   
    36   12   27 1   
    37   12   28 1   
    38   13   14 1   
    39   13   28 1   
    40   13   29 1   
    41   14   15 1   
    42   14   29 1   
    43   14   30 1   
    44   15   16 1   
    45   15   30 1   
    46   15   31 1   
    47   16   31 1   
    48   19   22 1   
    49   22   23 1   
    50   25   26 1   
@<TRIPOS>SUBSTRUCTURE
     1 04B         1 TEMP              0 ****  ****    0 ROOT
