@<TRIPOS>MOLECULE
04B
   35    35     1     0     0
SMALL
bcc


@<TRIPOS>ATOM
      1 N22         1.0670    0.1970   -0.1090 n4        1 04B     -0.737000
      2 C8          1.6350    0.3800    1.2450 cy        1 04B      0.077500
      3 C9          0.8040   -0.2480    2.4280 cy        1 04B      0.134100
      4 H3          0.5580    0.4970    3.2230 h1        1 04B      0.089700
      5 O20        -0.3440   -0.8900    1.9380 oh        1 04B     -0.616300
      6 C10         1.9920   -1.1930    2.7680 cy        1 04B     -0.135700
      7 C11         2.5500   -1.0320    4.1460 c3        1 04B     -0.100100
      8 C12         2.8450   -0.5500    1.6370 cy        1 04B      0.134100
      9 O13         3.1730   -1.4110    0.5780 oh        1 04B     -0.616300
     10 C7          1.7500    1.0440   -1.1430 c3        1 04B      0.178100
     11 C6          1.1050    0.8770   -2.4750 ca        1 04B     -0.188300
     12 C5          1.4360   -0.2220   -3.2770 ca        1 04B     -0.100000
     13 C4          0.8630   -0.3570   -4.5400 ca        1 04B     -0.120000
     14 C3         -0.0380    0.6020   -5.0060 ca        1 04B     -0.079000
     15 C2         -0.3680    1.6990   -4.2070 ca        1 04B     -0.120000
     16 C1          0.2010    1.8380   -2.9420 ca        1 04B     -0.100000
     17 H28         0.0620    0.4130   -0.0770 hn        1 04B      0.467300
     18 H29         2.7850   -2.8180   -1.2960 ha        1 04B      0.003500
     19 H35         1.8120   -1.3890    4.9070 hc        1 04B      0.059033
     20 H36         3.4860   -1.6340    4.2580 hc        1 04B      0.059033
     21 H37         2.7910    0.0370    4.3650 hc        1 04B      0.059033
     22 H38         1.1660   -0.7970   -0.3740 hn        1 04B      0.467300
     23 H39         3.7350    0.0260    1.9900 h1        1 04B      0.089700
     24 H40         3.7980   -2.0680    0.9180 ho        1 04B      0.453500
     25 H45         1.8580    1.4650    1.4110 hx        1 04B      0.116700
     26 H46         1.6990    2.1180   -0.8030 hx        1 04B      0.106200
     27 H47         2.1860   -2.4990   -1.2810 ha        1 04B      0.003500
     28 H48         2.1560   -0.9740   -2.9160 ha        1 04B      0.140500
     29 H49         1.1270   -1.2200   -5.1730 ha        1 04B      0.158000
     30 H50        -0.4860    0.4960   -6.0070 ha        1 04B      0.159000
     31 H51        -1.0740    2.4590   -4.5780 ha        1 04B      0.158000
     32 H2         -0.0530    2.7120   -2.3220 ha        1 04B      0.140500
     33 H1         -0.7930   -1.2990    2.6920 ho        1 04B      0.453500
     34 H32         1.7470   -2.2610    2.5450 hc        1 04B      0.098700
     35 H223        2.8300    0.7160   -1.1730 hx        1 04B      0.106200
@<TRIPOS>BOND
     1    1    2 1   
     2    1   10 1   
     3    1   17 1   
     4    1   22 1   
     5    2    3 1   
     6    2    8 1   
     7    2   25 1   
     8    3    4 1   
     9    3    5 1   
    10    3    6 1   
    11    5   33 1   
    12    6    7 1   
    13    6    8 1   
    14    6   34 1   
    15    7   19 1   
    16    7   20 1   
    17    7   21 1   
    18    8    9 1   
    19    8   23 1   
    20    9   24 1   
    21   10   11 1   
    22   10   26 1   
    23   10   35 1   
    24   11   12 ar  
    25   11   16 ar  
    26   12   13 ar  
    27   12   28 1   
    28   13   14 ar  
    29   13   29 1   
    30   14   15 ar  
    31   14   30 1   
    32   15   16 ar  
    33   15   31 1   
    34   16   32 1   
    35   18   27 1   
@<TRIPOS>SUBSTRUCTURE
     1 04B         1 TEMP              0 ****  ****    0 ROOT
