@<TRIPOS>MOLECULE
04C
   86    88     1     0     0
SMALL
bcc


@<TRIPOS>ATOM
      1 C29        -4.0910   -2.1670   -1.0760 c         1 04C      0.658100
      2 O37        -3.9700   -3.0790   -0.2340 o         1 04C     -0.618100
      3 C30        -5.4880   -1.6350   -1.4210 c3        1 04C      0.096800
      4 N31        -5.5600   -0.1870   -1.5020 n3        1 04C     -0.731600
      5 O34        -6.7590    2.3410   -0.8540 os        1 04C     -0.414600
      6 C36        -5.3500    0.4540   -0.2080 c3        1 04C      0.129300
      7 C32        -6.7920    0.2610   -2.1430 c3        1 04C      0.129300
      8 C35        -5.5110    1.9770   -0.2740 c3        1 04C      0.123400
      9 C33        -6.9230    1.7890   -2.1540 c3        1 04C      0.123400
     10 N28        -3.0150   -1.6760   -1.7840 n         1 04C     -0.545900
     11 C27        -1.6640   -2.0940   -1.5020 c3        1 04C      0.039700
     12 C26        -0.8480   -0.9290   -0.8810 c         1 04C      0.640100
     13 O39        -0.8250    0.1950   -1.4230 o         1 04C     -0.615100
     14 C38        -0.8990   -2.5360   -2.7510 c3        1 04C     -0.106100
     15 N25        -0.1430   -1.1990    0.2690 n         1 04C     -0.554900
     16 C24         0.6990   -0.2280    0.9150 c3        1 04C      0.048700
     17 C40         0.3780   -0.0150    2.4090 c3        1 04C     -0.043100
     18 C41        -0.9400    0.6400    2.6070 ca        1 04C     -0.117300
     19 C48        -1.0890    2.0110    2.3470 ca        1 04C     -0.087500
     20 C47        -2.3140    2.6400    2.5240 ca        1 04C     -0.178000
     21 C44        -3.4150    1.8840    2.9700 ca        1 04C      0.119100
     22 O45        -4.5950    2.5950    3.0900 os        1 04C     -0.330900
     23 C46        -5.7320    1.8570    3.5200 c3        1 04C      0.110700
     24 C43        -3.2780    0.5200    3.2490 ca        1 04C     -0.178000
     25 C42        -2.0390   -0.0910    3.0650 ca        1 04C     -0.087500
     26 C23         2.1780   -0.6960    0.8620 c         1 04C      0.647100
     27 O49         2.5230   -1.7650    1.4100 o         1 04C     -0.635100
     28 N22         3.0790    0.1080    0.2110 n         1 04C     -0.550900
     29 C8          4.4830   -0.2300    0.1270 c3        1 04C      0.076700
     30 C9          5.2730    0.2020    1.3980 c3        1 04C      0.130100
     31 O21         4.5980   -0.1720    2.5840 oh        1 04C     -0.603800
     32 C10         6.7100   -0.3370    1.3970 c3        1 04C     -0.096700
     33 C11         6.7890   -1.8380    1.2280 c3        1 04C     -0.094100
     34 C12         7.3800    0.0820    2.7070 c3        1 04C      0.136400
     35 O13         8.7760   -0.1210    2.5520 oh        1 04C     -0.607800
     36 C7          5.1510    0.3910   -1.1130 c3        1 04C     -0.048100
     37 C6          4.4220    0.0800   -2.3720 ca        1 04C     -0.086300
     38 C5          4.6210   -1.1480   -3.0140 ca        1 04C     -0.126500
     39 C4          3.9510   -1.4370   -4.2010 ca        1 04C     -0.123000
     40 C3          3.0750   -0.5040   -4.7550 ca        1 04C     -0.129000
     41 C2          2.8710    0.7210   -4.1190 ca        1 04C     -0.123000
     42 C1          3.5420    1.0120   -2.9330 ca        1 04C     -0.126500
     43 H1         -5.7700   -2.0670   -2.4230 h1        1 04C      0.067200
     44 H2         -6.1910   -2.0620   -0.6450 h1        1 04C      0.067200
     45 H4         -6.0630    0.0540    0.5720 h1        1 04C      0.044450
     46 H5         -4.3020    0.2160    0.1250 h1        1 04C      0.044450
     47 H10        -6.7790   -0.1040   -3.2080 h1        1 04C      0.044450
     48 H11        -7.7030   -0.1710   -1.6360 h1        1 04C      0.044450
     49 H6         -4.6740    2.4410   -0.8580 h1        1 04C      0.060200
     50 H7         -5.5430    2.4040    0.7650 h1        1 04C      0.060200
     51 H8         -7.9620    2.0820   -2.4560 h1        1 04C      0.060200
     52 H9         -6.1730    2.2450   -2.8540 h1        1 04C      0.060200
     53 H12        -3.1180   -0.8480   -2.3270 hn        1 04C      0.339500
     54 H13        -1.7170   -2.9690   -0.7840 h1        1 04C      0.097700
     55 H14        -0.7980   -1.6910   -3.4750 hc        1 04C      0.053367
     56 H15         0.1200   -2.8750   -2.4500 hc        1 04C      0.053367
     57 H16        -1.4280   -3.3820   -3.2520 hc        1 04C      0.053367
     58 H17        -0.1740   -2.1050    0.6760 hn        1 04C      0.329500
     59 H18         0.5660    0.7610    0.3790 h1        1 04C      0.097700
     60 H19         0.4190   -1.0010    2.9450 hc        1 04C      0.070200
     61 H20         1.1910    0.6310    2.8380 hc        1 04C      0.070200
     62 H21        -0.2250    2.5940    1.9950 ha        1 04C      0.135000
     63 H27        -1.9310   -1.1660    3.2810 ha        1 04C      0.135000
     64 H22        -2.4400    3.7120    2.3200 ha        1 04C      0.145000
     65 H26        -4.1290   -0.0750    3.6080 ha        1 04C      0.145000
     66 H23        -5.9710    1.0440    2.7890 h1        1 04C      0.046033
     67 H24        -5.5670    1.4320    4.5400 h1        1 04C      0.046033
     68 H25        -6.5480    2.6230    3.5370 h1        1 04C      0.046033
     69 H30         5.3090    1.3290    1.4520 h1        1 04C      0.067700
     70 H28         2.7700    0.9200   -0.2680 hn        1 04C      0.321500
     71 H29         4.5500   -1.3590    0.0520 h1        1 04C      0.080700
     72 H33         6.0780   -2.3540    1.9180 hc        1 04C      0.042033
     73 H34         6.5460   -2.1310    0.1780 hc        1 04C      0.042033
     74 H35         7.8260   -2.1850    1.4600 hc        1 04C      0.042033
     75 H36         7.1780    1.1660    2.9180 h1        1 04C      0.032200
     76 H37         6.9830   -0.5350    3.5570 h1        1 04C      0.032200
     77 H38         9.1750    0.0590    3.4110 ho        1 04C      0.401000
     78 H39         5.2330    1.5020   -0.9790 hc        1 04C      0.061200
     79 H40         6.1930   -0.0220   -1.1790 hc        1 04C      0.061200
     80 H41         5.3110   -1.8860   -2.5770 ha        1 04C      0.130000
     81 H42         4.1140   -2.4030   -4.7010 ha        1 04C      0.134500
     82 H43         2.5460   -0.7320   -5.6920 ha        1 04C      0.133000
     83 H44         2.1780    1.4570   -4.5510 ha        1 04C      0.134500
     84 H45         3.3820    1.9820   -2.4380 ha        1 04C      0.130000
     85 H31         4.3630   -1.1080    2.5100 ho        1 04C      0.424000
     86 H32         7.2760    0.1530    0.5560 hc        1 04C      0.066700
@<TRIPOS>BOND
     1    1    2 2   
     2    1    3 1   
     3    1   10 1   
     4    3    4 1   
     5    3   43 1   
     6    3   44 1   
     7    4    6 1   
     8    4    7 1   
     9    5    8 1   
    10    5    9 1   
    11    6    8 1   
    12    6   45 1   
    13    6   46 1   
    14    7    9 1   
    15    7   47 1   
    16    7   48 1   
    17    8   49 1   
    18    8   50 1   
    19    9   51 1   
    20    9   52 1   
    21   10   11 1   
    22   10   53 1   
    23   11   12 1   
    24   11   14 1   
    25   11   54 1   
    26   12   13 2   
    27   12   15 1   
    28   14   55 1   
    29   14   56 1   
    30   14   57 1   
    31   15   16 1   
    32   15   58 1   
    33   16   17 1   
    34   16   26 1   
    35   16   59 1   
    36   17   18 1   
    37   17   60 1   
    38   17   61 1   
    39   18   19 ar  
    40   18   25 ar  
    41   19   20 ar  
    42   19   62 1   
    43   20   21 ar  
    44   20   64 1   
    45   21   22 1   
    46   21   24 ar  
    47   22   23 1   
    48   23   66 1   
    49   23   67 1   
    50   23   68 1   
    51   24   25 ar  
    52   24   65 1   
    53   25   63 1   
    54   26   27 2   
    55   26   28 1   
    56   28   29 1   
    57   28   70 1   
    58   29   30 1   
    59   29   36 1   
    60   29   71 1   
    61   30   31 1   
    62   30   32 1   
    63   30   69 1   
    64   31   85 1   
    65   32   33 1   
    66   32   34 1   
    67   32   86 1   
    68   33   72 1   
    69   33   73 1   
    70   33   74 1   
    71   34   35 1   
    72   34   75 1   
    73   34   76 1   
    74   35   77 1   
    75   36   37 1   
    76   36   78 1   
    77   36   79 1   
    78   37   38 ar  
    79   37   42 ar  
    80   38   39 ar  
    81   38   80 1   
    82   39   40 ar  
    83   39   81 1   
    84   40   41 ar  
    85   40   82 1   
    86   41   42 ar  
    87   41   83 1   
    88   42   84 1   
@<TRIPOS>SUBSTRUCTURE
     1 04C         1 TEMP              0 ****  ****    0 ROOT
