@<TRIPOS>MOLECULE
04C
   86    81     1     0     0
SMALL
bcc


@<TRIPOS>ATOM
      1 C29        -3.6600    4.0950   -0.2610 c1        1 04C      0.536500
      2 O37        -2.9260    5.0660   -0.3940 o         1 04C     -0.631500
      3 C30        -5.1300    4.1580   -0.7670 c2        1 04C      0.224100
      4 N31        -5.1910    5.0020   -1.9660 nh        1 04C     -0.279100
      5 O34        -6.2130    5.4850   -4.6000 os        1 04C     -0.411600
      6 C36        -6.5040    5.4940   -2.1390 c3        1 04C     -0.047700
      7 C32        -4.7300    4.2390   -3.0980 c3        1 04C     -0.047700
      8 C35        -6.6750    6.2500   -3.4680 c3        1 04C      0.126400
      9 C33        -4.8980    4.9920   -4.4230 c3        1 04C      0.126400
     10 N28        -3.1670    2.8880    0.4030 n3        1 04C     -0.393400
     11 C27        -1.7660    2.7540    0.7110 c3        1 04C     -0.017000
     12 C26        -1.4800    1.3350    1.1240 c         1 04C      0.645100
     13 O39        -2.1060    0.8220    2.1030 o         1 04C     -0.598100
     14 C38        -1.4030    3.6840    1.8420 c3        1 04C     -0.101100
     15 N25        -0.4350    0.5470    0.4130 n         1 04C     -0.572900
     16 C24        -0.4150   -0.8810    0.5340 c3        1 04C      0.038700
     17 C40        -1.2400   -1.5070   -0.6110 c3        1 04C     -0.078300
     18 C41        -1.9900   -2.7430   -0.0860 c1        1 04C     -0.091100
     19 C48        -2.0260   -3.9190   -0.8520 c1        1 04C     -0.077000
     20 C47        -2.8120   -4.9900   -0.4500 c1        1 04C     -0.077000
     21 C44        -3.5710   -4.8990    0.7220 c1        1 04C      0.111600
     22 O45        -4.3570   -6.0330    1.1650 os        1 04C     -0.310400
     23 C46        -3.5710   -7.1210    1.6460 c3        1 04C      0.113700
     24 C43        -3.5360   -3.7280    1.4870 c1        1 04C     -0.093500
     25 C42        -2.7400   -2.6500    1.0760 c1        1 04C     -0.028500
     26 C23         0.9980   -1.3740    0.4620 c         1 04C      0.654100
     27 O49         1.2220   -2.5340    0.5220 o         1 04C     -0.614100
     28 N22         2.1030   -0.4220    0.2580 n         1 04C     -0.562900
     29 C8          3.4920   -0.8740    0.4100 c3        1 04C      0.109700
     30 C9          4.4080    0.3200    0.5510 c3        1 04C      0.126100
     31 O21         3.6750    1.4900    0.3940 oh        1 04C     -0.608800
     32 C10         5.0520    0.2970    1.9320 c3        1 04C     -0.138700
     33 C11         5.0850    1.6840    2.4980 c3        1 04C     -0.096100
     34 C12         6.4850   -0.2400    1.8150 c3        1 04C      0.134400
     35 O13         7.0600   -0.3310    3.1060 oh        1 04C     -0.605800
     36 C7          3.8940   -1.6770   -0.7940 c3        1 04C     -0.089300
     37 C6          4.9580   -2.7390   -0.3740 c1        1 04C     -0.052100
     38 C5          4.5870   -3.8060    0.4510 c1        1 04C     -0.077000
     39 C4          5.4990   -4.8330    0.7190 c1        1 04C     -0.077000
     40 C3          6.7630   -4.7940    0.1700 c1        1 04C     -0.077000
     41 C2          7.1350   -3.7390   -0.6480 c1        1 04C     -0.077000
     42 C1          6.2220   -2.7030   -0.9210 c1        1 04C     -0.072500
     43 H1         -5.7040    4.5360   -0.0650 h4        1 04C     -0.019700
     44 H2         -5.4430    3.2360   -0.9930 h4        1 04C     -0.019700
     45 H4         -6.7180    6.1130   -1.3880 h1        1 04C      0.046450
     46 H5         -7.1430    4.7290   -2.1180 h1        1 04C      0.046450
     47 H10        -3.8170    4.0340   -2.9750 h1        1 04C      0.046450
     48 H11        -5.2510    3.3820   -3.1450 h1        1 04C      0.046450
     49 H6         -7.6130    6.4590   -3.5910 h1        1 04C      0.057200
     50 H7         -6.1870    7.0540   -3.4250 h1        1 04C      0.057200
     51 H8         -4.6860    4.3920   -5.1570 h1        1 04C      0.057200
     52 H9         -4.2420    5.7860   -4.4400 h1        1 04C      0.057200
     53 H12        -3.7200    2.2050    0.5520 hn        1 04C      0.299700
     54 H13        -1.2320    2.9790   -0.0810 h1        1 04C      0.085700
     55 H14        -0.9070    4.4120    1.5030 hc        1 04C      0.057700
     56 H15        -0.8690    3.2070    2.4910 hc        1 04C      0.057700
     57 H16        -2.2270    4.0180    2.2740 hc        1 04C      0.057700
     58 H17         0.1060    0.9420   -0.1420 hn        1 04C      0.338500
     59 H18        -0.7920   -1.1300    1.3670 h1        1 04C      0.125700
     60 H19        -1.8740   -0.8620   -0.9410 hc        1 04C      0.055200
     61 H20        -0.6110   -1.7870   -1.3700 hc        1 04C      0.055200
     62 H21        -1.5180   -3.9820   -1.6400 ha        1 04C      0.077000
     63 H27        -2.7140   -1.8210    1.6140 ha        1 04C      0.084500
     64 H22        -2.8340   -5.8270   -0.9980 ha        1 04C      0.077000
     65 H26        -4.0710   -3.6610    2.3160 ha        1 04C      0.093500
     66 H23        -4.0420   -7.5740    2.3260 h1        1 04C      0.044367
     67 H24        -2.7140   -6.7740    2.0110 h1        1 04C      0.044367
     68 H25        -3.3790   -7.7560    0.8900 h1        1 04C      0.044367
     69 H30         5.1000    0.2790   -0.1280 h1        1 04C      0.048700
     70 H28         1.9260    0.4420    0.1010 hn        1 04C      0.325500
     71 H29         3.5620   -1.4170    1.1870 h1        1 04C      0.089700
     72 H33         5.5190    2.3120    1.8320 hc        1 04C      0.038367
     73 H34         4.1440    1.9930    2.6880 hc        1 04C      0.038367
     74 H35         5.6190    1.6850    3.3590 hc        1 04C      0.038367
     75 H36         7.0050    0.3540    1.2750 h1        1 04C      0.044700
     76 H37         6.4690   -1.1020    1.4120 h1        1 04C      0.044700
     77 H38         7.8460   -0.7880    3.0570 ho        1 04C      0.422000
     78 H39         3.1160   -2.1260   -1.1560 hc        1 04C      0.062700
     79 H40         4.2880   -1.0600   -1.4980 hc        1 04C      0.062700
     80 H41         3.7190   -3.8330    0.8280 ha        1 04C      0.077000
     81 H42         5.2310   -5.6060    1.3170 ha        1 04C      0.077000
     82 H43         7.4300   -5.5480    0.3690 ha        1 04C      0.077000
     83 H44         8.0170   -3.7150   -1.0290 ha        1 04C      0.077000
     84 H45         6.4690   -2.0060   -1.4600 ha        1 04C      0.074500
     85 H31         4.0890    2.0210   -0.1870 ho        1 04C      0.408000
     86 H32         4.5570   -0.2580    2.4960 hc        1 04C      0.078700
@<TRIPOS>BOND
     1    1    2 2   
     2    1   10 2   
     3    3    4 2   
     4    3   43 1   
     5    3   44 1   
     6    4    6 1   
     7    4    7 1   
     8    5    8 1   
     9    5    9 1   
    10    6    8 1   
    11    6   45 1   
    12    6   46 1   
    13    7    9 1   
    14    7   47 1   
    15    7   48 1   
    16    8   49 1   
    17    8   50 1   
    18    9   51 1   
    19    9   52 1   
    20   10   11 1   
    21   10   53 1   
    22   11   12 1   
    23   11   14 1   
    24   11   54 1   
    25   12   13 2   
    26   12   15 1   
    27   14   55 1   
    28   14   56 1   
    29   14   57 1   
    30   15   16 1   
    31   15   58 1   
    32   16   17 1   
    33   16   26 1   
    34   16   59 1   
    35   17   18 1   
    36   17   60 1   
    37   17   61 1   
    38   18   25 3   
    39   19   20 3   
    40   19   62 1   
    41   20   64 1   
    42   21   22 1   
    43   21   24 3   
    44   22   23 1   
    45   23   66 1   
    46   23   67 1   
    47   23   68 1   
    48   24   65 1   
    49   25   63 1   
    50   26   27 2   
    51   26   28 1   
    52   28   29 1   
    53   28   70 1   
    54   29   30 1   
    55   29   36 1   
    56   29   71 1   
    57   30   31 1   
    58   30   32 1   
    59   30   69 1   
    60   31   85 1   
    61   32   33 1   
    62   32   34 1   
    63   32   86 1   
    64   33   72 1   
    65   33   73 1   
    66   33   74 1   
    67   34   35 1   
    68   34   75 1   
    69   34   76 1   
    70   35   77 1   
    71   36   37 1   
    72   36   78 1   
    73   36   79 1   
    74   37   42 3   
    75   38   39 3   
    76   38   80 1   
    77   39   81 1   
    78   40   41 3   
    79   40   82 1   
    80   41   83 1   
    81   42   84 1   
@<TRIPOS>SUBSTRUCTURE
     1 04C         1 TEMP              0 ****  ****    0 ROOT
