@<TRIPOS>MOLECULE
04D
   33    32     1     0     0
SMALL
bcc


@<TRIPOS>ATOM
      1 N5         -1.6450   -0.0960   -0.2830 n3        1 04D     -0.898800
      2 O6          1.6380   -0.3380    1.2050 oh        1 04D     -0.599800
      3 O7         -0.2020   -2.9380    3.4580 oh        1 04D     -0.602800
      4 C20        -0.2220   -0.0680   -0.2610 c3        1 04D      0.134500
      5 C21         0.2600   -0.0530    1.1700 c3        1 04D      0.143100
      6 C23         0.2770    0.9300   -2.4650 c3        1 04D     -0.070700
      7 C24        -0.4820    2.0380   -3.1610 c3        1 04D     -0.090600
      8 C25         1.7050    0.9060   -2.9630 c3        1 04D     -0.090600
      9 C26         0.2680    1.1730   -0.9710 c3        1 04D     -0.122400
     10 C27         0.4960   -2.0160    2.6500 c3        1 04D      0.136400
     11 C28        -1.3510   -0.4140    3.0080 c3        1 04D     -0.085100
     12 C29        -0.4920   -1.0960    1.9660 c3        1 04D     -0.088700
     13 HN5        -1.9280   -0.7070   -0.9040 hn        1 04D      0.349300
     14 HO6         1.8390   -0.9070    0.5520 ho        1 04D      0.398000
     15 HO7         0.3280   -3.6270    3.6470 ho        1 04D      0.399000
     16 H20         0.1260   -0.8610   -0.7140 h1        1 04D      0.054700
     17 H21         0.1000    0.8300    1.5580 h1        1 04D      0.074700
     18 H23        -0.1490    0.0730   -2.6570 hc        1 04D      0.045700
     19 H24        -1.4390    1.9480   -2.9700 hc        1 04D      0.034367
     20 H24A       -0.3340    1.9780   -4.1280 hc        1 04D      0.034367
     21 H24B       -0.1640    2.9060   -2.8350 hc        1 04D      0.034367
     22 H25         1.7090    0.8150   -3.9390 hc        1 04D      0.034367
     23 H25A        2.1780    0.1470   -2.5620 hc        1 04D      0.034367
     24 H25B        2.1530    1.7410   -2.7110 hc        1 04D      0.034367
     25 H26         1.1740    1.3850   -0.6700 hc        1 04D      0.056200
     26 H26A       -0.3270    1.9220   -0.7670 hc        1 04D      0.056200
     27 H27         1.1020   -1.4870    3.2090 h1        1 04D      0.023700
     28 H27A        1.0130   -2.5000    1.9740 h1        1 04D      0.023700
     29 H28        -1.9530   -1.0710    3.4170 hc        1 04D      0.040700
     30 H28A       -1.8790    0.2940    2.5840 hc        1 04D      0.040700
     31 H28B       -0.7770   -0.0230    3.7000 hc        1 04D      0.040700
     32 H29        -1.0590   -1.6170    1.3670 hc        1 04D      0.078700
     33 H2         -1.9630    0.7340   -0.5040 hn        1 04D      0.349300
@<TRIPOS>BOND
     1    1    4 1   
     2    1   13 1   
     3    1   33 1   
     4    2    5 1   
     5    2   14 1   
     6    3   10 1   
     7    3   15 1   
     8    4    5 1   
     9    4    9 1   
    10    4   16 1   
    11    5   12 1   
    12    5   17 1   
    13    6    7 1   
    14    6    8 1   
    15    6    9 1   
    16    6   18 1   
    17    7   19 1   
    18    7   20 1   
    19    7   21 1   
    20    8   22 1   
    21    8   23 1   
    22    8   24 1   
    23    9   25 1   
    24    9   26 1   
    25   10   12 1   
    26   10   27 1   
    27   10   28 1   
    28   11   12 1   
    29   11   29 1   
    30   11   30 1   
    31   11   31 1   
    32   12   32 1   
@<TRIPOS>SUBSTRUCTURE
     1 04D         1 TEMP              0 ****  ****    0 ROOT
