@<TRIPOS>MOLECULE
04D
   34    32     1     0     0
SMALL
bcc


@<TRIPOS>ATOM
      1 N5          0.1310   -0.1970    0.3140 nz        1 04D     -0.189000
      2 O6          3.2720    0.1810    1.3510 oh        1 04D     -0.120000
      3 O7          1.9560   -3.9760    3.3160 oh        1 04D     -0.294000
      4 C20         0.4020    0.0800   -1.1110 c3        1 04D     -0.129000
      5 C21         2.3670   -0.6740    1.6810 c1        1 04D      0.006000
      6 C24         2.0500    2.9470   -3.0170 c3        1 04D     -0.215000
      7 C25         2.5810    0.5390   -3.3200 c3        1 04D     -0.215000
      8 C26         1.2790    1.3110   -1.3160 c3        1 04D     -0.177000
      9 C27         1.9010   -3.0160    2.2920 c3        1 04D      0.004000
     10 C28         1.9840   -1.2050    4.0310 c3        1 04D     -0.206000
     11 C29         2.5780   -1.7040    2.7200 c3        1 04D     -0.250000
     12 HN5        -0.3090    0.6110    0.7450 hn        1 04D      0.252333
     13 HO6         4.1320    0.1030    1.8260 ho        1 04D      0.237000
     14 HO7         2.8670   -4.2950    3.3810 ho        1 04D      0.215000
     15 H20        -0.5770    0.2230   -1.6540 hx        1 04D      0.127500
     16 H21         0.9120   -0.8280   -1.5430 hx        1 04D      0.127500
     17 H23         0.6010    1.3930   -3.3710 hc        1 04D      0.097000
     18 H24         2.2660    3.1120   -4.1000 hc        1 04D      0.084333
     19 H24A        2.9850    3.1350   -2.4370 hc        1 04D      0.084333
     20 H24B        1.2760    3.6850   -2.6950 hc        1 04D      0.084333
     21 H25         2.7780    0.7330   -4.4030 hc        1 04D      0.084333
     22 H25A        3.5460    0.6350   -2.7670 hc        1 04D      0.084333
     23 H25B        2.2120   -0.5100   -3.2160 hc        1 04D      0.084333
     24 H26         2.2480    1.1920   -0.7610 hc        1 04D      0.100000
     25 H26A        0.7600    2.2170   -0.9040 hc        1 04D      0.100000
     26 H27         2.3800   -3.3980    1.3510 h1        1 04D      0.092500
     27 H27A        0.8040   -2.8450    2.1200 h1        1 04D      0.092500
     28 H28         3.6770   -1.9090    2.8860 hc        1 04D      0.117000
     29 H28A        0.9160   -0.9100    3.8980 hc        1 04D      0.106333
     30 H28B        2.5620   -0.3330    4.4190 hc        1 04D      0.106333
     31 H29         2.0260   -2.0350    4.7820 hc        1 04D      0.106333
     32 H2         -0.4960   -0.9900    0.3970 hn        1 04D      0.252333
     33 C23         1.5610    1.5290   -2.7970 c3        1 04D     -0.103000
     34 H53         1.1270   -0.4260    0.8940 hn        1 04D      0.252333
@<TRIPOS>BOND
     1    1    4 1   
     2    1   12 1   
     3    1   32 1   
     4    1   34 1   
     5    2    5 1   
     6    2   13 1   
     7    3    9 1   
     8    3   14 1   
     9    4    8 1   
    10    4   15 1   
    11    4   16 1   
    12    5   11 1   
    13    6   18 1   
    14    6   19 1   
    15    6   20 1   
    16    6   33 1   
    17    7   21 1   
    18    7   22 1   
    19    7   23 1   
    20    7   33 1   
    21    8   24 1   
    22    8   25 1   
    23    8   33 1   
    24    9   11 1   
    25    9   26 1   
    26    9   27 1   
    27   10   11 1   
    28   10   29 1   
    29   10   30 1   
    30   10   31 1   
    31   11   28 1   
    32   17   33 1   
@<TRIPOS>SUBSTRUCTURE
     1 04D         1 TEMP              0 ****  ****    0 ROOT
