@<TRIPOS>MOLECULE
04D
   34    31     1     0     0
SMALL
bcc


@<TRIPOS>ATOM
      1 N5         -0.0130    1.3820    0.8380 n3        1 04D     -0.346000
      2 O6          2.8780   -0.8430    1.0390 oh        1 04D     -0.364000
      3 O7          2.4260   -3.2750    0.8950 oh        1 04D     -0.097000
      4 C20         1.2200    0.8170    0.6250 c2        1 04D      0.102000
      5 C21         1.7220   -0.1710    1.4420 c2        1 04D     -0.257000
      6 C24         2.1240    1.8380   -2.9860 c3        1 04D     -0.214500
      7 C25         0.8170   -0.1480   -2.2580 c3        1 04D     -0.214500
      8 C26         2.0110    1.2780   -0.5730 c3        1 04D     -0.155000
      9 C27         2.0770   -2.8810   -0.2760 c2        1 04D      0.271000
     10 C28         2.2440   -1.0110    3.7350 c3        1 04D     -0.220000
     11 C29         1.1730   -0.5970    2.7540 c3        1 04D     -0.119000
     12 HN5        -0.2340    2.2100    0.3370 hn        1 04D      0.227500
     13 HO6         3.6290   -0.4170    1.4810 ho        1 04D      0.240000
     14 HO7         2.2350   -2.6220    1.6350 ho        1 04D      0.346000
     15 H20         3.8290   -1.4310   -1.0800 ha        1 04D      0.010000
     16 H21         4.1410   -1.9630   -0.7930 ha        1 04D      0.010000
     17 H23         0.3280    1.8980   -1.8050 hc        1 04D      0.102000
     18 H24         3.0540    1.2350   -3.1130 hc        1 04D      0.079333
     19 H24A        2.4130    2.8880   -2.7360 hc        1 04D      0.079333
     20 H24B        1.5700    1.8450   -3.9560 hc        1 04D      0.079333
     21 H25         1.7060   -0.8180   -2.3600 hc        1 04D      0.079333
     22 H25A        0.2730   -0.1390   -3.2340 hc        1 04D      0.079333
     23 H25B        0.1330   -0.5620   -1.4770 hc        1 04D      0.079333
     24 H26         2.9320    0.6420   -0.6750 hc        1 04D      0.111500
     25 H26A        2.3570    2.3300   -0.3710 hc        1 04D      0.111500
     26 H27         0.4520   -1.4480    2.6010 hc        1 04D      0.087000
     27 H27A        2.3140   -3.6060   -1.0900 h4        1 04D      0.214500
     28 H28         2.8370   -1.8800    3.3570 hc        1 04D      0.084000
     29 H28A        2.9520   -0.1680    3.9230 hc        1 04D      0.084000
     30 H28B        1.7790   -1.3040    4.7080 hc        1 04D      0.084000
     31 H29         0.5840    0.2410    3.2180 hc        1 04D      0.087000
     32 H2          1.5580   -1.9090   -0.4640 h4        1 04D      0.214500
     33 C23         1.2500    1.2550   -1.8920 c3        1 04D     -0.104000
     34 H53        -0.4430    1.2730    1.7270 hn        1 04D      0.227500
@<TRIPOS>BOND
     1    1    4 1   
     2    1   12 1   
     3    1   34 1   
     4    2    5 1   
     5    2   13 1   
     6    3    9 1   
     7    3   14 1   
     8    4    5 1   
     9    4    8 1   
    10    5   11 1   
    11    6   18 1   
    12    6   19 1   
    13    6   20 1   
    14    6   33 1   
    15    7   21 1   
    16    7   22 1   
    17    7   23 1   
    18    7   33 1   
    19    8   24 1   
    20    8   25 1   
    21    8   33 1   
    22    9   27 1   
    23    9   32 1   
    24   10   11 1   
    25   10   28 1   
    26   10   29 1   
    27   10   30 1   
    28   11   26 1   
    29   11   31 1   
    30   15   16 1   
    31   17   33 1   
@<TRIPOS>SUBSTRUCTURE
     1 04D         1 TEMP              0 ****  ****    0 ROOT
