@<TRIPOS>MOLECULE
04D
   33    32     1     0     0
SMALL
bcc


@<TRIPOS>ATOM
      1 N5          0.3560    0.7290    1.6450 n3        1 04D     -0.901800
      2 O6         -0.6000   -1.2820   -1.3200 oh        1 04D     -0.594800
      3 O7         -3.6640    1.4100    0.1040 oh        1 04D     -0.596800
      4 C20         0.4700    0.1320    0.3310 c3        1 04D      0.133500
      5 C21        -0.6860   -0.8650    0.0340 c3        1 04D      0.143100
      6 C24         4.2640   -0.5730   -0.1020 c3        1 04D     -0.091600
      7 C25         2.9850    1.4480   -0.7760 c3        1 04D     -0.091600
      8 C26         1.7910   -0.6060    0.0530 c3        1 04D     -0.118400
      9 C27        -2.4190    0.9360   -0.3880 c3        1 04D      0.133400
     10 C28        -3.1160   -1.4110    0.1030 c3        1 04D     -0.091100
     11 C29        -2.0820   -0.3380    0.3800 c3        1 04D     -0.090700
     12 HN5         0.3630    0.0240    2.3560 hn        1 04D      0.349300
     13 HO6        -0.8030   -0.5180   -1.8720 ho        1 04D      0.396000
     14 HO7        -3.7920    2.2860   -0.2760 ho        1 04D      0.398000
     15 H20         0.3890    0.9780   -0.4170 h1        1 04D      0.054700
     16 H21        -0.5110   -1.8170    0.6150 h1        1 04D      0.073700
     17 H23         3.1080    0.6580    1.2240 hc        1 04D      0.036700
     18 H24         5.1870    0.0410    0.0290 hc        1 04D      0.035200
     19 H24A        4.3100   -1.4390    0.6010 hc        1 04D      0.035200
     20 H24B        4.2460   -0.9660   -1.1470 hc        1 04D      0.035200
     21 H25         2.7680    1.1090   -1.8170 hc        1 04D      0.035200
     22 H25A        2.1940    2.1720   -0.4640 hc        1 04D      0.035200
     23 H25B        3.9670    1.9800   -0.7750 hc        1 04D      0.035200
     24 H26         1.8880   -1.4700    0.7630 hc        1 04D      0.054700
     25 H26A        1.7340   -1.0330   -0.9830 hc        1 04D      0.054700
     26 H27        -2.5140    0.7240   -1.4880 h1        1 04D      0.022200
     27 H27A       -1.6240    1.7120   -0.2270 h1        1 04D      0.022200
     28 H28        -2.9530   -2.2880    0.7730 hc        1 04D      0.042033
     29 H28A       -4.1400   -1.0030    0.2800 hc        1 04D      0.042033
     30 H28B       -3.0410   -1.7570   -0.9570 hc        1 04D      0.042033
     31 H29        -2.1100   -0.0910    1.4780 hc        1 04D      0.083700
     32 H2          1.1210    1.3570    1.8020 hn        1 04D      0.349300
     33 C23         3.0300    0.2660    0.1700 c3        1 04D     -0.067700
@<TRIPOS>BOND
     1    1    4 1   
     2    1   12 1   
     3    1   32 1   
     4    2    5 1   
     5    2   13 1   
     6    3    9 1   
     7    3   14 1   
     8    4    5 1   
     9    4    8 1   
    10    4   15 1   
    11    5   11 1   
    12    5   16 1   
    13    6   18 1   
    14    6   19 1   
    15    6   20 1   
    16    6   33 1   
    17    7   21 1   
    18    7   22 1   
    19    7   23 1   
    20    7   33 1   
    21    8   24 1   
    22    8   25 1   
    23    8   33 1   
    24    9   11 1   
    25    9   26 1   
    26    9   27 1   
    27   10   11 1   
    28   10   28 1   
    29   10   29 1   
    30   10   30 1   
    31   11   31 1   
    32   17   33 1   
@<TRIPOS>SUBSTRUCTURE
     1 04D         1 TEMP              0 ****  ****    0 ROOT
