@<TRIPOS>MOLECULE
04D
   34    30     1     0     0
SMALL
bcc


@<TRIPOS>ATOM
      1 N5          0.3970   -0.4670    0.1730 n4        1 04D     -0.678400
      2 O6          3.2230    0.9620    2.1240 oh        1 04D     -0.454100
      3 O7          0.2250   -3.2080    0.4580 o         1 04D     -0.642100
      4 C20         1.5080    0.4030    0.5320 c2        1 04D     -0.255200
      5 C21         2.2380    0.1440    1.6660 ce        1 04D      0.251100
      6 C24         1.8470    2.5020   -2.6760 c3        1 04D     -0.099600
      7 C25         2.6750    0.1920   -2.2920 c3        1 04D     -0.099600
      8 C26         1.7560    1.5540   -0.3880 c3        1 04D     -0.035200
      9 C27         0.1160   -4.4370    0.3880 c         1 04D      0.624700
     10 C28         2.4100   -1.0340    3.8170 c2        1 04D     -0.068000
     11 C29         2.0540   -1.0250    2.5270 ce        1 04D     -0.244000
     12 HN5         0.7010   -1.1460   -0.5440 hn        1 04D      0.461133
     13 HO6         3.3000    1.7650    1.5820 ho        1 04D      0.451000
     14 HO7        -0.0350   -5.0610    1.2940 h4        1 04D      0.011200
     15 H20         0.8880   -2.8860   -1.8250 ha        1 04D      0.003000
     16 H21         1.1070   -2.3790   -2.2190 ha        1 04D      0.003000
     17 H23         0.6230    0.8380   -2.1100 hc        1 04D      0.025700
     18 H24         1.7550    2.2840   -3.7680 hc        1 04D      0.048700
     19 H24A        2.8580    2.9370   -2.4880 hc        1 04D      0.048700
     20 H24B        1.0750    3.2610   -2.4000 hc        1 04D      0.048700
     21 H25         2.5410   -0.0670   -3.3710 hc        1 04D      0.048700
     22 H25A        3.7120    0.5860   -2.1550 hc        1 04D      0.048700
     23 H25B        2.5730   -0.7420   -1.6890 hc        1 04D      0.048700
     24 H26         2.7920    1.9530   -0.2130 hc        1 04D      0.069700
     25 H26A        1.0320    2.3800   -0.1440 hc        1 04D      0.069700
     26 H27         1.6490   -1.9300    2.0410 ha        1 04D      0.150000
     27 H27A        0.1650   -4.9670   -0.5870 h4        1 04D      0.011200
     28 H28         4.4360    1.6010    3.9890 ha        1 04D      0.003000
     29 H28A        2.8530   -0.1570    4.3160 ha        1 04D      0.147500
     30 H28B        4.6540    2.1120    3.6010 ha        1 04D      0.003000
     31 H29         2.2780   -1.9270    4.4470 ha        1 04D      0.147500
     32 H2          0.0590   -0.9960    0.9870 hn        1 04D      0.461133
     33 C23         1.6530    1.2280   -1.8760 c3        1 04D     -0.070700
     34 H53        -0.3630    0.1050   -0.2050 hn        1 04D      0.461133
@<TRIPOS>BOND
     1    1    4 1   
     2    1   12 1   
     3    1   32 1   
     4    1   34 1   
     5    2    5 1   
     6    2   13 1   
     7    3    9 2   
     8    4    5 2   
     9    4    8 1   
    10    5   11 1   
    11    6   18 1   
    12    6   19 1   
    13    6   20 1   
    14    6   33 1   
    15    7   21 1   
    16    7   22 1   
    17    7   23 1   
    18    7   33 1   
    19    8   24 1   
    20    8   25 1   
    21    8   33 1   
    22    9   14 1   
    23    9   27 1   
    24   10   11 2   
    25   10   29 1   
    26   10   31 1   
    27   11   26 1   
    28   15   16 1   
    29   17   33 1   
    30   28   30 1   
@<TRIPOS>SUBSTRUCTURE
     1 04D         1 TEMP              0 ****  ****    0 ROOT
