@<TRIPOS>MOLECULE
04E
    7     6     1     0     0
SMALL
bcc


@<TRIPOS>ATOM
      1 C1          0.1400   -0.1340   -0.1860 c         1 04E      0.917600
      2 O1          1.0040   -1.0120   -0.4630 o         1 04E     -0.828300
      3 CH3        -0.6000   -0.2610    1.1550 c3        1 04E     -0.009500
      4 H1         -0.6400   -1.3280    1.4590 h1        1 04E      0.049700
      5 H2         -1.6230    0.1570    1.0580 h1        1 04E      0.049700
      6 I1          0.2880    0.7540    2.7360 i         1 04E     -0.351900
      7 OXT        -0.2010    0.8070   -0.9550 o         1 04E     -0.828300
@<TRIPOS>BOND
     1    1    2 1   
     2    1    3 1   
     3    1    7 1   
     4    3    4 1   
     5    3    5 1   
     6    3    6 1   
@<TRIPOS>SUBSTRUCTURE
     1 04E         1 TEMP              0 ****  ****    0 ROOT
