@<TRIPOS>MOLECULE
04E
    7     5     1     0     0
SMALL
bcc


@<TRIPOS>ATOM
      1 C1          0.5710   -0.0000   -0.6840 c1        1 04E      0.339000
      2 O1          1.8300   -0.0000   -0.6840 o         1 04E     -0.560500
      3 CH3        -0.1860   -0.0000    0.6260 c2        1 04E     -0.337000
      4 H1          0.0500   -0.7970    1.1380 h4        1 04E      0.088000
      5 H2          0.0500    0.7970    1.1380 h4        1 04E      0.088000
      6 I1         -2.2570    0.0000    0.2410 i         1 04E     -0.057000
      7 OXT        -0.0590   -0.0000   -1.7740 o         1 04E     -0.560500
@<TRIPOS>BOND
     1    1    2 1   
     2    1    7 1   
     3    3    4 1   
     4    3    5 1   
     5    3    6 1   
@<TRIPOS>SUBSTRUCTURE
     1 04E         1 TEMP              0 ****  ****    0 ROOT
