@<TRIPOS>MOLECULE
04E
    7     6     1     0     0
SMALL
bcc


@<TRIPOS>ATOM
      1 C1          0.1500   -0.1630   -0.1820 c         1 04E      0.917600
      2 O1          1.1710   -0.8840   -0.3550 o         1 04E     -0.828300
      3 CH3        -0.5810   -0.2750    1.1660 c3        1 04E     -0.009500
      4 H1         -0.4250   -1.2880    1.5910 h1        1 04E      0.049700
      5 H2         -1.6630   -0.0730    1.0200 h1        1 04E      0.049700
      6 I1          0.0630    1.0640    2.6180 i         1 04E     -0.351900
      7 OXT        -0.3460    0.6020   -1.0550 o         1 04E     -0.828300
@<TRIPOS>BOND
     1    1    2 1   
     2    1    3 1   
     3    1    7 1   
     4    3    4 1   
     5    3    5 1   
     6    3    6 1   
@<TRIPOS>SUBSTRUCTURE
     1 04E         1 TEMP              0 ****  ****    0 ROOT
