@<TRIPOS>MOLECULE
04E
    7     6     1     0     0
SMALL
bcc


@<TRIPOS>ATOM
      1 C1          2.0940   -0.0460    0.0350 c         1 04E      0.917600
      2 O1          2.2570   -0.9110   -0.8700 o         1 04E     -0.828300
      3 CH3         0.9210    0.9360   -0.1220 c3        1 04E     -0.009500
      4 H1          1.1820    1.9050    0.3510 h1        1 04E      0.049700
      5 H2          0.6930    1.0740   -1.1990 h1        1 04E      0.049700
      6 I1         -0.8520    0.3200    0.7680 i         1 04E     -0.351900
      7 OXT         2.8560    0.1070    1.0290 o         1 04E     -0.828300
@<TRIPOS>BOND
     1    1    2 1   
     2    1    3 1   
     3    1    7 1   
     4    3    4 1   
     5    3    5 1   
     6    3    6 1   
@<TRIPOS>SUBSTRUCTURE
     1 04E         1 TEMP              0 ****  ****    0 ROOT
