@<TRIPOS>MOLECULE
04F
   29    26     1     0     0
SMALL
bcc


@<TRIPOS>ATOM
      1 N19         1.6620   -0.6910    0.2710 nh        1 04F     -0.848600
      2 C20         2.7260   -0.3860   -0.5590 c2        1 04F      0.064000
      3 C21         1.0970   -1.4210    3.6210 c3        1 04F     -0.114800
      4 O22         1.1900   -0.1130    4.1550 oh        1 04F     -0.592800
      5 C24         3.1030    0.8570   -0.9390 c2        1 04F     -0.313200
      6 C25         4.3490    1.1010   -1.6990 c3        1 04F     -0.078200
      7 C26         3.4350    3.2790   -4.5400 c1        1 04F     -0.181500
      8 C27         3.7500    2.1350   -4.3660 c1        1 04F     -0.057800
      9 N28         4.1080    0.8510   -4.2000 n         1 04F     -0.419700
     10 C29         4.3960    0.2680   -2.9640 c         1 04F      0.676100
     11 O30         4.6930   -0.9410   -2.9630 o         1 04F     -0.600100
     12 H15        -0.3170    0.8090    2.7560 ho        1 04F      0.498000
     13 H16         1.9610   -1.6230    2.9310 h2        1 04F      0.104200
     14 H17         1.1550   -2.1780    4.4480 h2        1 04F      0.104200
     15 H19         2.0550   -0.0250    4.5730 ho        1 04F      0.432000
     16 H20         2.5210    1.7520   -0.6790 ha        1 04F      0.131000
     17 H21         3.3340   -1.2650   -0.8680 h4        1 04F      0.153000
     18 H22         5.2450    0.8050   -1.0860 hc        1 04F      0.072200
     19 H23         4.4430    2.1960   -1.9330 hc        1 04F      0.072200
     20 H24         3.4550    4.4330   -0.5250 ha        1 04F      0.000000
     21 H25         3.5290    3.7620   -0.5810 ha        1 04F      0.000000
     22 H26         3.1550    4.2880   -4.6940 ha        1 04F      0.179500
     23 H27         4.1260    0.2710   -5.0140 hn        1 04F      0.338500
     24 S1         -0.4180   -1.4600    2.7890 s6        1 04F      1.615500
     25 O1         -1.4540   -1.5760    3.6820 o         1 04F     -0.649300
     26 O2         -0.4880    0.0640    2.1800 oh        1 04F     -0.744700
     27 O3         -0.3170   -2.2650    1.6760 o         1 04F     -0.649300
     28 H2          1.2440   -1.5830    0.1060 hn        1 04F      0.404300
     29 H193        0.9850    0.0340    0.3930 hn        1 04F      0.404300
@<TRIPOS>BOND
     1    1    2 1   
     2    1   28 1   
     3    1   29 1   
     4    2    5 2   
     5    2   17 1   
     6    3    4 1   
     7    3   13 1   
     8    3   14 1   
     9    3   24 1   
    10    4   15 1   
    11    5    6 1   
    12    5   16 1   
    13    6   10 1   
    14    6   18 1   
    15    6   19 1   
    16    7    8 3   
    17    7   22 1   
    18    8    9 1   
    19    9   10 1   
    20    9   23 1   
    21   10   11 2   
    22   12   26 1   
    23   20   21 1   
    24   24   25 2   
    25   24   26 1   
    26   24   27 2   
@<TRIPOS>SUBSTRUCTURE
     1 04F         1 TEMP              0 ****  ****    0 ROOT
