@<TRIPOS>MOLECULE
04F
   28    26     1     0     0
SMALL
bcc


@<TRIPOS>ATOM
      1 N19         1.2470   -0.6940   -0.0420 nh        1 04F     -0.816600
      2 C20         2.3700   -0.4650   -0.7840 c2        1 04F      0.140000
      3 C21         1.1300   -0.0270    3.8030 c3        1 04F     -0.057800
      4 O22         0.5500    0.4750    2.6220 oh        1 04F     -0.574800
      5 C24         2.8090    0.7460   -1.2260 c2        1 04F     -0.421200
      6 C25         3.9830    0.8690   -2.1150 c3        1 04F     -0.041500
      7 C26         4.7930    2.1160   -1.8200 c3        1 04F     -0.089100
      8 C27         2.0100    2.7560   -3.6050 c1        1 04F     -0.086500
      9 N28         2.6730    1.7730   -4.1500 n         1 04F     -0.365500
     10 C29         3.5950    0.8310   -3.5880 c         1 04F      0.604100
     11 O30         4.0710   -0.0150   -4.3640 o         1 04F     -0.576100
     12 H15         1.2360   -1.5420    0.5000 hn        1 04F      0.438300
     13 H16         2.1660    0.3760    3.9260 h2        1 04F      0.037200
     14 H17         0.5300    0.2830    4.6940 h2        1 04F      0.037200
     15 H19         0.4830    1.4300    2.7290 ho        1 04F      0.366000
     16 H20         2.3340    1.6800   -0.9030 ha        1 04F      0.125000
     17 H21         2.9050   -1.3880   -1.0970 h4        1 04F      0.125000
     18 H22         4.6590   -0.0280   -1.9700 hc        1 04F      0.073700
     19 H23         5.1600    2.0720   -0.7660 hc        1 04F      0.038700
     20 H24         4.1790    3.0400   -1.9370 hc        1 04F      0.038700
     21 H25         2.1430    2.9380   -2.5200 ha        1 04F      0.005500
     22 H26         5.6730    2.1810   -2.5040 hc        1 04F      0.038700
     23 H27         2.5170    1.6180   -5.1310 hn        1 04F      0.319500
     24 S1          1.1900   -1.8440    3.7460 s6        1 04F      1.441800
     25 O1          1.5190   -2.1830    2.4150 o         1 04F     -0.746200
     26 O2          2.2160   -2.1260    4.6710 o         1 04F     -0.746200
     27 O3         -0.0890   -2.2580    4.1560 o         1 04F     -0.746200
     28 H2          0.8670    0.0830    0.4540 hn        1 04F      0.438300
@<TRIPOS>BOND
     1    1    2 1   
     2    1   12 1   
     3    1   28 1   
     4    2    5 2   
     5    2   17 1   
     6    3    4 1   
     7    3   13 1   
     8    3   14 1   
     9    3   24 1   
    10    4   15 1   
    11    5    6 1   
    12    5   16 1   
    13    6    7 1   
    14    6   10 1   
    15    6   18 1   
    16    7   19 1   
    17    7   20 1   
    18    7   22 1   
    19    8    9 3   
    20    8   21 1   
    21    9   10 1   
    22    9   23 1   
    23   10   11 2   
    24   24   25 1   
    25   24   26 1   
    26   24   27 1   
@<TRIPOS>SUBSTRUCTURE
     1 04F         1 TEMP              0 ****  ****    0 ROOT
