@<TRIPOS>MOLECULE
04F
   29    28     1     0     0
SMALL
bcc


@<TRIPOS>ATOM
      1 N19         0.0680   -0.5060   -0.0870 nz        1 04F     -0.851600
      2 C20         1.5120   -0.2590    0.2570 c3        1 04F      0.166500
      3 C21         1.6520   -0.1150    1.7760 c3        1 04F     -0.055100
      4 O22         0.8140    0.9630    2.1720 oh        1 04F     -0.623800
      5 C24         2.0530    0.9820   -0.4680 c3        1 04F     -0.104400
      6 C25         3.5500    0.8480   -0.7100 c3        1 04F     -0.134700
      7 C26         4.2390    2.1940   -0.7390 c3        1 04F     -0.100100
      8 C27         2.9670    1.6170   -3.6720 c1        1 04F     -0.057500
      9 N28         3.5990    0.5480   -3.2720 ns        1 04F     -0.375500
     10 C29         3.8370    0.0280   -1.9580 c         1 04F      0.580100
     11 O30         4.2880   -1.1220   -1.8710 o         1 04F     -0.520100
     12 H15        -0.4980    0.2050    0.3860 hn        1 04F      0.464800
     13 H16         2.0840   -1.1810   -0.0690 hx        1 04F      0.114700
     14 H17         2.7170    0.1670    1.9870 h2        1 04F      0.085700
     15 H19         0.5270    0.7710    3.0810 ho        1 04F      0.446000
     16 H20         1.8670    1.8810    0.1830 hc        1 04F      0.071200
     17 H21         1.5210    1.1570   -1.4390 hc        1 04F      0.071200
     18 H22         4.0000    0.2580    0.1480 hc        1 04F      0.110700
     19 H23         4.2250    2.6390    0.2870 hc        1 04F      0.055700
     20 H24         3.7340    2.9090   -1.4320 hc        1 04F      0.055700
     21 H25         2.5270    2.2880   -2.9050 ha        1 04F     -0.011500
     22 H26         5.3030    2.0770   -1.0580 hc        1 04F      0.055700
     23 H27         3.9750   -0.0480   -3.9940 hn        1 04F      0.343500
     24 S1          1.3090   -1.7200    2.7550 s6        1 04F      1.436800
     25 O1          0.6600   -1.1880    3.8640 o         1 04F     -0.716867
     26 O2          0.4620   -2.3710    1.8260 o         1 04F     -0.716867
     27 O3          2.5730   -2.2610    2.9050 o         1 04F     -0.716867
     28 H2         -0.1960   -1.4460    0.2840 hn        1 04F      0.464800
     29 H193       -0.0810   -0.4630   -1.0910 hn        1 04F      0.464800
@<TRIPOS>BOND
     1    1    2 1   
     2    1   12 1   
     3    1   28 1   
     4    1   29 1   
     5    2    3 1   
     6    2    5 1   
     7    2   13 1   
     8    3    4 1   
     9    3   14 1   
    10    3   24 1   
    11    4   15 1   
    12    5    6 1   
    13    5   16 1   
    14    5   17 1   
    15    6    7 1   
    16    6   10 1   
    17    6   18 1   
    18    7   19 1   
    19    7   20 1   
    20    7   22 1   
    21    8    9 3   
    22    8   21 1   
    23    9   10 1   
    24    9   23 1   
    25   10   11 2   
    26   24   25 1   
    27   24   26 1   
    28   24   27 1   
@<TRIPOS>SUBSTRUCTURE
     1 04F         1 TEMP              0 ****  ****    0 ROOT
