@<TRIPOS>MOLECULE
04F
   28    28     1     0     0
SMALL
bcc


@<TRIPOS>ATOM
      1 N19        -0.9950   -0.8220    2.0760 n3        1 04F     -0.914800
      2 C20        -0.2580   -0.2600    0.9550 c3        1 04F      0.198500
      3 C21        -0.6260   -0.8750   -0.4100 c3        1 04F     -0.086100
      4 O22        -0.2180   -2.2360   -0.4140 oh        1 04F     -0.606800
      5 C24         1.2570   -0.3780    1.2110 c3        1 04F     -0.063400
      6 C25         2.0850    0.4360    0.2350 c3        1 04F     -0.122700
      7 C26         2.4680   -0.3300   -1.0400 c3        1 04F     -0.098400
      8 C27         4.0100   -0.3860   -1.0670 c3        1 04F      0.083000
      9 N28         4.4770    0.4030    0.0500 n         1 04F     -0.586900
     10 C29         3.4280    0.8210    0.8680 c         1 04F      0.690500
     11 O30         3.6100    1.4410    1.9280 o         1 04F     -0.645500
     12 H15        -1.9560   -0.5290    2.0200 hn        1 04F      0.357800
     13 H16        -0.5220    0.8390    0.9000 h1        1 04F      0.054700
     14 H17         0.0040   -0.3650   -1.1920 h2        1 04F      0.062700
     15 H19        -1.0140   -2.7690   -0.5730 ho        1 04F      0.411000
     16 H20         1.4790   -0.0160    2.2510 hc        1 04F      0.056200
     17 H21         1.5480   -1.4590    1.1490 hc        1 04F      0.056200
     18 H22         1.5420    1.3840   -0.0250 hc        1 04F      0.085700
     19 H23         2.0320   -1.3610   -1.0350 hc        1 04F      0.075700
     20 H24         2.0880    0.2010   -1.9470 hc        1 04F      0.075700
     21 H25         4.3710   -1.4480   -0.9910 h1        1 04F      0.028700
     22 H26         4.4110    0.0470   -2.0240 h1        1 04F      0.028700
     23 H27         5.4070    0.3350    0.3690 hn        1 04F      0.308500
     24 S1         -2.3700   -0.6100   -0.9460 s6        1 04F      1.403800
     25 O1         -2.7960   -1.9300   -1.2220 o         1 04F     -0.736867
     26 O2         -3.0180   -0.0200    0.1580 o         1 04F     -0.736867
     27 O3         -2.2430    0.2250   -2.0700 o         1 04F     -0.736867
     28 H2         -0.9620   -1.8230    2.0240 hn        1 04F      0.357800
@<TRIPOS>BOND
     1    1    2 1   
     2    1   12 1   
     3    1   28 1   
     4    2    3 1   
     5    2    5 1   
     6    2   13 1   
     7    3    4 1   
     8    3   14 1   
     9    3   24 1   
    10    4   15 1   
    11    5    6 1   
    12    5   16 1   
    13    5   17 1   
    14    6    7 1   
    15    6   10 1   
    16    6   18 1   
    17    7    8 1   
    18    7   19 1   
    19    7   20 1   
    20    8    9 1   
    21    8   21 1   
    22    8   22 1   
    23    9   10 1   
    24    9   23 1   
    25   10   11 2   
    26   24   25 1   
    27   24   26 1   
    28   24   27 1   
@<TRIPOS>SUBSTRUCTURE
     1 04F         1 TEMP              0 ****  ****    0 ROOT
