@<TRIPOS>MOLECULE
04F
   28    27     1     0     0
SMALL
bcc


@<TRIPOS>ATOM
      1 N19        -1.8210   -0.6710    0.8650 n3        1 04F     -0.915800
      2 C20        -0.3980   -0.7080    0.8400 c3        1 04F      0.200500
      3 C21         0.1300   -0.7660    2.2540 c3        1 04F     -0.115600
      4 O22        -0.7690   -0.1110    3.1170 oh        1 04F     -0.599800
      5 C24         0.1260    0.5330    0.1570 c3        1 04F     -0.057400
      6 C25        -0.0330    0.3950   -1.3100 c3        1 04F     -0.126700
      7 C26         1.2820    0.7020   -1.9910 c3        1 04F     -0.092400
      8 C27         1.0130    1.7640   -3.0130 c3        1 04F      0.081000
      9 N28        -0.3420    1.9040   -3.1010 n         1 04F     -0.585900
     10 C29        -0.9030    1.4550   -1.8070 c         1 04F      0.689500
     11 O30        -1.9920    1.7530   -1.3600 o         1 04F     -0.639500
     12 H15        -2.1530   -1.3590    0.3600 hn        1 04F      0.360800
     13 H16        -0.1010   -1.5000    0.3490 h1        1 04F      0.049700
     14 H17         1.0010   -0.3250    2.2950 h2        1 04F      0.055700
     15 H19        -0.3230    0.2290    3.8070 ho        1 04F      0.410000
     16 H20        -0.3770    1.3130    0.4680 hc        1 04F      0.053700
     17 H21         1.0730    0.6490    0.3730 hc        1 04F      0.053700
     18 H22        -0.3660   -0.5220   -1.3760 hc        1 04F      0.102700
     19 H23         1.9290    1.0280   -1.3340 hc        1 04F      0.062200
     20 H24         1.6260   -0.1010   -2.4280 hc        1 04F      0.062200
     21 H25         1.3780    1.4930   -3.8800 h1        1 04F      0.029200
     22 H26         1.4180    2.6100   -2.7300 h1        1 04F      0.029200
     23 H27        -0.7930    2.3530   -3.7540 hn        1 04F      0.307500
     24 S1          0.3000   -2.4580    2.7520 s4        1 04F      1.624500
     25 O1          1.0660   -2.5730    4.0480 o         1 04F     -0.666900
     26 O2          1.2010   -3.2190    1.8100 o         1 04F     -0.666900
     27 O3         -1.0580   -3.1110    2.8590 os        1 04F     -1.066000
     28 H2         -2.1130   -0.7570    1.7290 hn        1 04F      0.360800
@<TRIPOS>BOND
     1    1    2 1   
     2    1   12 1   
     3    1   28 1   
     4    2    3 1   
     5    2    5 1   
     6    2   13 1   
     7    3    4 1   
     8    3   14 1   
     9    3   24 1   
    10    4   15 1   
    11    5    6 1   
    12    5   16 1   
    13    5   17 1   
    14    6    7 1   
    15    6   10 1   
    16    6   18 1   
    17    7    8 1   
    18    7   19 1   
    19    7   20 1   
    20    8    9 1   
    21    8   21 1   
    22    8   22 1   
    23    9   10 1   
    24    9   23 1   
    25   10   11 2   
    26   24   25 1   
    27   24   26 1   
@<TRIPOS>SUBSTRUCTURE
     1 04F         1 TEMP              0 ****  ****    0 ROOT
