@<TRIPOS>MOLECULE
04G
   23    25     1     0     0
SMALL
bcc


@<TRIPOS>ATOM
      1 O4         -0.0760   -0.1550    0.1080 oh        1 04G     -0.484100
      2 O5          4.7050   -0.0860    0.0300 os        1 04G     -0.382800
      3 N6          4.7400    0.0300    2.9140 nc        1 04G     -0.571000
      4 O6          9.4120   -0.0130    0.0800 o         1 04G     -0.521100
      5 C21         2.2940   -0.0090    2.8600 ca        1 04G     -0.082300
      6 C22         1.1110   -0.0560    2.1470 ca        1 04G     -0.184000
      7 C23         1.1410   -0.1120    0.7360 ca        1 04G      0.180100
      8 C24         2.3480   -0.1220    0.0320 ca        1 04G     -0.307300
      9 C25         3.5350   -0.0740    0.7720 ca        1 04G      0.300700
     10 C26         3.5420   -0.0170    2.1890 ca        1 04G      0.192300
     11 C27         5.8520    0.0190    2.2240 cd        1 04G      0.351800
     12 C28         5.8980   -0.0400    0.7480 cd        1 04G      0.195400
     13 C29         7.0430   -0.0510    0.0300 cc        1 04G     -0.267200
     14 C30         8.3440   -0.0040    0.7070 c         1 04G      0.564500
     15 C31         8.3070    0.0540    2.1810 cc        1 04G     -0.213200
     16 C32         7.1640    0.0650    2.8840 cd        1 04G     -0.178800
     17 HO4         0.0740   -0.1910   -0.8490 ho        1 04G      0.430000
     18 H21         2.2720    0.0350    3.9620 ha        1 04G      0.161000
     19 H22         0.1380   -0.0500    2.6600 ha        1 04G      0.163000
     20 H24         2.3820   -0.1650   -1.0650 ha        1 04G      0.162000
     21 H29         7.0430   -0.0950   -1.0690 ha        1 04G      0.172000
     22 H31         9.2900    0.0890    2.6800 ha        1 04G      0.160000
     23 H32         7.1650    0.1090    3.9860 ha        1 04G      0.159000
@<TRIPOS>BOND
     1    1    7 1   
     2    1   17 1   
     3    2    9 1   
     4    2   12 1   
     5    3   10 1   
     6    3   11 2   
     7    4   14 2   
     8    5    6 ar  
     9    5   10 ar  
    10    5   18 1   
    11    6    7 ar  
    12    6   19 1   
    13    7    8 ar  
    14    8    9 ar  
    15    8   20 1   
    16    9   10 ar  
    17   11   12 1   
    18   11   16 1   
    19   12   13 2   
    20   13   14 1   
    21   13   21 1   
    22   14   15 1   
    23   15   16 2   
    24   15   22 1   
    25   16   23 1   
@<TRIPOS>SUBSTRUCTURE
     1 04G         1 TEMP              0 ****  ****    0 ROOT
