@<TRIPOS>MOLECULE
04G
   23    19     1     0     0
SMALL
bcc


@<TRIPOS>ATOM
      1 O4         -4.6810    0.1690   -1.3390 oh        1 04G     -0.238000
      2 O5          0.2080    0.1690   -1.3390 os        1 04G     -0.122000
      3 N6          0.1790   -0.1920    1.5140 n1        1 04G     -0.047000
      4 O6          5.1070   -0.1280   -1.2520 o         1 04G     -0.281000
      5 C21        -2.2940   -0.1610    1.4540 c1        1 04G     -0.125500
      6 C22        -3.4920    0.0190    0.7600 c1        1 04G     -0.125500
      7 C23        -3.4740    0.2760   -0.6230 c1        1 04G      0.131000
      8 C24        -2.2570    0.3490   -1.3050 c1        1 04G     -0.180000
      9 C25        -1.0560    0.1690   -0.6130 c1        1 04G      0.099000
     10 C26        -1.0740   -0.0880    0.7740 c1        1 04G     -0.136000
     11 C27         1.4080   -0.1350    0.8260 c1        1 04G     -0.019000
     12 C28         1.4210    0.0470   -0.6370 c2        1 04G      0.066000
     13 C29         2.7540    0.0400   -1.4010 c1        1 04G     -0.247000
     14 C30         4.0500   -0.1610   -0.6540 c1        1 04G      0.287000
     15 C31         4.0350   -0.3630    0.8370 c2        1 04G     -0.193000
     16 C32         2.7250   -0.3640    1.5840 c1        1 04G     -0.070000
     17 HO4        -5.0150    0.9790   -1.4790 ho        1 04G      0.228000
     18 H21        -2.3070   -0.3390    2.4140 ha        1 04G      0.152000
     19 H22        -4.3430   -0.0300    1.2360 ha        1 04G      0.152000
     20 H24        -2.2460    0.5340   -2.2640 ha        1 04G      0.178000
     21 H29         2.7640    0.1750   -2.3670 ha        1 04G      0.173000
     22 H31         4.8750   -0.4680    1.3230 ha        1 04G      0.160000
     23 H32         2.7150   -0.4950    2.5510 ha        1 04G      0.159000
@<TRIPOS>BOND
     1    1    7 1   
     2    1   17 1   
     3    2    9 1   
     4    2   12 1   
     5    3   11 1   
     6    4   14 1   
     7    5    6 1   
     8    5   18 1   
     9    6   19 1   
    10    7    8 1   
    11    8   20 1   
    12    9   10 1   
    13   11   12 1   
    14   12   13 1   
    15   13   21 1   
    16   14   15 1   
    17   15   16 1   
    18   15   22 1   
    19   16   23 1   
@<TRIPOS>SUBSTRUCTURE
     1 04G         1 TEMP              0 ****  ****    0 ROOT
