@<TRIPOS>MOLECULE
04G
   23    25     1     0     0
SMALL
bcc


@<TRIPOS>ATOM
      1 O4          4.6670   -1.2900    0.1220 oh        1 04G     -0.484100
      2 O5         -0.0400   -1.2350    0.0300 os        1 04G     -0.380800
      3 N6         -0.0740    1.6520    0.0290 nc        1 04G     -0.573000
      4 O6         -4.7460   -1.1800   -0.0610 o         1 04G     -0.520100
      5 C21         2.3690    1.5960    0.0760 ca        1 04G     -0.075300
      6 C22         3.5520    0.8770    0.0990 ca        1 04G     -0.241000
      7 C23         3.5240   -0.5320    0.0990 ca        1 04G      0.176100
      8 C24         2.3150   -1.2380    0.0760 ca        1 04G     -0.245300
      9 C25         1.1310   -0.4950    0.0530 ca        1 04G      0.293700
     10 C26         1.1230    0.9260    0.0520 ca        1 04G      0.192300
     11 C27        -1.1870    0.9620    0.0070 cd        1 04G      0.353800
     12 C28        -1.2320   -0.5150    0.0070 cd        1 04G      0.195400
     13 C29        -2.3770   -1.2330   -0.0150 cc        1 04G     -0.266200
     14 C30        -3.6780   -0.5540   -0.0400 c         1 04G      0.564500
     15 C31        -3.6410    0.9220   -0.0400 cc        1 04G     -0.212200
     16 C32        -2.4980    1.6230   -0.0180 cd        1 04G     -0.179800
     17 HO4         5.4280   -0.6900    0.1360 ho        1 04G      0.429000
     18 H21         2.3930    2.6980    0.0760 ha        1 04G      0.159000
     19 H22         4.5170    1.4030    0.1180 ha        1 04G      0.145000
     20 H24         2.2970   -2.3370    0.0760 ha        1 04G      0.178000
     21 H29        -2.3780   -2.3330   -0.0150 ha        1 04G      0.173000
     22 H31        -4.6230    1.4220   -0.0590 ha        1 04G      0.160000
     23 H32        -2.4980    2.7270   -0.0190 ha        1 04G      0.159000
@<TRIPOS>BOND
     1    1    7 1   
     2    1   17 1   
     3    2    9 1   
     4    2   12 1   
     5    3   10 1   
     6    3   11 2   
     7    4   14 2   
     8    5    6 ar  
     9    5   10 ar  
    10    5   18 1   
    11    6    7 ar  
    12    6   19 1   
    13    7    8 ar  
    14    8    9 ar  
    15    8   20 1   
    16    9   10 ar  
    17   11   12 1   
    18   11   16 1   
    19   12   13 2   
    20   13   14 1   
    21   13   21 1   
    22   14   15 1   
    23   15   16 2   
    24   15   22 1   
    25   16   23 1   
@<TRIPOS>SUBSTRUCTURE
     1 04G         1 TEMP              0 ****  ****    0 ROOT
