@<TRIPOS>MOLECULE
04G
   23    25     1     0     0
SMALL
bcc


@<TRIPOS>ATOM
      1 O4         -0.0750   -0.1550    0.1010 oh        1 04G     -0.484100
      2 O5          4.7070   -0.0990    0.0310 os        1 04G     -0.382800
      3 N6          4.7370    0.0430    2.9140 nc        1 04G     -0.571000
      4 O6          9.4140   -0.0360    0.0890 o         1 04G     -0.521100
      5 C21         2.2920    0.0090    2.8560 ca        1 04G     -0.082300
      6 C22         1.1100   -0.0410    2.1410 ca        1 04G     -0.184000
      7 C23         1.1410   -0.1090    0.7310 ca        1 04G      0.180100
      8 C24         2.3500   -0.1280    0.0290 ca        1 04G     -0.307300
      9 C25         3.5360   -0.0770    0.7710 ca        1 04G      0.300700
     10 C26         3.5410   -0.0080    2.1880 ca        1 04G      0.192300
     11 C27         5.8510    0.0230    2.2260 cd        1 04G      0.351800
     12 C28         5.8990   -0.0480    0.7510 cd        1 04G      0.195400
     13 C29         7.0450   -0.0690    0.0350 cc        1 04G     -0.267200
     14 C30         8.3450   -0.0190    0.7130 c         1 04G      0.564500
     15 C31         8.3060    0.0530    2.1870 cc        1 04G     -0.213200
     16 C32         7.1620    0.0720    2.8870 cd        1 04G     -0.178800
     17 HO4         0.0770   -0.2010   -0.8560 ho        1 04G      0.430000
     18 H21         2.2680    0.0630    3.9570 ha        1 04G      0.161000
     19 H22         0.1360   -0.0280    2.6520 ha        1 04G      0.163000
     20 H24         2.3860   -0.1820   -1.0670 ha        1 04G      0.162000
     21 H29         7.0470   -0.1220   -1.0640 ha        1 04G      0.172000
     22 H31         9.2870    0.0890    2.6880 ha        1 04G      0.160000
     23 H32         7.1610    0.1260    3.9900 ha        1 04G      0.159000
@<TRIPOS>BOND
     1    1    7 1   
     2    1   17 1   
     3    2    9 1   
     4    2   12 1   
     5    3   10 1   
     6    3   11 2   
     7    4   14 2   
     8    5    6 ar  
     9    5   10 ar  
    10    5   18 1   
    11    6    7 ar  
    12    6   19 1   
    13    7    8 ar  
    14    8    9 ar  
    15    8   20 1   
    16    9   10 ar  
    17   11   12 1   
    18   11   16 1   
    19   12   13 2   
    20   13   14 1   
    21   13   21 1   
    22   14   15 1   
    23   15   16 2   
    24   15   22 1   
    25   16   23 1   
@<TRIPOS>SUBSTRUCTURE
     1 04G         1 TEMP              0 ****  ****    0 ROOT
