@<TRIPOS>MOLECULE
04H
   27    27     1     0     0
SMALL
bcc


@<TRIPOS>ATOM
      1 N19        -2.9190    1.7900    0.2630 n3        1 04H     -0.919800
      2 C23        -2.7600    0.3560    0.2000 c3        1 04H      0.164800
      3 C26        -1.3580   -0.1030   -0.2160 c3        1 04H     -0.099700
      4 C28        -0.3170    0.3670    0.8090 c3        1 04H      0.191800
      5 C29        -1.3410   -1.6210   -0.3310 c3        1 04H     -0.073400
      6 N30         1.0260   -0.1740    0.6650 nh        1 04H     -0.698600
      7 C31         0.0580   -2.1240   -0.6110 c3        1 04H     -0.107400
      8 C32         1.0370   -1.6150    0.4460 c3        1 04H      0.171800
      9 C33         1.9000    0.5470   -0.2600 c2        1 04H      0.739100
     10 N34         3.2860    0.4790    0.0920 nh        1 04H     -0.928800
     11 N35         1.4310    1.1480   -1.3210 n2        1 04H     -0.859100
     12 H19        -2.4520    2.2410   -0.4990 hn        1 04H      0.350300
     13 H231       -2.9890   -0.0470    1.2290 h1        1 04H      0.024700
     14 H232       -3.4950   -0.1250   -0.5130 h1        1 04H      0.024700
     15 H26        -1.1070    0.3350   -1.2220 hc        1 04H      0.076700
     16 H281       -0.2650    1.4910    0.7960 h1        1 04H      0.063200
     17 H282       -0.6580    0.0460    1.8360 h1        1 04H      0.063200
     18 H291       -1.7200   -2.0730    0.6240 hc        1 04H      0.039700
     19 H292       -2.0310   -1.9440   -1.1530 hc        1 04H      0.039700
     20 H311        0.0700   -3.2440   -0.6030 hc        1 04H      0.051200
     21 H312        0.3860   -1.7840   -1.6270 hc        1 04H      0.051200
     22 H321        2.0760   -1.9490    0.1780 h1        1 04H      0.055700
     23 H322        0.7680   -2.0770    1.4400 h1        1 04H      0.055700
     24 H341        3.4730    0.1170    1.0020 hn        1 04H      0.391800
     25 H342        3.7850    1.3230   -0.0880 hn        1 04H      0.391800
     26 H35         2.0930    1.6630   -1.8600 hn        1 04H      0.389400
     27 H2         -3.8890    2.0330    0.2450 hn        1 04H      0.350300
@<TRIPOS>BOND
     1    1    2 1   
     2    1   12 1   
     3    1   27 1   
     4    2    3 1   
     5    2   13 1   
     6    2   14 1   
     7    3    4 1   
     8    3    5 1   
     9    3   15 1   
    10    4    6 1   
    11    4   16 1   
    12    4   17 1   
    13    5    7 1   
    14    5   18 1   
    15    5   19 1   
    16    6    8 1   
    17    6    9 1   
    18    7    8 1   
    19    7   20 1   
    20    7   21 1   
    21    8   22 1   
    22    8   23 1   
    23    9   10 1   
    24    9   11 2   
    25   10   24 1   
    26   10   25 1   
    27   11   26 1   
@<TRIPOS>SUBSTRUCTURE
     1 04H         1 TEMP              0 ****  ****    0 ROOT
