@<TRIPOS>MOLECULE
04H
   29    29     1     0     0
SMALL
bcc


@<TRIPOS>ATOM
      1 N19        -0.0010   -0.3210   -0.2730 n4        1 04H     -0.839600
      2 C23         1.4610   -0.2390    0.0080 c3        1 04H      0.098800
      3 C26         1.8250   -0.1040    1.4910 c3        1 04H     -0.122700
      4 C28         1.7750   -1.4750    2.1930 c3        1 04H      0.169800
      5 C29         3.2330    0.4890    1.5550 c3        1 04H     -0.086400
      6 N30         2.4280   -1.5700    3.4870 nh        1 04H     -0.740600
      7 C31         3.7730    0.4840    2.9670 c3        1 04H     -0.115400
      8 C32         3.7370   -0.9230    3.5530 c3        1 04H      0.161800
      9 C33         1.5890   -1.3300    4.6340 c2        1 04H      0.669100
     10 N34         1.8060   -2.3960    5.6960 n4        1 04H     -0.809600
     11 N35         0.7030   -0.4480    4.9300 n2        1 04H     -0.711100
     12 H19        -0.4150   -1.1380    0.1840 hn        1 04H      0.468800
     13 H231        1.9470   -1.1610   -0.4280 hx        1 04H      0.129200
     14 H232        1.8550    0.6650   -0.5510 hx        1 04H      0.129200
     15 H26         1.1180    0.6060    2.0030 hc        1 04H      0.064700
     16 H281        2.3200   -2.2280    1.5480 h1        1 04H      0.076700
     17 H282        0.7030   -1.8050    2.2900 h1        1 04H      0.076700
     18 H291        3.9190   -0.1040    0.8920 hc        1 04H      0.082200
     19 H292        3.2140    1.5430    1.1690 hc        1 04H      0.082200
     20 H311        3.1920    1.1960    3.6100 hc        1 04H      0.087200
     21 H312        4.8400    0.8390    2.9590 hc        1 04H      0.087200
     22 H321        4.0920   -0.8960    4.6200 h1        1 04H      0.089200
     23 H322        4.4370   -1.5920    2.9690 h1        1 04H      0.089200
     24 H341        1.6360   -3.3230    5.2880 hn        1 04H      0.484800
     25 H342        1.1680   -2.2480    6.4930 hn        1 04H      0.484800
     26 H35         0.5350    0.3020    4.2930 hn        1 04H      0.470400
     27 H2         -0.1500   -0.4000   -1.2890 hn        1 04H      0.468800
     28 H193       -0.4800    0.5230    0.0620 hn        1 04H      0.468800
     29 H343        2.7770   -2.3470    6.0270 hn        1 04H      0.484800
@<TRIPOS>BOND
     1    1    2 1   
     2    1   12 1   
     3    1   27 1   
     4    1   28 1   
     5    2    3 1   
     6    2   13 1   
     7    2   14 1   
     8    3    4 1   
     9    3    5 1   
    10    3   15 1   
    11    4    6 1   
    12    4   16 1   
    13    4   17 1   
    14    5    7 1   
    15    5   18 1   
    16    5   19 1   
    17    6    8 1   
    18    6    9 1   
    19    7    8 1   
    20    7   20 1   
    21    7   21 1   
    22    8   22 1   
    23    8   23 1   
    24    9   10 1   
    25    9   11 2   
    26   10   24 1   
    27   10   25 1   
    28   10   29 1   
    29   11   26 1   
@<TRIPOS>SUBSTRUCTURE
     1 04H         1 TEMP              0 ****  ****    0 ROOT
