@<TRIPOS>MOLECULE
04H
   29    29     1     0     0
SMALL
bcc


@<TRIPOS>ATOM
      1 N19        -0.0070   -0.2940   -0.2650 n4        1 04H     -0.839600
      2 C23         1.4570   -0.2330    0.0100 c3        1 04H      0.098800
      3 C26         1.8290   -0.1020    1.4920 c3        1 04H     -0.122700
      4 C28         1.7620   -1.4710    2.1950 c3        1 04H      0.169800
      5 C29         3.2460    0.4700    1.5490 c3        1 04H     -0.086400
      6 N30         2.4190   -1.5750    3.4860 nh        1 04H     -0.740600
      7 C31         3.7920    0.4590    2.9580 c3        1 04H     -0.115400
      8 C32         3.7380   -0.9470    3.5450 c3        1 04H      0.161800
      9 C33         1.5890   -1.3210    4.6370 c2        1 04H      0.669100
     10 N34         1.7940   -2.3890    5.6990 n4        1 04H     -0.809600
     11 N35         0.7180   -0.4250    4.9360 n2        1 04H     -0.711100
     12 H19        -0.1630   -0.3730   -1.2800 hn        1 04H      0.468800
     13 H231        1.8600    0.6640   -0.5520 hx        1 04H      0.129200
     14 H232        1.9270   -1.1630   -0.4270 hx        1 04H      0.129200
     15 H26         1.1350    0.6190    2.0060 hc        1 04H      0.064700
     16 H281        2.2930   -2.2330    1.5480 h1        1 04H      0.076700
     17 H282        0.6860   -1.7850    2.2970 h1        1 04H      0.076700
     18 H291        3.9200   -0.1340    0.8830 hc        1 04H      0.082200
     19 H292        3.2410    1.5240    1.1610 hc        1 04H      0.082200
     20 H311        4.8640    0.7980    2.9450 hc        1 04H      0.087200
     21 H312        3.2250    1.1800    3.6030 hc        1 04H      0.087200
     22 H321        4.4250   -1.6260    2.9590 h1        1 04H      0.089200
     23 H322        4.0980   -0.9240    4.6110 h1        1 04H      0.089200
     24 H341        1.6070   -3.3130    5.2920 hn        1 04H      0.484800
     25 H342        2.7680   -2.3550    6.0250 hn        1 04H      0.484800
     26 H35         0.5590    0.3270    4.2990 hn        1 04H      0.470400
     27 H2         -0.4310   -1.1060    0.1950 hn        1 04H      0.468800
     28 H193       -0.4730    0.5570    0.0720 hn        1 04H      0.468800
     29 H343        1.1620   -2.2300    6.4980 hn        1 04H      0.484800
@<TRIPOS>BOND
     1    1    2 1   
     2    1   12 1   
     3    1   27 1   
     4    1   28 1   
     5    2    3 1   
     6    2   13 1   
     7    2   14 1   
     8    3    4 1   
     9    3    5 1   
    10    3   15 1   
    11    4    6 1   
    12    4   16 1   
    13    4   17 1   
    14    5    7 1   
    15    5   18 1   
    16    5   19 1   
    17    6    8 1   
    18    6    9 1   
    19    7    8 1   
    20    7   20 1   
    21    7   21 1   
    22    8   22 1   
    23    8   23 1   
    24    9   10 1   
    25    9   11 2   
    26   10   24 1   
    27   10   25 1   
    28   10   29 1   
    29   11   26 1   
@<TRIPOS>SUBSTRUCTURE
     1 04H         1 TEMP              0 ****  ****    0 ROOT
