@<TRIPOS>MOLECULE
04H
   27    26     1     0     0
SMALL
bcc


@<TRIPOS>ATOM
      1 N19        -3.2660    0.2320   -0.8770 n3        1 04H     -0.919800
      2 C23        -1.8310    0.2910   -0.8980 c3        1 04H      0.162800
      3 C26        -1.2880    0.3220    0.5780 c3        1 04H     -0.056700
      4 C28        -0.2460   -0.8040    0.7540 c3        1 04H      0.177800
      5 C29        -0.7280    1.6420    0.8510 c3        1 04H     -0.072400
      6 N30         1.0010   -0.5490   -0.0070 nh        1 04H     -0.670400
      7 C31         0.5480    1.8970    0.0770 c3        1 04H     -0.079400
      8 C32         1.5700    0.7800    0.2580 c3        1 04H      0.178800
      9 C33         1.8690   -1.6490   -0.3540 c2        1 04H      0.310000
     10 N34         2.4710   -2.4550    0.6890 nh        1 04H     -0.824600
     11 N35         2.1190   -1.9260   -1.6450 n1        1 04H     -0.309000
     12 H19        -3.5460   -0.5740   -1.2260 hn        1 04H      0.347800
     13 H231       -1.5450    1.0940   -1.3660 h1        1 04H      0.032700
     14 H232       -1.4720   -0.5150   -1.3680 h1        1 04H      0.032700
     15 H26        -2.0430    0.1610    1.2000 hc        1 04H      0.046700
     16 H281       -0.6420   -1.6590    0.4440 h1        1 04H      0.034700
     17 H282       -0.0200   -0.8850    1.7220 h1        1 04H      0.034700
     18 H291       -0.5340    1.7100    1.8190 hc        1 04H      0.050200
     19 H292       -1.3840    2.3190    0.6120 hc        1 04H      0.050200
     20 H311        0.9400    2.7330    0.3840 hc        1 04H      0.050700
     21 H312        0.3340    1.9780   -0.8710 hc        1 04H      0.050700
     22 H321        2.3360    0.9360   -0.3710 h1        1 04H      0.040700
     23 H322        1.9150    0.8040    1.1970 h1        1 04H      0.040700
     24 H341        3.2780   -2.1860    1.0800 hn        1 04H      0.391300
     25 H342        2.0340   -3.1960    1.0050 hn        1 04H      0.391300
     26 H35         1.7350   -1.4130   -2.3120 DU        1 04H      0.160000
     27 H2         -3.6050    0.9130   -1.3770 hn        1 04H      0.347800
@<TRIPOS>BOND
     1    1    2 1   
     2    1   12 1   
     3    1   27 1   
     4    2    3 1   
     5    2   13 1   
     6    2   14 1   
     7    3    4 1   
     8    3    5 1   
     9    3   15 1   
    10    4    6 1   
    11    4   16 1   
    12    4   17 1   
    13    5    7 1   
    14    5   18 1   
    15    5   19 1   
    16    6    8 1   
    17    6    9 1   
    18    7    8 1   
    19    7   20 1   
    20    7   21 1   
    21    8   22 1   
    22    8   23 1   
    23    9   10 1   
    24    9   11 2   
    25   10   24 1   
    26   10   25 1   
@<TRIPOS>SUBSTRUCTURE
     1 04H         1 TEMP              0 ****  ****    0 ROOT
