@<TRIPOS>MOLECULE
04H
   29    29     1     0     0
SMALL
bcc


@<TRIPOS>ATOM
      1 N19         0.0140   -0.3250   -0.2840 nz        1 04H     -0.839600
      2 C23         1.4750   -0.2460    0.0040 c3        1 04H      0.098800
      3 C26         1.8320   -0.1070    1.4880 c3        1 04H     -0.122700
      4 C28         1.7750   -1.4750    2.1950 c3        1 04H      0.169800
      5 C29         3.2400    0.4830    1.5570 c3        1 04H     -0.086400
      6 N30         2.4210   -1.5680    3.4920 nh        1 04H     -0.740600
      7 C31         3.7740    0.4810    2.9720 c3        1 04H     -0.115400
      8 C32         3.7310   -0.9240    3.5620 c3        1 04H      0.161800
      9 C33         1.5770   -1.3220    4.6340 c2        1 04H      0.669100
     10 N34         1.7860   -2.3840    5.7010 nz        1 04H     -0.809600
     11 N35         0.6910   -0.4360    4.9220 n2        1 04H     -0.711100
     12 H19        -0.4650    0.5210    0.0450 hn        1 04H      0.468800
     13 H231        1.9610   -1.1710   -0.4270 hx        1 04H      0.129200
     14 H232        1.8730    0.6550   -0.5560 hx        1 04H      0.129200
     15 H26         1.1230    0.6060    1.9940 hc        1 04H      0.064700
     16 H281        0.7020   -1.8020    2.2870 h1        1 04H      0.076700
     17 H282        2.3210   -2.2320    1.5540 h1        1 04H      0.076700
     18 H291        3.9280   -0.1140    0.8990 hc        1 04H      0.082200
     19 H292        3.2260    1.5360    1.1670 hc        1 04H      0.082200
     20 H311        3.1910    1.1970    3.6090 hc        1 04H      0.087200
     21 H312        4.8410    0.8330    2.9680 hc        1 04H      0.087200
     22 H321        4.0810   -0.8940    4.6310 h1        1 04H      0.089200
     23 H322        4.4320   -1.5960    2.9840 h1        1 04H      0.089200
     24 H341        1.6150   -3.3120    5.2950 hn        1 04H      0.484800
     25 H342        2.7550   -2.3370    6.0360 hn        1 04H      0.484800
     26 H35         0.5290    0.3120    4.2820 hn        1 04H      0.470400
     27 H2         -0.4050   -1.1400    0.1730 hn        1 04H      0.468800
     28 H193       -0.1310   -0.4080   -1.3010 hn        1 04H      0.468800
     29 H343        1.1430   -2.2320    6.4940 hn        1 04H      0.484800
@<TRIPOS>BOND
     1    1    2 1   
     2    1   12 1   
     3    1   27 1   
     4    1   28 1   
     5    2    3 1   
     6    2   13 1   
     7    2   14 1   
     8    3    4 1   
     9    3    5 1   
    10    3   15 1   
    11    4    6 1   
    12    4   16 1   
    13    4   17 1   
    14    5    7 1   
    15    5   18 1   
    16    5   19 1   
    17    6    8 1   
    18    6    9 1   
    19    7    8 1   
    20    7   20 1   
    21    7   21 1   
    22    8   22 1   
    23    8   23 1   
    24    9   10 1   
    25    9   11 2   
    26   10   24 1   
    27   10   25 1   
    28   10   29 1   
    29   11   26 1   
@<TRIPOS>SUBSTRUCTURE
     1 04H         1 TEMP              0 ****  ****    0 ROOT
