@<TRIPOS>MOLECULE
04J
   50    43     1     0     0
SMALL
bcc


@<TRIPOS>ATOM
      1 C           2.3150   -0.0650    3.2930 c1        1 04J      0.327000
      2 N           2.5530    1.2690    3.8840 n2        1 04J     -0.287000
      3 O           2.7160   -1.0650    3.8650 o         1 04J     -0.368000
      4 N1         -3.0220   -1.6590   -7.4020 n1        1 04J     -0.214500
      5 O1          1.6920    0.1420    6.9960 o         1 04J     -0.601000
      6 C2         -4.3740   -1.6310   -7.6130 c1        1 04J      0.196000
      7 O2          0.5400    1.6800    5.8830 o         1 04J     -0.601000
      8 N3         -5.2370   -1.5990   -6.5470 n1        1 04J     -0.325000
      9 C4         -4.7510   -1.5950   -5.2780 c1        1 04J      0.253000
     10 N5         -2.8870   -1.6220   -3.7760 n1        1 04J     -0.036000
     11 C6         -1.5450   -1.6520   -3.5680 c1        1 04J     -0.186000
     12 C7         -0.6750   -1.6840   -4.6510 c1        1 04J     -0.067000
     13 N8         -1.1620   -1.6860   -5.9080 n1        1 04J     -0.214500
     14 C9         -1.1260   -1.6720   -2.1000 c3        1 04J     -0.003000
     15 CA          2.8770    1.3870    5.2770 c3        1 04J     -0.058000
     16 CB          3.3480    2.8030    5.5770 c3        1 04J     -0.126000
     17 CD          4.1400    4.2200    7.4950 c1        1 04J      0.324000
     18 CG          4.1400    2.8070    6.9010 c2        1 04J     -0.213000
     19 CT          1.6450    1.0710    6.1130 c2        1 04J      0.296000
     20 N10        -0.1310   -0.6340   -1.8640 n3        1 04J     -0.248000
     21 C11         1.6620   -0.1850    1.9220 c2        1 04J     -0.148000
     22 C12         0.3090   -0.3850    1.8230 c2        1 04J     -0.083000
     23 C13        -0.2820   -0.5460    0.5690 c1        1 04J     -0.177000
     24 C14         0.4880   -0.5050   -0.5600 c1        1 04J      0.022000
     25 C15         1.8550   -0.3040   -0.4590 c1        1 04J     -0.170000
     26 C16         2.4390   -0.1440    0.7810 c1        1 04J     -0.075000
     27 C4A        -3.3840   -1.6250   -5.0600 c1        1 04J     -0.228000
     28 C8A        -2.5260   -1.6570   -6.1220 c1        1 04J      0.096000
     29 NA2        -4.8170   -1.7230   -8.9980 n3        1 04J     -0.316000
     30 NA4        -5.9710   -1.5580   -4.5140 n3        1 04J     -0.248000
     31 OE1         3.2870    4.5360    8.3430 o         1 04J     -0.604500
     32 OE2         5.0810    5.0410    7.1990 o         1 04J     -0.604500
     33 HN          2.4570    2.0660    3.3400 hn        1 04J      0.189000
     34 H7          0.2970   -1.7050   -4.5000 ha        1 04J      0.146000
     35 H9         -0.7570   -2.5150   -1.8900 h1        1 04J      0.092000
     36 H9A        -1.9110   -1.5070   -1.5340 h1        1 04J      0.092000
     37 HA          3.6030    0.7420    5.5030 h1        1 04J      0.114000
     38 HB          3.9350    3.1200    4.8430 hc        1 04J      0.091000
     39 HBA         2.5910    3.3840    5.6560 hc        1 04J      0.091000
     40 HG          3.7290    2.2000    7.5230 ha        1 04J      0.063000
     41 HGA         5.0240    2.5360    6.7380 ha        1 04J      0.063000
     42 HN10        0.0960   -0.0530   -2.5390 hn        1 04J      0.160000
     43 H12        -0.2450   -0.4280    2.6400 ha        1 04J      0.204000
     44 H13        -1.2070   -0.6820    0.5010 ha        1 04J      0.127000
     45 H15         2.3930   -0.2750   -1.2480 ha        1 04J      0.119000
     46 H16         3.3990   -0.0270    0.8520 ha        1 04J      0.144000
     47 HNA2       -5.6890   -1.9330   -9.1870 hn        1 04J      0.202000
     48 HNAA       -4.2070   -1.6210   -9.6860 hn        1 04J      0.202000
     49 HNA4       -6.7680   -1.5020   -4.9380 hn        1 04J      0.295500
     50 HNAB       -5.9380   -1.5620   -3.5750 hn        1 04J      0.295500
@<TRIPOS>BOND
     1    1    3 1   
     2    1   21 1   
     3    2   15 1   
     4    2   33 1   
     5    4   28 1   
     6    5   19 1   
     7    6    8 1   
     8    6   29 1   
     9    7   19 1   
    10    9   27 1   
    11    9   30 1   
    12   10   27 1   
    13   11   12 1   
    14   11   14 1   
    15   12   34 1   
    16   13   28 1   
    17   14   20 1   
    18   14   35 1   
    19   14   36 1   
    20   15   16 1   
    21   15   19 1   
    22   15   37 1   
    23   16   18 1   
    24   16   38 1   
    25   16   39 1   
    26   17   31 1   
    27   17   32 1   
    28   18   40 1   
    29   18   41 1   
    30   20   24 1   
    31   20   42 1   
    32   21   22 1   
    33   21   26 1   
    34   22   23 1   
    35   22   43 1   
    36   23   44 1   
    37   24   25 1   
    38   25   45 1   
    39   26   46 1   
    40   29   47 1   
    41   29   48 1   
    42   30   49 1   
    43   30   50 1   
@<TRIPOS>SUBSTRUCTURE
     1 04J         1 TEMP              0 ****  ****    0 ROOT
