@<TRIPOS>MOLECULE
04J
   51    52     1     0     0
SMALL
bcc


@<TRIPOS>ATOM
      1 C          -0.8560   -2.4170    0.0350 c2        1 04J      0.346000
      2 N           0.1090   -1.4460   -0.1590 ns        1 04J     -0.346000
      3 O          -0.6930   -3.3500    0.8490 o         1 04J     -0.401000
      4 N1         -4.2190    0.1440   -9.4180 n2        1 04J     -0.306000
      5 O1          0.9240    1.2320   -3.8210 o         1 04J     -0.508500
      6 C2         -4.1100   -1.2150   -9.6470 c2        1 04J      0.219000
      7 O2          3.1080    1.5310   -3.1460 o         1 04J     -0.508500
      8 N3         -3.5220   -2.1480   -8.8100 n2        1 04J     -0.335000
      9 C4         -3.0540   -1.7120   -7.6010 c2        1 04J      0.269000
     10 N5         -2.7140    0.1530   -6.0050 n2        1 04J     -0.050000
     11 C6         -2.7900    1.4500   -5.7650 c2        1 04J     -0.146000
     12 C7         -3.3690    2.4210   -6.7010 c1        1 04J     -0.096000
     13 N8         -3.8210    1.9480   -7.8640 nu        1 04J     -0.122000
     14 C9         -2.2240    2.0210   -4.4800 c3        1 04J      0.006000
     15 CA          1.3900   -1.5220    0.4320 cx        1 04J      0.009000
     16 CB          2.2230   -0.2860    0.6880 cx        1 04J     -0.202000
     17 CD          2.6280   -0.8680   -1.7980 c2        1 04J      0.370000
     18 CG          2.6670   -1.2640   -0.3680 cx        1 04J     -0.220000
     19 CT          1.9740    1.0430   -3.1670 c2        1 04J      0.451000
     20 N10        -2.8340    1.5000   -3.2850 n7        1 04J     -0.279000
     21 C11        -2.1090   -2.3140   -0.8190 c3        1 04J     -0.151000
     22 C12        -2.8150   -1.0640   -0.6000 c1        1 04J     -0.225000
     23 C13        -3.0510   -0.0020   -1.4120 c2        1 04J     -0.320000
     24 C14        -2.4750    0.3480   -2.6560 c2        1 04J      0.295000
     25 C15        -1.4160   -0.4500   -3.2630 c2        1 04J     -0.506000
     26 C16        -1.4300   -1.5030   -4.0310 c1        1 04J      0.175000
     27 C4A        -3.1710   -0.2970   -7.2250 c2        1 04J     -0.233000
     28 C8A        -3.7520    0.5760   -8.2110 c2        1 04J      0.092000
     29 OE1         3.3170   -1.3770   -2.6890 o         1 04J     -0.368000
     30 OE2         1.7080    0.0670   -2.1270 os        1 04J     -0.416000
     31 HN          0.8690   -1.7810   -4.4620 ha        1 04J      0.004000
     32 H7         -4.2230    2.5800   -8.5250 hn        1 04J      0.262000
     33 H9         -1.1050    1.8190   -4.4540 h1        1 04J      0.153000
     34 H9A        -2.3890    3.1370   -4.5000 h1        1 04J      0.153000
     35 HA         -0.0340   -0.7410   -0.8520 hn        1 04J      0.251000
     36 HB          3.5350   -1.9230   -0.1630 hc        1 04J      0.134000
     37 HBA         1.4380   -2.3450    1.1850 h1        1 04J      0.149000
     38 HG          2.7930   -0.2250    1.6310 hc        1 04J      0.119500
     39 HGA         1.8530    0.7000    0.3490 hc        1 04J      0.119500
     40 HN10       -3.5890    2.0230   -2.9000 hn        1 04J      0.232000
     41 H12        -2.8050   -3.1400   -0.4940 hc        1 04J      0.091000
     42 H13        -3.7800    0.7290   -1.0050 ha        1 04J      0.115000
     43 H15        -0.3630   -0.0130   -3.0860 ha        1 04J      0.321000
     44 H16        -1.8060   -2.5330   -1.8840 hc        1 04J      0.091000
     45 HNA2       -4.3930   -2.6090  -11.1190 hn        1 04J      0.219000
     46 HNAA       -4.8550   -1.0440  -11.5450 hn        1 04J      0.219000
     47 HNA4       -2.0560   -2.2920   -5.8940 hn        1 04J      0.264000
     48 HNAB       -2.3640   -3.5500   -7.0210 hn        1 04J      0.264000
     49 NA4        -2.4790   -2.6030   -6.7500 nv        1 04J     -0.331000
     50 H2          1.2490   -1.3020   -4.1630 ha        1 04J      0.004000
     51 NA2        -4.6880   -1.7070  -10.8250 nv        1 04J     -0.325000
@<TRIPOS>BOND
     1    1    2 1   
     2    1    3 1   
     3    1   21 1   
     4    2   15 1   
     5    2   35 1   
     6    4    6 1   
     7    4   28 1   
     8    5   19 1   
     9    6    8 1   
    10    6   51 1   
    11    7   19 1   
    12    8    9 1   
    13    9   27 1   
    14    9   49 1   
    15   10   11 1   
    16   10   27 1   
    17   11   12 1   
    18   11   14 1   
    19   12   13 1   
    20   13   28 1   
    21   13   32 1   
    22   14   20 1   
    23   14   33 1   
    24   14   34 1   
    25   15   16 1   
    26   15   18 1   
    27   15   37 1   
    28   16   18 1   
    29   16   38 1   
    30   16   39 1   
    31   17   18 1   
    32   17   29 1   
    33   17   30 1   
    34   18   36 1   
    35   19   30 1   
    36   20   24 1   
    37   20   40 1   
    38   21   22 1   
    39   21   41 1   
    40   21   44 1   
    41   22   23 1   
    42   23   24 1   
    43   23   42 1   
    44   24   25 1   
    45   25   26 1   
    46   25   43 1   
    47   27   28 1   
    48   31   50 1   
    49   45   51 1   
    50   46   51 1   
    51   47   49 1   
    52   48   49 1   
@<TRIPOS>SUBSTRUCTURE
     1 04J         1 TEMP              0 ****  ****    0 ROOT
