@<TRIPOS>MOLECULE
04J
   51    51     1     0     0
SMALL
bcc


@<TRIPOS>ATOM
      1 C          -1.4350   -3.2040    0.1340 c2        1 04J      0.333000
      2 N          -0.2810   -2.4820    0.0050 n         1 04J     -0.420000
      3 O          -1.5230   -4.1120    0.9950 o         1 04J     -0.436000
      4 N1         -3.8380    0.3680   -9.5250 n2        1 04J     -0.306000
      5 O1          1.5200    3.3440   -1.5110 o         1 04J     -0.253500
      6 C2         -4.1520   -0.9460   -9.8070 c2        1 04J      0.213000
      7 O2         -0.7580    3.1470   -2.1650 o         1 04J     -0.253500
      8 N3         -3.9350   -2.0420   -8.9890 n2        1 04J     -0.338000
      9 C4         -3.4190   -1.8120   -7.7440 c2        1 04J      0.266000
     10 N5         -2.6160   -0.1960   -6.0450 n2        1 04J     -0.058000
     11 C6         -2.3000    1.0490   -5.7420 c2        1 04J     -0.133000
     12 C7         -2.4770    2.1790   -6.6660 c1        1 04J     -0.094000
     13 N8         -2.9800    1.9070   -7.8710 nh        1 04J     -0.124000
     14 C9         -1.6850    1.3800   -4.3970 c3        1 04J      0.011000
     15 CA          3.2320   -0.5020   -0.3590 cx        1 04J     -0.203500
     16 CB          3.9280   -0.5410   -1.6860 cx        1 04J     -0.203500
     17 CD          1.4400    0.0180   -2.1540 c2        1 04J      0.363000
     18 CG          2.7410    0.3640   -1.4900 cx        1 04J     -0.202000
     19 CT          0.3940    3.1620   -1.8570 c1        1 04J      0.480000
     20 N10        -2.4950    0.9950   -3.2690 n3        1 04J     -0.255000
     21 C11        -2.5810   -2.8950   -0.8180 c3        1 04J     -0.144000
     22 C12        -3.0800   -1.5460   -0.6240 c1        1 04J     -0.236000
     23 C13        -3.0920   -0.4530   -1.4260 c2        1 04J     -0.313000
     24 C14        -2.4520   -0.2260   -2.6690 c2        1 04J      0.306000
     25 C15        -1.7050   -1.2880   -3.3350 c2        1 04J     -0.492000
     26 C16        -2.0150   -2.2250   -4.1740 c1        1 04J      0.120000
     27 C4A        -3.1090   -0.4440   -7.3090 c2        1 04J     -0.231000
     28 C8A        -3.3290    0.5960   -8.2780 c2        1 04J      0.085000
     29 OE1         0.6630    0.9440   -2.5500 o         1 04J     -0.595000
     30 OE2         1.1130   -1.2040   -2.3190 o         1 04J     -0.595000
     31 HN         -0.1510   -1.8400   -0.7430 hn        1 04J      0.232500
     32 H7         -3.1250    2.6540   -8.5190 hn        1 04J      0.260000
     33 H9         -0.6660    0.8850   -4.3200 h1        1 04J      0.148500
     34 H9A        -1.5310    2.4980   -4.3530 h1        1 04J      0.148500
     35 HA          3.7310   -0.0250    0.5010 hc        1 04J      0.101000
     36 HB          2.9040    1.4580   -1.4340 hc        1 04J      0.129000
     37 HBA         2.6090   -1.3660   -0.0630 hc        1 04J      0.101000
     38 HG          3.7970   -1.4350   -2.3240 hc        1 04J      0.101000
     39 HGA         4.9310   -0.0920   -1.7840 hc        1 04J      0.101000
     40 HN10       -2.8570    1.7520   -2.7280 hn        1 04J      0.240000
     41 H12        -3.4280   -3.5950   -0.5650 hc        1 04J      0.083500
     42 H13        -3.6350    0.4210   -1.0100 ha        1 04J      0.112000
     43 H15        -0.5810   -1.2480   -3.0270 ha        1 04J      0.336000
     44 H16        -2.2350   -3.1540   -1.8600 hc        1 04J      0.083500
     45 HNA2       -4.7740   -2.1350  -11.3520 hn        1 04J      0.215500
     46 HNAA       -4.6970   -0.4950  -11.7270 hn        1 04J      0.215500
     47 HNA4       -2.7600   -2.7230   -6.0110 hn        1 04J      0.265500
     48 HNAB       -3.3900   -3.7870   -7.2090 hn        1 04J      0.265500
     49 NA4        -3.1830   -2.8640   -6.9150 nh        1 04J     -0.337000
     50 H2          0.5050   -2.7170    0.5560 hn        1 04J      0.232500
     51 NA2        -4.7950   -1.1950  -11.0300 nh        1 04J     -0.324000
@<TRIPOS>BOND
     1    1    2 1   
     2    1    3 1   
     3    1   21 1   
     4    2   31 1   
     5    2   50 1   
     6    4    6 1   
     7    4   28 1   
     8    5   19 1   
     9    6    8 1   
    10    6   51 1   
    11    7   19 1   
    12    8    9 1   
    13    9   27 1   
    14    9   49 1   
    15   10   11 1   
    16   10   27 1   
    17   11   12 1   
    18   11   14 1   
    19   12   13 1   
    20   13   28 1   
    21   13   32 1   
    22   14   20 1   
    23   14   33 1   
    24   14   34 1   
    25   15   16 1   
    26   15   18 1   
    27   15   35 1   
    28   15   37 1   
    29   16   18 1   
    30   16   38 1   
    31   16   39 1   
    32   17   18 1   
    33   17   29 1   
    34   17   30 1   
    35   18   36 1   
    36   20   24 1   
    37   20   40 1   
    38   21   22 1   
    39   21   41 1   
    40   21   44 1   
    41   22   23 1   
    42   23   24 1   
    43   23   42 1   
    44   24   25 1   
    45   25   26 1   
    46   25   43 1   
    47   27   28 1   
    48   45   51 1   
    49   46   51 1   
    50   47   49 1   
    51   48   49 1   
@<TRIPOS>SUBSTRUCTURE
     1 04J         1 TEMP              0 ****  ****    0 ROOT
