@<TRIPOS>MOLECULE
04J
   50    52     1     0     0
SMALL
bcc


@<TRIPOS>ATOM
      1 C           3.9880    1.0850    1.2540 c         1 04J      0.661700
      2 N           4.8730    1.2690    0.2260 n         1 04J     -0.484900
      3 O           4.3200    0.9460    2.4560 o         1 04J     -0.658100
      4 N1         -7.7870    0.3440   -0.9120 nb        1 04J     -0.767000
      5 O1          6.8380    2.2560   -1.5820 o         1 04J     -0.851300
      6 C2         -8.5090   -0.6040   -0.2400 ca        1 04J      0.904900
      7 O2          8.3570    1.8290   -0.0040 o         1 04J     -0.851300
      8 N3         -8.0050   -1.6150    0.5800 nb        1 04J     -0.849000
      9 C4         -6.6590   -1.7090    0.6940 ca        1 04J      0.707900
     10 N5         -4.4080   -0.8730    0.0910 nb        1 04J     -0.605000
     11 C6         -3.6820    0.0140   -0.5780 ca        1 04J      0.272300
     12 C7         -4.3200    1.0530   -1.3700 ca        1 04J      0.355900
     13 N8         -5.6250    1.1840   -1.4920 nb        1 04J     -0.637000
     14 C9         -2.1700   -0.0370   -0.5550 c3        1 04J      0.117500
     15 CA          6.2210    0.7300    0.2300 c3        1 04J     -0.036300
     16 CB          6.2950   -0.6510   -0.4470 c3        1 04J     -0.075400
     17 CD          4.7460   -2.6580   -0.6020 c         1 04J      0.908600
     18 CG          5.5730   -1.7450    0.3090 c3        1 04J     -0.190400
     19 CT          7.2110    1.6880   -0.5170 c         1 04J      0.917600
     20 N10        -1.5960    1.1950   -0.0450 nh        1 04J     -0.706600
     21 C11         2.5300    1.1370    0.8930 ca        1 04J     -0.150600
     22 C12         1.6750    2.0480    1.5120 ca        1 04J     -0.073500
     23 C13         0.3140    2.0500    1.2190 ca        1 04J     -0.188500
     24 C14        -0.2130    1.1290    0.2860 ca        1 04J      0.081600
     25 C15         0.6630    0.2130   -0.3320 ca        1 04J     -0.188500
     26 C16         2.0230    0.2170   -0.0310 ca        1 04J     -0.073500
     27 C4A        -5.7740   -0.7720   -0.0150 ca        1 04J      0.044000
     28 C8A        -6.4180    0.2510   -0.8090 ca        1 04J      0.612000
     29 OE1         3.6950   -2.1980   -1.1520 o         1 04J     -0.875300
     30 OE2         5.1070   -3.8630   -0.7530 o         1 04J     -0.875300
     31 HN          4.5000    1.3870   -0.6920 hn        1 04J      0.310500
     32 H7         -3.6840    1.7870   -1.9040 h4        1 04J      0.057100
     33 H9         -1.8160   -0.9460    0.0160 h1        1 04J      0.070200
     34 H9A        -1.8230   -0.1550   -1.6240 h1        1 04J      0.070200
     35 HA          6.5600    0.6400    1.3010 h1        1 04J      0.066700
     36 HB          5.8810   -0.5710   -1.4880 hc        1 04J      0.046700
     37 HBA         7.3830   -0.9070   -0.5420 hc        1 04J      0.046700
     38 HG          6.3160   -2.3720    0.8660 hc        1 04J      0.023700
     39 HGA         4.8750   -1.3060    1.0690 hc        1 04J      0.023700
     40 HN10       -2.1250    1.5450    0.7330 hn        1 04J      0.364800
     41 H12         2.0810    2.7590    2.2470 ha        1 04J      0.188000
     42 H13        -0.3440    2.7750    1.7180 ha        1 04J      0.120500
     43 H15         0.2950   -0.5220   -1.0620 ha        1 04J      0.120500
     44 H16         2.7010   -0.5380   -0.5050 ha        1 04J      0.188000
     45 HNA2      -10.2880    0.2490   -0.7720 hn        1 04J      0.415800
     46 HNAA      -10.4350   -1.0550    0.2780 hn        1 04J      0.415800
     47 HNA4       -6.7090   -3.3470    1.9380 hn        1 04J      0.451800
     48 HNAB       -5.1420   -2.7900    1.5480 hn        1 04J      0.451800
     49 NA2        -9.9040   -0.6030   -0.4300 nh        1 04J     -0.921500
     50 NA4        -6.1250   -2.6750    1.5050 nh        1 04J     -0.954500
@<TRIPOS>BOND
     1    1    2 1   
     2    1    3 2   
     3    1   21 1   
     4    2   15 1   
     5    2   31 1   
     6    4    6 ar  
     7    4   28 ar  
     8    5   19 1   
     9    6    8 ar  
    10    6   49 1   
    11    7   19 1   
    12    8    9 ar  
    13    9   27 ar  
    14    9   50 1   
    15   10   11 ar  
    16   10   27 ar  
    17   11   12 ar  
    18   11   14 1   
    19   12   13 ar  
    20   12   32 1   
    21   13   28 ar  
    22   14   20 1   
    23   14   33 1   
    24   14   34 1   
    25   15   16 1   
    26   15   19 1   
    27   15   35 1   
    28   16   18 1   
    29   16   36 1   
    30   16   37 1   
    31   17   18 1   
    32   17   29 1   
    33   17   30 1   
    34   18   38 1   
    35   18   39 1   
    36   20   24 1   
    37   20   40 1   
    38   21   22 ar  
    39   21   26 ar  
    40   22   23 ar  
    41   22   41 1   
    42   23   24 ar  
    43   23   42 1   
    44   24   25 ar  
    45   25   26 ar  
    46   25   43 1   
    47   26   44 1   
    48   27   28 ar  
    49   45   49 1   
    50   46   49 1   
    51   47   50 1   
    52   48   50 1   
@<TRIPOS>SUBSTRUCTURE
     1 04J         1 TEMP              0 ****  ****    0 ROOT
