@<TRIPOS>MOLECULE
04K
   64    67     1     0     0
SMALL
bcc


@<TRIPOS>ATOM
      1 N1         -0.2040   -1.1150    0.1930 nb        1 04K     -0.763000
      2 C2          1.1260   -0.6920    0.1170 ca        1 04K      0.909900
      3 N3          1.8770   -0.2240    1.1700 nb        1 04K     -0.791000
      4 C4         -0.7590   -1.0750    1.4030 ca        1 04K      0.513200
      5 C5         -0.0880   -0.6380    2.5670 ca        1 04K     -0.393400
      6 C6          1.2770   -0.2060    2.4070 ca        1 04K      0.618200
      7 N7          1.9990    0.2400    3.5130 n         1 04K     -0.423300
      8 C8          1.4030    0.3030    4.8010 c         1 04K      0.692700
      9 C9          0.0010   -0.1530    4.9190 cc        1 04K     -0.015100
     10 C10        -0.7070   -0.6060    3.8550 cd        1 04K     -0.026200
     11 O11        -0.6220    0.0480    6.1410 os        1 04K     -0.228200
     12 C12        -0.2750   -0.8470    7.1570 ca        1 04K      0.092100
     13 N13         1.8020   -0.7700   -1.1180 nu        1 04K     -0.718300
     14 C14         1.1330   -0.9380   -2.3460 ca        1 04K      0.152600
     15 C15         1.3910   -0.0360   -3.4060 ca        1 04K     -0.112500
     16 C16         0.8030   -0.2150   -4.6520 ca        1 04K     -0.136500
     17 C17        -0.0490   -1.3080   -4.8510 ca        1 04K      0.062100
     18 C18        -0.3140   -2.2180   -3.8240 ca        1 04K     -0.136500
     19 C19         0.2780   -2.0380   -2.5780 ca        1 04K     -0.112500
     20 O20        -0.5460   -1.4740   -6.1450 os        1 04K     -0.375900
     21 C21        -1.8850   -1.9640   -6.2100 c3        1 04K      0.108400
     22 C22        -2.4950   -1.4070   -7.5020 c3        1 04K      0.098800
     23 N23        -1.6650   -1.6800   -8.7190 nx        1 04K     -0.688400
     24 C24        -1.8380   -3.0970   -9.1850 c3        1 04K      0.111800
     25 C25        -0.6850   -3.5990  -10.0290 c3        1 04K     -0.132600
     26 C26        -1.9890   -0.7090   -9.8180 c3        1 04K      0.111800
     27 C27        -1.3460    0.6500   -9.6330 c3        1 04K     -0.132600
     28 O28         2.0710    0.7270    5.7560 o         1 04K     -0.575500
     29 C29         3.3690    0.6780    3.3490 c3        1 04K      0.067300
     30 C30        -0.3750   -0.3400    8.4610 ca        1 04K     -0.127500
     31 C31        -0.1410   -1.1880    9.5360 ca        1 04K     -0.140500
     32 C32         0.2050   -2.5340    9.3050 ca        1 04K      0.110900
     33 C33         0.3130   -3.0280    7.9920 ca        1 04K     -0.140500
     34 C34         0.0700   -2.1800    6.9150 ca        1 04K     -0.127500
     35 F35         0.4380   -3.3580   10.3540 f         1 04K     -0.136900
     36 H4         -1.8130   -1.4090    1.4630 h4        1 04K      0.036100
     37 H10        -1.7540   -0.9330    3.9580 ha        1 04K      0.163000
     38 HN13        2.6610   -0.2580   -1.1690 hn        1 04K      0.454800
     39 H15         2.0630    0.8250   -3.2560 ha        1 04K      0.161000
     40 H16         1.0070    0.4850   -5.4740 ha        1 04K      0.143000
     41 H18        -0.9760   -3.0790   -3.9930 ha        1 04K      0.143000
     42 H19         0.0730   -2.7690   -1.7800 ha        1 04K      0.161000
     43 H21        -2.5010   -1.6060   -5.3420 h1        1 04K      0.079700
     44 H21A       -1.8550   -3.0860   -6.2120 h1        1 04K      0.079700
     45 H22        -3.5170   -1.8540   -7.6530 hx        1 04K      0.108200
     46 H22A       -2.5910   -0.2870   -7.4000 hx        1 04K      0.108200
     47 H24        -2.8040   -3.1530   -9.7630 hx        1 04K      0.099950
     48 H24A       -1.9330   -3.7460   -8.2660 hx        1 04K      0.099950
     49 H25        -0.5850   -3.0310  -10.9860 hc        1 04K      0.078200
     50 H25A        0.2850   -3.5490   -9.4750 hc        1 04K      0.078200
     51 H25B       -0.8860   -4.6720  -10.2820 hc        1 04K      0.078200
     52 H26        -1.6270   -1.1620  -10.7870 hx        1 04K      0.099950
     53 H26A       -3.1100   -0.6090   -9.8690 hx        1 04K      0.099950
     54 H27        -0.2320    0.5760   -9.5750 hc        1 04K      0.078200
     55 H27A       -1.6080    1.2790  -10.5220 hc        1 04K      0.078200
     56 H27B       -1.7180    1.1710   -8.7180 hc        1 04K      0.078200
     57 H29         3.9880   -0.1600    2.9300 h1        1 04K      0.067700
     58 H29A        3.4090    1.5530    2.6480 h1        1 04K      0.067700
     59 H29B        3.7890    0.9840    4.3450 h1        1 04K      0.067700
     60 H30        -0.6390    0.7170    8.6190 ha        1 04K      0.151000
     61 H31        -0.2150   -0.8150   10.5690 ha        1 04K      0.154500
     62 H33         0.5890   -4.0790    7.8260 ha        1 04K      0.154500
     63 H34         0.1530   -2.5540    5.8850 ha        1 04K      0.151000
     64 H231       -0.6750   -1.5470   -8.4520 hn        1 04K      0.466800
@<TRIPOS>BOND
     1    1    2 ar  
     2    1    4 ar  
     3    2    3 ar  
     4    2   13 1   
     5    3    6 ar  
     6    4    5 ar  
     7    4   36 1   
     8    5    6 ar  
     9    5   10 1   
    10    6    7 1   
    11    7    8 1   
    12    7   29 1   
    13    8    9 1   
    14    8   28 2   
    15    9   10 2   
    16    9   11 1   
    17   10   37 1   
    18   11   12 1   
    19   12   30 ar  
    20   12   34 ar  
    21   13   14 1   
    22   13   38 1   
    23   14   15 ar  
    24   14   19 ar  
    25   15   16 ar  
    26   15   39 1   
    27   16   17 ar  
    28   16   40 1   
    29   17   18 ar  
    30   17   20 1   
    31   18   19 ar  
    32   18   41 1   
    33   19   42 1   
    34   20   21 1   
    35   21   22 1   
    36   21   43 1   
    37   21   44 1   
    38   22   23 1   
    39   22   45 1   
    40   22   46 1   
    41   23   24 1   
    42   23   26 1   
    43   23   64 1   
    44   24   25 1   
    45   24   47 1   
    46   24   48 1   
    47   25   49 1   
    48   25   50 1   
    49   25   51 1   
    50   26   27 1   
    51   26   52 1   
    52   26   53 1   
    53   27   54 1   
    54   27   55 1   
    55   27   56 1   
    56   29   57 1   
    57   29   58 1   
    58   29   59 1   
    59   30   31 ar  
    60   30   60 1   
    61   31   32 ar  
    62   31   61 1   
    63   32   33 ar  
    64   32   35 1   
    65   33   34 ar  
    66   33   62 1   
    67   34   63 1   
@<TRIPOS>SUBSTRUCTURE
     1 04K         1 TEMP              0 ****  ****    0 ROOT
