@<TRIPOS>MOLECULE
04K
   65    68     1     0     0
SMALL
bcc


@<TRIPOS>ATOM
      1 N1          0.8510    1.8190    0.0590 nb        1 04K     -0.701000
      2 C2          1.8420    0.8750   -0.0500 ca        1 04K      0.726900
      3 N3          2.2630   -0.0290    0.8720 nb        1 04K     -0.726000
      4 C4          0.2390    1.8540    1.2560 ca        1 04K      0.488200
      5 C5          0.5710    0.9920    2.3200 ca        1 04K     -0.263400
      6 C6          1.6220    0.0220    2.0970 ca        1 04K      0.587200
      7 N7          1.9890   -0.8580    3.1040 n         1 04K     -0.414300
      8 C8          1.3770   -0.7950    4.3930 c         1 04K      0.676700
      9 C9          0.2990    0.2090    4.5850 cc        1 04K      0.084900
     10 C10        -0.0860    1.0520    3.5890 cd        1 04K     -0.118200
     11 O11        -0.2400    0.3950    5.8360 os        1 04K     -0.215200
     12 C12        -0.6350   -0.7540    6.5410 ca        1 04K      0.043100
     13 N13         2.5700    0.8390   -1.3660 n4        1 04K     -0.606100
     14 C14         1.7560    0.2410   -2.4280 ca        1 04K     -0.066400
     15 C15         0.7840    1.0230   -3.0840 ca        1 04K     -0.048500
     16 C16         0.0390    0.4660   -4.1140 ca        1 04K     -0.157500
     17 C17         0.2600   -0.8740   -4.4870 ca        1 04K      0.163100
     18 C18         1.2150   -1.6570   -3.8260 ca        1 04K     -0.157500
     19 C19         1.9610   -1.1010   -2.7900 ca        1 04K     -0.048500
     20 O20        -0.5120   -1.3110   -5.5460 os        1 04K     -0.350900
     21 C21        -0.4930   -2.7180   -5.8160 c3        1 04K      0.102400
     22 C22        -1.6800   -2.9880   -6.7450 c3        1 04K      0.099800
     23 N23        -1.6110   -2.2740   -8.0580 n4        1 04K     -0.691400
     24 C24        -0.6660   -2.9640   -9.0040 c3        1 04K      0.111300
     25 C25        -0.1400   -2.0580  -10.0970 c3        1 04K     -0.135600
     26 C26        -2.9810   -2.1520   -8.6710 c3        1 04K      0.111300
     27 C27        -3.8200   -1.0490   -8.0620 c3        1 04K     -0.135600
     28 O28         1.7720   -1.5650    5.2730 o         1 04K     -0.524500
     29 C29         3.0630   -1.8050    2.8850 c3        1 04K      0.058300
     30 C30        -0.0760   -0.9420    7.8110 ca        1 04K     -0.095000
     31 C31        -0.5520   -1.9770    8.6080 ca        1 04K     -0.151000
     32 C32        -1.5740   -2.8180    8.1250 ca        1 04K      0.149900
     33 C33        -2.1250   -2.6160    6.8430 ca        1 04K     -0.151000
     34 C34        -1.6540   -1.5770    6.0490 ca        1 04K     -0.095000
     35 F35        -2.0320   -3.8290    8.8970 f         1 04K     -0.119900
     36 H4         -0.5570    2.6200    1.3670 h4        1 04K      0.073100
     37 H10        -0.8800    1.8000    3.7530 ha        1 04K      0.188000
     38 HN13        3.4410    0.2980   -1.2540 hn        1 04K      0.480800
     39 H15         0.5970    2.0710   -2.7870 ha        1 04K      0.178500
     40 H16        -0.7230    1.0650   -4.6390 ha        1 04K      0.174000
     41 H18         1.3940   -2.7060   -4.1090 ha        1 04K      0.174000
     42 H19         2.7070   -1.7300   -2.2720 ha        1 04K      0.178500
     43 H21        -0.6490   -3.3070   -4.8720 h1        1 04K      0.085700
     44 H21A        0.4910   -2.9890   -6.2800 h1        1 04K      0.085700
     45 H22        -1.7390   -4.0970   -6.9410 hx        1 04K      0.121200
     46 H22A       -2.6270   -2.6560   -6.2240 hx        1 04K      0.121200
     47 H24        -1.2130   -3.8430   -9.4530 hx        1 04K      0.104950
     48 H24A        0.1990   -3.3560   -8.3960 hx        1 04K      0.104950
     49 H25        -0.9530   -1.6940  -10.7720 hc        1 04K      0.081367
     50 H25A        0.5810   -2.6510  -10.7170 hc        1 04K      0.081367
     51 H25B        0.4050   -1.1760   -9.6790 hc        1 04K      0.081367
     52 H26        -3.4970   -3.1490   -8.5590 hx        1 04K      0.104950
     53 H26A       -2.8380   -1.9460   -9.7720 hx        1 04K      0.104950
     54 H27        -3.3290   -0.0510   -8.1610 hc        1 04K      0.081367
     55 H27A       -4.0480   -1.2360   -6.9850 hc        1 04K      0.081367
     56 H27B       -4.7930   -1.0130   -8.6190 hc        1 04K      0.081367
     57 H29         3.2150   -2.4260    3.8110 h1        1 04K      0.076700
     58 H29A        4.0170   -1.2600    2.6530 h1        1 04K      0.076700
     59 H29B        2.8010   -2.4840    2.0300 h1        1 04K      0.076700
     60 H30         0.7220   -0.2740    8.1690 ha        1 04K      0.152000
     61 H31        -0.1370   -2.1460    9.6140 ha        1 04K      0.165500
     62 H33        -2.9270   -3.2790    6.4860 ha        1 04K      0.165500
     63 H34        -2.0830   -1.3990    5.0530 ha        1 04K      0.152000
     64 H132        2.8040    1.8090   -1.6270 hn        1 04K      0.480800
     65 H231       -1.2550   -1.3220   -7.8810 hn        1 04K      0.456800
@<TRIPOS>BOND
     1    1    2 ar  
     2    1    4 ar  
     3    2    3 ar  
     4    2   13 1   
     5    3    6 ar  
     6    4    5 ar  
     7    4   36 1   
     8    5    6 ar  
     9    5   10 1   
    10    6    7 1   
    11    7    8 1   
    12    7   29 1   
    13    8    9 1   
    14    8   28 2   
    15    9   10 2   
    16    9   11 1   
    17   10   37 1   
    18   11   12 1   
    19   12   30 ar  
    20   12   34 ar  
    21   13   14 1   
    22   13   38 1   
    23   13   64 1   
    24   14   15 ar  
    25   14   19 ar  
    26   15   16 ar  
    27   15   39 1   
    28   16   17 ar  
    29   16   40 1   
    30   17   18 ar  
    31   17   20 1   
    32   18   19 ar  
    33   18   41 1   
    34   19   42 1   
    35   20   21 1   
    36   21   22 1   
    37   21   43 1   
    38   21   44 1   
    39   22   23 1   
    40   22   45 1   
    41   22   46 1   
    42   23   24 1   
    43   23   26 1   
    44   23   65 1   
    45   24   25 1   
    46   24   47 1   
    47   24   48 1   
    48   25   49 1   
    49   25   50 1   
    50   25   51 1   
    51   26   27 1   
    52   26   52 1   
    53   26   53 1   
    54   27   54 1   
    55   27   55 1   
    56   27   56 1   
    57   29   57 1   
    58   29   58 1   
    59   29   59 1   
    60   30   31 ar  
    61   30   60 1   
    62   31   32 ar  
    63   31   61 1   
    64   32   33 ar  
    65   32   35 1   
    66   33   34 ar  
    67   33   62 1   
    68   34   63 1   
@<TRIPOS>SUBSTRUCTURE
     1 04K         1 TEMP              0 ****  ****    0 ROOT
