@<TRIPOS>MOLECULE
04K
   64    67     1     0     0
SMALL
bcc


@<TRIPOS>ATOM
      1 N1         -0.2030   -1.1150    0.1930 nb        1 04K     -0.763000
      2 C2          1.1250   -0.6860    0.1170 ca        1 04K      0.909900
      3 N3          1.8740   -0.2160    1.1710 nb        1 04K     -0.791000
      4 C4         -0.7580   -1.0770    1.4030 ca        1 04K      0.513200
      5 C5         -0.0890   -0.6390    2.5670 ca        1 04K     -0.393400
      6 C6          1.2730   -0.2010    2.4080 ca        1 04K      0.618200
      7 N7          1.9940    0.2470    3.5140 n         1 04K     -0.423300
      8 C8          1.3970    0.3070    4.8020 c         1 04K      0.692700
      9 C9         -0.0030   -0.1540    4.9190 cc        1 04K     -0.015100
     10 C10        -0.7100   -0.6090    3.8540 cd        1 04K     -0.026200
     11 O11        -0.6270    0.0440    6.1410 os        1 04K     -0.228200
     12 C12        -0.2790   -0.8520    7.1560 ca        1 04K      0.092100
     13 N13         1.8020   -0.7610   -1.1180 nh        1 04K     -0.718300
     14 C14         1.1340   -0.9320   -2.3460 ca        1 04K      0.152600
     15 C15         1.3870   -0.0280   -3.4060 ca        1 04K     -0.112500
     16 C16         0.8000   -0.2100   -4.6520 ca        1 04K     -0.136500
     17 C17        -0.0460   -1.3070   -4.8510 ca        1 04K      0.062100
     18 C18        -0.3060   -2.2190   -3.8240 ca        1 04K     -0.136500
     19 C19         0.2840   -2.0360   -2.5790 ca        1 04K     -0.112500
     20 O20        -0.5420   -1.4750   -6.1450 os        1 04K     -0.375900
     21 C21        -1.8790   -1.9710   -6.2100 c3        1 04K      0.108400
     22 C22        -2.4930   -1.4160   -7.5000 c3        1 04K      0.098800
     23 N23        -1.6610   -1.6830   -8.7190 n4        1 04K     -0.688400
     24 C24        -1.8270   -3.1000   -9.1870 c3        1 04K      0.111800
     25 C25        -0.6720   -3.5950  -10.0320 c3        1 04K     -0.132600
     26 C26        -1.9910   -0.7120   -9.8160 c3        1 04K      0.111800
     27 C27        -1.3550    0.6500   -9.6300 c3        1 04K     -0.132600
     28 O28         2.0640    0.7330    5.7570 o         1 04K     -0.575500
     29 C29         3.3610    0.6910    3.3500 c3        1 04K      0.067300
     30 C30        -0.3810   -0.3460    8.4610 ca        1 04K     -0.127500
     31 C31        -0.1450   -1.1950    9.5350 ca        1 04K     -0.140500
     32 C32         0.2040   -2.5400    9.3020 ca        1 04K      0.110900
     33 C33         0.3140   -3.0320    7.9890 ca        1 04K     -0.140500
     34 C34         0.0690   -2.1840    6.9130 ca        1 04K     -0.127500
     35 F35         0.4380   -3.3650   10.3500 f         1 04K     -0.136900
     36 H4         -1.8120   -1.4150    1.4620 h4        1 04K      0.036100
     37 H10        -1.7550   -0.9400    3.9570 ha        1 04K      0.163000
     38 HN13        2.6580   -0.2450   -1.1680 hn        1 04K      0.454800
     39 H15         2.0550    0.8360   -3.2560 ha        1 04K      0.161000
     40 H16         1.0010    0.4920   -5.4730 ha        1 04K      0.143000
     41 H18        -0.9650   -3.0830   -3.9940 ha        1 04K      0.143000
     42 H19         0.0830   -2.7680   -1.7800 ha        1 04K      0.161000
     43 H21        -1.8430   -3.0930   -6.2140 h1        1 04K      0.079700
     44 H21A       -2.4970   -1.6180   -5.3420 h1        1 04K      0.079700
     45 H22        -2.5950   -0.2970   -7.3980 hx        1 04K      0.108200
     46 H22A       -3.5120   -1.8680   -7.6520 hx        1 04K      0.108200
     47 H24        -1.9190   -3.7510   -8.2690 hx        1 04K      0.099950
     48 H24A       -2.7930   -3.1600   -9.7640 hx        1 04K      0.099950
     49 H25        -0.8680   -4.6690  -10.2860 hc        1 04K      0.078200
     50 H25A        0.2970   -3.5410   -9.4780 hc        1 04K      0.078200
     51 H25B       -0.5750   -3.0260  -10.9870 hc        1 04K      0.078200
     52 H26        -1.6280   -1.1620  -10.7860 hx        1 04K      0.099950
     53 H26A       -3.1130   -0.6190   -9.8670 hx        1 04K      0.099950
     54 H27        -0.2410    0.5810   -9.5730 hc        1 04K      0.078200
     55 H27A       -1.7300    1.1670   -8.7140 hc        1 04K      0.078200
     56 H27B       -1.6210    1.2780  -10.5180 hc        1 04K      0.078200
     57 H29         3.3990    1.5670    2.6500 h1        1 04K      0.067700
     58 H29A        3.7800    0.9980    4.3460 h1        1 04K      0.067700
     59 H29B        3.9840   -0.1440    2.9310 h1        1 04K      0.067700
     60 H30        -0.6460    0.7090    8.6200 ha        1 04K      0.151000
     61 H31        -0.2210   -0.8240   10.5680 ha        1 04K      0.154500
     62 H33         0.5910   -4.0830    7.8210 ha        1 04K      0.154500
     63 H34         0.1540   -2.5570    5.8820 ha        1 04K      0.151000
     64 H231       -0.6720   -1.5450   -8.4520 hn        1 04K      0.466800
@<TRIPOS>BOND
     1    1    2 ar  
     2    1    4 ar  
     3    2    3 ar  
     4    2   13 1   
     5    3    6 ar  
     6    4    5 ar  
     7    4   36 1   
     8    5    6 ar  
     9    5   10 1   
    10    6    7 1   
    11    7    8 1   
    12    7   29 1   
    13    8    9 1   
    14    8   28 2   
    15    9   10 2   
    16    9   11 1   
    17   10   37 1   
    18   11   12 1   
    19   12   30 ar  
    20   12   34 ar  
    21   13   14 1   
    22   13   38 1   
    23   14   15 ar  
    24   14   19 ar  
    25   15   16 ar  
    26   15   39 1   
    27   16   17 ar  
    28   16   40 1   
    29   17   18 ar  
    30   17   20 1   
    31   18   19 ar  
    32   18   41 1   
    33   19   42 1   
    34   20   21 1   
    35   21   22 1   
    36   21   43 1   
    37   21   44 1   
    38   22   23 1   
    39   22   45 1   
    40   22   46 1   
    41   23   24 1   
    42   23   26 1   
    43   23   64 1   
    44   24   25 1   
    45   24   47 1   
    46   24   48 1   
    47   25   49 1   
    48   25   50 1   
    49   25   51 1   
    50   26   27 1   
    51   26   52 1   
    52   26   53 1   
    53   27   54 1   
    54   27   55 1   
    55   27   56 1   
    56   29   57 1   
    57   29   58 1   
    58   29   59 1   
    59   30   31 ar  
    60   30   60 1   
    61   31   32 ar  
    62   31   61 1   
    63   32   33 ar  
    64   32   35 1   
    65   33   34 ar  
    66   33   62 1   
    67   34   63 1   
@<TRIPOS>SUBSTRUCTURE
     1 04K         1 TEMP              0 ****  ****    0 ROOT
