@<TRIPOS>MOLECULE
04K
   63    66     1     0     0
SMALL
bcc


@<TRIPOS>ATOM
      1 N1          0.0950    0.1610   -0.4590 nb        1 04K     -0.745000
      2 C2          0.0940   -1.0150    0.3090 ca        1 04K      0.919900
      3 N3          1.2060   -1.7840    0.5830 nb        1 04K     -0.809000
      4 C4          1.2750    0.5510   -0.9250 ca        1 04K      0.516200
      5 C5          2.4910   -0.1380   -0.6910 ca        1 04K     -0.419400
      6 C6          2.4100   -1.3400    0.0950 ca        1 04K      0.621200
      7 N7          3.5700   -2.0720    0.3640 n         1 04K     -0.425300
      8 C8          4.8300   -1.6600   -0.1410 c         1 04K      0.697700
      9 C9          4.8610   -0.4220   -0.9430 cc        1 04K     -0.046100
     10 C10         3.7450    0.3060   -1.2040 cd        1 04K     -0.002200
     11 O11         6.0670   -0.1140   -1.5600 os        1 04K     -0.226200
     12 C12         7.0110    0.5390   -0.7690 ca        1 04K      0.105100
     13 N13        -1.1010   -1.4330    0.9070 nh        1 04K     -0.700300
     14 C14        -2.3680   -0.9850    0.4570 ca        1 04K      0.078600
     15 C15        -3.3140   -1.9230   -0.0200 ca        1 04K     -0.092500
     16 C16        -4.5850   -1.5170   -0.3920 ca        1 04K     -0.174000
     17 C17        -4.9350   -0.1550   -0.3070 ca        1 04K      0.133100
     18 C18        -4.0090    0.7830    0.1600 ca        1 04K     -0.174000
     19 C19        -2.7350    0.3700    0.5440 ca        1 04K     -0.092500
     20 O20        -6.2140    0.1390   -0.7250 os        1 04K     -0.321900
     21 C21        -6.6400    1.4950   -0.5360 c3        1 04K      0.126400
     22 C22        -8.1110    1.5290   -0.9790 c3        1 04K      0.173800
     23 N23        -9.0440    1.2950    0.1100 n3        1 04K     -0.746600
     24 C24        -9.2920    2.4910    0.9040 c3        1 04K      0.178300
     25 C25        -9.7360    2.2040    2.3300 c3        1 04K     -0.094100
     26 C26       -10.2640    0.6200   -0.3080 c3        1 04K      0.178300
     27 C27       -10.0770   -0.8590   -0.6080 c3        1 04K     -0.094100
     28 O28         5.8370   -2.3430    0.1110 o         1 04K     -0.595500
     29 C29         3.4860   -3.2860    1.1460 c3        1 04K      0.069300
     30 C30         8.3290    0.4760   -1.2520 ca        1 04K     -0.136500
     31 C31         9.3320    1.1550   -0.5730 ca        1 04K     -0.137500
     32 C32         9.0210    1.8870    0.5900 ca        1 04K      0.097900
     33 C33         7.7000    1.9350    1.0690 ca        1 04K     -0.137500
     34 C34         6.6940    1.2610    0.3860 ca        1 04K     -0.136500
     35 F35        10.0030    2.5470    1.2520 f         1 04K     -0.142900
     36 H4          1.2730    1.4760   -1.5340 h4        1 04K      0.033100
     37 H10         3.7850    1.2230   -1.8140 ha        1 04K      0.158000
     38 HN13       -1.0960   -2.3610    1.2820 hn        1 04K      0.446800
     39 H15        -3.0510   -2.9900   -0.0960 ha        1 04K      0.144000
     40 H16        -5.3260   -2.2430   -0.7580 ha        1 04K      0.147000
     41 H18        -4.2680    1.8490    0.2310 ha        1 04K      0.147000
     42 H19        -2.0190    1.1220    0.9140 ha        1 04K      0.144000
     43 H21        -6.5010    1.7920    0.5350 h1        1 04K      0.045200
     44 H21A       -6.0300    2.1630   -1.2000 h1        1 04K      0.045200
     45 H22        -8.2860    2.5300   -1.4710 h1        1 04K      0.048700
     46 H22A       -8.2500    0.7320   -1.7640 h1        1 04K      0.048700
     47 H24        -8.3310    3.0810    0.9530 h1        1 04K      0.026950
     48 H24A      -10.0640    3.1550    0.4130 h1        1 04K      0.026950
     49 H25       -10.7450    1.7290    2.3570 hc        1 04K      0.040033
     50 H25A       -9.0140    1.5270    2.8460 hc        1 04K      0.040033
     51 H25B       -9.7850    3.1700    2.8890 hc        1 04K      0.040033
     52 H26       -11.0150    0.7130    0.5270 h1        1 04K      0.026950
     53 H26A      -10.7150    1.1180   -1.2180 h1        1 04K      0.026950
     54 H27        -9.4080   -1.0200   -1.4870 hc        1 04K      0.040033
     55 H27A       -9.6380   -1.3920    0.2690 hc        1 04K      0.040033
     56 H27B      -11.0750   -1.3050   -0.8370 hc        1 04K      0.040033
     57 H29         2.8220   -4.0290    0.6290 h1        1 04K      0.064700
     58 H29A        4.5110   -3.7290    1.2660 h1        1 04K      0.064700
     59 H29B        3.0620   -3.0570    2.1600 h1        1 04K      0.064700
     60 H30         8.5510   -0.1080   -2.1560 ha        1 04K      0.151500
     61 H31        10.3710    1.1210   -0.9320 ha        1 04K      0.151000
     62 H33         7.4710    2.5050    1.9810 ha        1 04K      0.151000
     63 H34         5.6580    1.2890    0.7560 ha        1 04K      0.151500
@<TRIPOS>BOND
     1    1    2 ar  
     2    1    4 ar  
     3    2    3 ar  
     4    2   13 1   
     5    3    6 ar  
     6    4    5 ar  
     7    4   36 1   
     8    5    6 ar  
     9    5   10 1   
    10    6    7 1   
    11    7    8 1   
    12    7   29 1   
    13    8    9 1   
    14    8   28 2   
    15    9   10 2   
    16    9   11 1   
    17   10   37 1   
    18   11   12 1   
    19   12   30 ar  
    20   12   34 ar  
    21   13   14 1   
    22   13   38 1   
    23   14   15 ar  
    24   14   19 ar  
    25   15   16 ar  
    26   15   39 1   
    27   16   17 ar  
    28   16   40 1   
    29   17   18 ar  
    30   17   20 1   
    31   18   19 ar  
    32   18   41 1   
    33   19   42 1   
    34   20   21 1   
    35   21   22 1   
    36   21   43 1   
    37   21   44 1   
    38   22   23 1   
    39   22   45 1   
    40   22   46 1   
    41   23   24 1   
    42   23   26 1   
    43   24   25 1   
    44   24   47 1   
    45   24   48 1   
    46   25   49 1   
    47   25   50 1   
    48   25   51 1   
    49   26   27 1   
    50   26   52 1   
    51   26   53 1   
    52   27   54 1   
    53   27   55 1   
    54   27   56 1   
    55   29   57 1   
    56   29   58 1   
    57   29   59 1   
    58   30   31 ar  
    59   30   60 1   
    60   31   32 ar  
    61   31   61 1   
    62   32   33 ar  
    63   32   35 1   
    64   33   34 ar  
    65   33   62 1   
    66   34   63 1   
@<TRIPOS>SUBSTRUCTURE
     1 04K         1 TEMP              0 ****  ****    0 ROOT
