@<TRIPOS>MOLECULE
04K
   63    59     1     0     0
SMALL
bcc


@<TRIPOS>ATOM
      1 N1         -0.6850   -0.0660    3.0490 n1        1 04K     -0.219000
      2 C2          0.5740   -0.1560    2.4800 c1        1 04K      0.201000
      3 N3          1.5880    0.6960    2.8970 n1        1 04K     -0.283000
      4 C4         -0.9270    0.8460    4.0070 c1        1 04K      0.051000
      5 C5          0.0850    1.7000    4.4260 c1        1 04K     -0.276000
      6 C6          1.3510    1.6080    3.8520 c1        1 04K      0.213000
      7 N7          2.4830    2.4820    4.3650 n         1 04K     -0.241000
      8 C8          2.2210    3.4900    5.3770 c2        1 04K      0.336000
      9 C9          0.8600    3.6620    5.9050 c2        1 04K     -0.070000
     10 C10        -0.2220    2.8160    5.4080 c2        1 04K     -0.015000
     11 O11         0.6020    4.6330    6.8640 os        1 04K     -0.137000
     12 C12         0.4400    5.8790    6.2320 c2        1 04K      0.060000
     13 N13         0.9760   -1.2950    1.6480 n3        1 04K     -0.222000
     14 C14         0.2800   -1.5620    0.4070 c2        1 04K      0.002000
     15 C15         0.4750   -0.7380   -0.6840 c2        1 04K     -0.120000
     16 C16        -0.1470   -1.0260   -1.8910 c1        1 04K     -0.194000
     17 C17        -0.9610   -2.1390   -2.0010 c1        1 04K      0.087000
     18 C18        -1.1550   -2.9650   -0.9060 c1        1 04K     -0.153000
     19 C19        -0.5360   -2.6780    0.2970 c1        1 04K     -0.068000
     20 O20        -1.6150   -2.4410   -3.2680 os        1 04K     -0.216000
     21 C21        -0.8720   -3.3680   -4.1090 c3        1 04K     -0.024000
     22 C22        -1.8230   -3.9980   -5.1460 c3        1 04K     -0.068000
     23 N23        -1.0570   -4.4590   -6.2940 n3        1 04K     -0.273000
     24 C24        -0.6620   -5.8690   -6.0870 c3        1 04K     -0.062000
     25 C25         0.3770   -6.2680   -7.1400 c3        1 04K     -0.212500
     26 C26        -1.8690   -4.3610   -7.4840 c3        1 04K     -0.062000
     27 C27        -1.4110   -3.1780   -8.3190 c3        1 04K     -0.212500
     28 O28         3.1190    4.1860    5.7830 o         1 04K     -0.320000
     29 C29         3.8020    2.2880    3.8840 c3        1 04K     -0.086000
     30 C30        -0.5470    6.4760    7.0300 c2        1 04K     -0.115000
     31 C31        -0.9760    7.7570    6.7530 c1        1 04K     -0.139000
     32 C32        -0.4230    8.4650    5.6670 c1        1 04K      0.063000
     33 C33         0.5540    7.8730    4.8770 c1        1 04K     -0.137000
     34 C34         0.9870    6.5800    5.1570 c1        1 04K     -0.158000
     35 F35        -0.7660    9.7520    5.4610 f         1 04K     -0.108000
     36 H4         -1.8180    0.9080    4.4100 ha        1 04K      0.171000
     37 H10        -1.1390    2.9280    5.7600 ha        1 04K      0.158000
     38 HN13        1.7210   -1.7520    1.8490 hn        1 04K      0.242000
     39 H15         1.0570    0.0590   -0.6040 ha        1 04K      0.135000
     40 H16        -0.0100   -0.4440   -2.6620 ha        1 04K      0.144000
     41 H18        -1.7400   -3.7640   -0.9850 ha        1 04K      0.154000
     42 H19        -0.6750   -3.2670    1.0770 ha        1 04K      0.155000
     43 H21        -0.1520   -2.8830   -4.5760 h1        1 04K      0.086500
     44 H21A       -0.4780   -4.0800   -3.5460 h1        1 04K      0.086500
     45 H22        -2.2900   -4.7550   -4.7430 h1        1 04K      0.088500
     46 H22A       -2.4800   -3.3250   -5.4390 h1        1 04K      0.088500
     47 H24        -0.2790   -5.9740   -5.1940 h1        1 04K      0.070000
     48 H24A       -1.4540   -6.4480   -6.1740 h1        1 04K      0.070000
     49 H25        -0.0730   -6.7290   -7.8890 hc        1 04K      0.078667
     50 H25A        1.0440   -6.8740   -6.7320 hc        1 04K      0.078667
     51 H25B        0.8290   -5.4620   -7.4760 hc        1 04K      0.078667
     52 H26        -1.7780   -5.1850   -8.0080 h1        1 04K      0.070000
     53 H26A       -2.8110   -4.2370   -7.2290 h1        1 04K      0.070000
     54 H27        -0.4480   -3.0820   -8.2450 hc        1 04K      0.078667
     55 H27A       -1.6530   -3.3290   -9.2550 hc        1 04K      0.078667
     56 H27B       -1.8430   -2.3690   -8.0000 hc        1 04K      0.078667
     57 H29         4.1220    1.4200    4.1630 h1        1 04K      0.104333
     58 H29A        4.4010    3.0010    4.2570 h1        1 04K      0.104333
     59 H29B        3.8050    2.3370    2.9270 h1        1 04K      0.104333
     60 H30        -0.9390    5.9730    7.8000 ha        1 04K      0.158000
     61 H31        -1.6880    8.1880    7.3290 ha        1 04K      0.152000
     62 H33         0.9440    8.3720    4.1100 ha        1 04K      0.150000
     63 H34         1.7040    6.1460    4.5780 ha        1 04K      0.145000
@<TRIPOS>BOND
     1    1    4 1   
     2    2    3 1   
     3    2   13 1   
     4    4   36 1   
     5    5    6 1   
     6    5   10 1   
     7    6    7 1   
     8    7    8 1   
     9    7   29 1   
    10    8    9 1   
    11    8   28 1   
    12    9   10 1   
    13    9   11 1   
    14   10   37 1   
    15   11   12 1   
    16   12   30 1   
    17   12   34 1   
    18   13   14 1   
    19   13   38 1   
    20   14   15 1   
    21   14   19 1   
    22   15   16 1   
    23   15   39 1   
    24   16   40 1   
    25   17   18 1   
    26   17   20 1   
    27   18   41 1   
    28   19   42 1   
    29   20   21 1   
    30   21   22 1   
    31   21   43 1   
    32   21   44 1   
    33   22   23 1   
    34   22   45 1   
    35   22   46 1   
    36   23   24 1   
    37   23   26 1   
    38   24   25 1   
    39   24   47 1   
    40   24   48 1   
    41   25   49 1   
    42   25   50 1   
    43   25   51 1   
    44   26   27 1   
    45   26   52 1   
    46   26   53 1   
    47   27   54 1   
    48   27   55 1   
    49   27   56 1   
    50   29   57 1   
    51   29   58 1   
    52   29   59 1   
    53   30   31 1   
    54   30   60 1   
    55   31   61 1   
    56   32   33 1   
    57   32   35 1   
    58   33   62 1   
    59   34   63 1   
@<TRIPOS>SUBSTRUCTURE
     1 04K         1 TEMP              0 ****  ****    0 ROOT
