@<TRIPOS>MOLECULE
04L
   59    50     1     0     0
SMALL
bcc


@<TRIPOS>ATOM
      1 C1         -2.4300   -0.2940   -6.5610 c2        1 04L      0.067000
      2 N2         -1.1820   -0.8360   -6.4810 n2        1 04L     -0.172500
      3 N3         -2.8760   -0.0710   -5.2920 n2        1 04L     -0.172500
      4 C4         -0.8550   -0.9490   -5.1650 c1        1 04L     -0.051000
      5 C5         -1.2430   -1.5070   -0.0340 c1        1 04L      0.356000
      6 C6         -1.9060   -0.4750   -4.4280 c1        1 04L     -0.051000
      7 C7         -0.8950   -1.3920    1.4580 c2        1 04L     -0.103000
      8 N8          0.2720   -1.4480   -4.5260 n1        1 04L     -0.111000
      9 N9         -0.4210   -0.8560   -1.0150 n2        1 04L     -0.320000
     10 C10        -1.8430   -0.4930   -3.0380 c1        1 04L     -0.069000
     11 C11         2.0620    0.8570    4.4600 c1        1 04L      0.342000
     12 C12         2.9570    2.0920    4.4250 c2        1 04L     -0.198000
     13 N13         1.4580    0.3780    3.2480 n2        1 04L     -0.321000
     14 C14        -0.7310   -0.9850   -2.4100 c2        1 04L      0.003000
     15 C15         3.8420    2.3240    5.4410 c1        1 04L     -0.074000
     16 C16         0.1820   -0.6560    1.9400 c1        1 04L     -0.160000
     17 C17        -3.1720    0.2410   -7.6220 c1        1 04L     -0.036000
     18 O18        -2.2020   -2.1700   -0.3860 o         1 04L     -0.335000
     19 C19        -1.6570   -2.1650    2.3320 c2        1 04L     -0.047000
     20 C20         0.5000   -0.6910    3.2970 c1        1 04L      0.072000
     21 O21         1.7600    0.3550    5.5290 o         1 04L     -0.347000
     22 C22         0.3340   -1.4670   -3.1620 c2        1 04L     -0.096000
     23 C23        -1.3400   -2.2000    3.6870 c1        1 04L     -0.113000
     24 C24        -0.2610   -1.4620    4.1690 c1        1 04L     -0.132000
     25 C25         3.9340    1.3490    6.6090 c1        1 04L     -0.085000
     26 C26        -2.8830   -2.9200    1.8140 c3        1 04L     -0.192000
     27 C27        -2.5680    1.2580   -8.3530 c1        1 04L     -0.124667
     28 C28        -4.3810   -0.2980   -8.0470 c1        1 04L     -0.081000
     29 C29         5.2870    1.3350    6.2830 c2        1 04L     -0.114000
     30 C30         3.5340    1.6660    7.9030 c1        1 04L     -0.111000
     31 C31        -3.1740    1.7360   -9.5090 c1        1 04L     -0.124667
     32 C32        -4.9870    0.1800   -9.2030 c1        1 04L     -0.124667
     33 C33         6.2390    1.6380    7.2510 c1        1 04L     -0.131000
     34 C34         4.4860    1.9690    8.8710 c1        1 04L     -0.124667
     35 C35        -4.3830    1.1980   -9.9350 c1        1 04L     -0.124667
     36 C36         5.8390    1.9550    8.5450 c1        1 04L     -0.124667
     37 HN9         0.2990   -0.3560   -0.7510 hn        1 04L      0.235000
     38 H10        -2.5860   -0.1340   -2.5090 ha        1 04L      0.193000
     39 H12         2.8980    2.7200    3.6740 ha        1 04L      0.162000
     40 HN13        1.7010    0.7380    2.4430 hn        1 04L      0.239000
     41 H15         4.4170    3.1170    5.4190 ha        1 04L      0.140000
     42 H16         0.7130   -0.1060    1.3270 ha        1 04L      0.139000
     43 H22         1.1400   -1.8000   -2.7120 h4        1 04L      0.157000
     44 H23        -1.8750   -2.7430    4.3020 ha        1 04L      0.142000
     45 H24        -0.0380   -1.4860    5.1240 ha        1 04L      0.176000
     46 H26        -3.3640   -3.3250    2.5720 hc        1 04L      0.095000
     47 H26A       -2.5940   -3.6270    1.1940 hc        1 04L      0.095000
     48 H26B       -3.4790   -2.2940    1.3440 hc        1 04L      0.095000
     49 H27        -1.7160    1.6380   -8.0530 ha        1 04L      0.136333
     50 H28        -4.8070   -1.0160   -7.5300 ha        1 04L      0.158000
     51 H29         5.5700    1.1110    5.3680 ha        1 04L      0.136000
     52 H30         2.5780    1.6760    8.1330 ha        1 04L      0.146000
     53 H31        -2.7490    2.4520  -10.0230 ha        1 04L      0.136333
     54 H32        -5.8420   -0.2000   -9.5040 ha        1 04L      0.136333
     55 H33         7.1940    1.6280    7.0210 ha        1 04L      0.138000
     56 H34         4.2040    2.1920    9.7800 ha        1 04L      0.136333
     57 H35        -4.8110    1.5350  -10.7500 ha        1 04L      0.136333
     58 H36         6.5080    2.1680    9.2260 ha        1 04L      0.136333
     59 HN2        -0.6550   -1.0820   -7.1890 DU        1 04L      0.266000
@<TRIPOS>BOND
     1    1    2 1   
     2    1    3 1   
     3    1   17 1   
     4    2    4 1   
     5    3    6 1   
     6    4    6 1   
     7    5    7 1   
     8    5   18 1   
     9    7   16 1   
    10    7   19 1   
    11    8   22 1   
    12    9   14 1   
    13    9   37 1   
    14   10   14 1   
    15   10   38 1   
    16   11   12 1   
    17   11   21 1   
    18   12   15 1   
    19   12   39 1   
    20   13   20 1   
    21   13   40 1   
    22   14   22 1   
    23   15   41 1   
    24   16   42 1   
    25   17   28 1   
    26   19   23 1   
    27   19   26 1   
    28   20   24 1   
    29   22   43 1   
    30   23   44 1   
    31   24   45 1   
    32   25   29 1   
    33   25   30 1   
    34   26   46 1   
    35   26   47 1   
    36   26   48 1   
    37   27   31 1   
    38   27   49 1   
    39   28   50 1   
    40   29   33 1   
    41   29   51 1   
    42   30   52 1   
    43   31   53 1   
    44   32   35 1   
    45   32   54 1   
    46   33   55 1   
    47   34   36 1   
    48   34   56 1   
    49   35   57 1   
    50   36   58 1   
@<TRIPOS>SUBSTRUCTURE
     1 04L         1 TEMP              0 ****  ****    0 ROOT
