@<TRIPOS>MOLECULE
04L
   61    62     1     0     0
SMALL
bcc


@<TRIPOS>ATOM
      1 C1          0.4310    0.4580    0.8420 c2        1 04L      0.130000
      2 N2          1.0490    1.7370    0.9740 na        1 04L     -0.209000
      3 N3         -0.2410    0.0860    1.9620 n2        1 04L     -0.135000
      4 C4          0.7420    2.2040    2.2470 c2        1 04L      0.052000
      5 C5          0.3860    2.8120    7.1680 c2        1 04L      0.304000
      6 C6         -0.0830    1.1440    2.8650 c2        1 04L     -0.086000
      7 C7          0.3640    1.6740    8.1020 c2        1 04L     -0.153000
      8 N8          1.0870    3.3680    2.8680 n2        1 04L     -0.087000
      9 C10        -0.5560    1.3450    4.1570 c2        1 04L     -0.020000
     10 C11         3.5260    1.1860   11.1200 c2        1 04L      0.305000
     11 C12         4.7580    0.6130   11.8270 c3        1 04L     -0.248000
     12 C14        -0.2040    2.5580    4.7790 c2        1 04L     -0.247000
     13 C15         5.6490    1.6720   12.3160 c2        1 04L      0.196000
     14 C16         1.2410    1.7010    9.1310 c2        1 04L     -0.002000
     15 C17         0.5550   -0.3030   -0.3950 c2        1 04L     -0.192000
     16 O18         1.1690    3.7540    7.1580 o         1 04L     -0.192000
     17 C19        -0.6260    0.6170    7.9090 c2        1 04L     -0.221000
     18 C20         1.2680    0.6270   10.1970 c3        1 04L      0.175000
     19 O21         3.4280    2.4160   10.9530 o         1 04L     -0.347000
     20 C22         0.6140    3.5180    4.1060 c2        1 04L     -0.020000
     21 C23        -0.3490    1.3560   12.1640 c1        1 04L     -0.079000
     22 C24         0.3910    1.0390   11.2790 c1        1 04L     -0.279000
     23 C25         6.8200    1.4420   13.0260 c2        1 04L     -0.222000
     24 C26        -0.4940   -0.3950    7.0500 c2        1 04L     -0.148000
     25 C27        -1.4320   -2.8480   -6.8560 c1        1 04L     -0.154000
     26 C28        -0.0690   -1.4680   -0.6000 c2        1 04L     -0.094000
     27 C29         7.2820    0.0970   13.3510 c2        1 04L     -0.064000
     28 C30         7.5930    2.5380   13.4530 c2        1 04L      0.176000
     29 C31        -0.7780   -3.1690   -5.9060 c1        1 04L     -0.133000
     30 C32         0.0790   -2.9940   -3.6250 c1        1 04L      0.164000
     31 C33         8.4260   -0.1070   14.0450 c2        1 04L     -0.177000
     32 C34         8.8280    2.3330   14.2060 c3        1 04L     -0.300000
     33 C35        -0.0070   -3.5620   -4.8100 c2        1 04L     -0.320000
     34 C36         9.2540    0.9700   14.5070 c1        1 04L      0.039000
     35 HN9        -1.0990    3.8140    6.0990 hn        1 04L      0.262500
     36 H10        -1.1790    0.5810    4.6510 ha        1 04L      0.166000
     37 H12         4.4340   -0.0410   12.6910 hc        1 04L      0.183500
     38 HN13        2.7060   -0.6740   10.9310 hn        1 04L      0.243000
     39 H15         5.3240   -0.0560   11.1100 hc        1 04L      0.183500
     40 H16         1.9570    2.5390    9.2540 ha        1 04L      0.195000
     41 H22         0.9100    4.4640    4.6050 h4        1 04L      0.191000
     42 H23        -1.5040    0.6880    8.5790 ha        1 04L      0.158000
     43 H24         0.8390   -0.3330    9.7490 h1        1 04L      0.146000
     44 H26        -1.2610   -1.1820    6.9630 ha        1 04L      0.145000
     45 H26A       -1.0130    1.6350   12.9490 ha        1 04L      0.251000
     46 H26B        0.3750   -0.5190    6.3880 ha        1 04L      0.145000
     47 H27         1.2000    0.1450   -1.1710 ha        1 04L      0.152000
     48 H28        -0.7210   -1.9450    0.1450 ha        1 04L      0.157500
     49 H29         6.6590   -0.7460   13.0040 ha        1 04L      0.154000
     50 H30         7.2730    3.5740   13.2220 ha        1 04L      0.173000
     51 H31        -2.0120   -2.5650   -7.6990 ha        1 04L      0.237000
     52 H32         0.0430   -2.0160   -1.5560 ha        1 04L      0.157500
     53 H33         8.7730   -1.1300   14.2890 ha        1 04L      0.200000
     54 H34         9.7000    2.8540   13.6770 hc        1 04L      0.242500
     55 H35         0.6120   -4.4810   -4.9720 ha        1 04L      0.213000
     56 H36         8.7790    2.9010   15.1990 hc        1 04L      0.242500
     57 HN2         1.5720    2.2130    0.2800 hn        1 04L      0.293000
     58 N9         -0.7070    2.8610    6.1170 n4        1 04L     -0.024000
     59 N13         2.6120    0.2730   10.6340 n         1 04L     -0.344000
     60 H92        -1.4520    2.1950    6.3590 hn        1 04L      0.262500
     61 H132        5.3380    2.7200   12.0850 ha        1 04L      0.203000
@<TRIPOS>BOND
     1    1    2 1   
     2    1    3 1   
     3    1   15 1   
     4    2    4 1   
     5    2   57 1   
     6    3    6 1   
     7    4    6 1   
     8    4    8 1   
     9    5    7 1   
    10    5   16 1   
    11    5   58 1   
    12    6    9 1   
    13    7   14 1   
    14    7   17 1   
    15    8   20 1   
    16    9   12 1   
    17    9   36 1   
    18   10   11 1   
    19   10   19 1   
    20   10   59 1   
    21   11   13 1   
    22   11   37 1   
    23   11   39 1   
    24   12   20 1   
    25   12   58 1   
    26   13   23 1   
    27   13   61 1   
    28   14   18 1   
    29   14   40 1   
    30   15   26 1   
    31   15   47 1   
    32   17   24 1   
    33   17   42 1   
    34   18   22 1   
    35   18   43 1   
    36   18   59 1   
    37   20   41 1   
    38   21   22 1   
    39   21   45 1   
    40   23   27 1   
    41   23   28 1   
    42   24   44 1   
    43   24   46 1   
    44   25   29 1   
    45   25   51 1   
    46   26   48 1   
    47   26   52 1   
    48   27   31 1   
    49   27   49 1   
    50   28   32 1   
    51   28   50 1   
    52   29   33 1   
    53   30   33 1   
    54   31   34 1   
    55   31   53 1   
    56   32   34 1   
    57   32   54 1   
    58   32   56 1   
    59   33   55 1   
    60   35   58 1   
    61   38   59 1   
    62   58   60 1   
@<TRIPOS>SUBSTRUCTURE
     1 04L         1 TEMP              0 ****  ****    0 ROOT
