@<TRIPOS>MOLECULE
04L
   59    61     1     0     0
SMALL
bcc


@<TRIPOS>ATOM
      1 C1          1.6970    1.1870    0.0910 c2        1 04L      0.069000
      2 N2          2.6860    2.0040    0.6880 na        1 04L     -0.223000
      3 N3          0.9710    0.4900    1.0020 n2        1 04L     -0.153000
      4 C4          2.5740    1.8130    2.0740 c2        1 04L     -0.024000
      5 C5          0.6840   -0.1410    6.4860 c2        1 04L      0.350000
      6 C6          1.4870    0.8520    2.2540 c2        1 04L     -0.074000
      7 C7          0.6860   -0.2430    7.9820 c2        1 04L     -0.232000
      8 N8          3.2880    2.3660    3.0940 n2        1 04L     -0.110000
      9 C10         1.1440    0.4610    3.5550 c2        1 04L     -0.078000
     10 C11         3.3320    0.4910   10.0070 c2        1 04L      0.236000
     11 C12         4.1720    1.6620   10.4180 c3        1 04L     -0.159000
     12 C14         1.8730    1.0240    4.6130 c2        1 04L      0.012000
     13 C15         4.5930    1.5070   11.8020 c1        1 04L     -0.110000
     14 C16         1.9720   -0.7210    8.5430 c3        1 04L      0.063000
     15 C17         1.5330    1.1430   -1.3600 c2        1 04L     -0.143000
     16 O18        -0.1080   -0.7760    5.7700 o         1 04L     -0.332000
     17 C19        -0.4120    0.0530    8.6990 c2        1 04L      0.008000
     18 C20         2.0390   -1.4740    9.9240 c3        1 04L      0.199000
     19 O21         2.8460    0.4850    8.7380 os        1 04L     -0.231000
     20 C22         2.9250    1.9660    4.3120 c2        1 04L     -0.102000
     21 C23        -0.1490   -1.9550   11.3160 c1        1 04L     -0.064000
     22 C24         0.8580   -1.6950   10.6500 c1        1 04L     -0.756000
     23 C25         5.3630    2.4530   12.5050 c2        1 04L     -0.210000
     24 C26        -1.7090    0.4700    8.1360 c3        1 04L     -0.222000
     25 C27        -2.2910   -3.4900   -1.4280 c1        1 04L     -0.208000
     26 C28         0.5900    0.4210   -1.9680 c2        1 04L     -0.143000
     27 C29         5.8600    3.6900   11.9290 c2        1 04L     -0.031000
     28 C30         5.6520    2.1710   13.8230 c2        1 04L      0.086000
     29 C31        -2.1710   -2.4910   -0.7800 c1        1 04L     -0.096000
     30 C32        -2.8610   -0.3290    0.1450 c1        1 04L      0.233000
     31 C33         6.6000    4.5660   12.6590 c2        1 04L     -0.231000
     32 C34         6.4450    3.1010   14.6460 c3        1 04L     -0.257000
     33 C35        -2.0200   -1.3320   -0.0180 c2        1 04L     -0.384000
     34 C36         6.9290    4.3300   14.0240 c1        1 04L     -0.050000
     35 HN9         2.2180    1.2070    6.6170 hn        1 04L      0.234000
     36 H10         0.3290   -0.2640    3.7210 ha        1 04L      0.193000
     37 H12         5.0520    1.7250    9.7130 hc        1 04L      0.157500
     38 HN13        3.1560   -0.6970   11.6740 hn        1 04L      0.299000
     39 H15         3.5540    2.5950   10.2620 hc        1 04L      0.157500
     40 H16         2.5330   -1.3240    7.7760 h1        1 04L      0.127000
     41 H22         3.5110    2.4250    5.1310 h4        1 04L      0.152000
     42 H23        -0.3950   -0.0400    9.8070 ha        1 04L      0.188000
     43 H24         2.6180   -2.4330    9.7500 h1        1 04L      0.111000
     44 H26        -2.0270    1.4400    8.5940 hc        1 04L      0.105333
     45 H26A       -2.4770   -0.3060    8.3940 hc        1 04L      0.105333
     46 H26B       -1.6870    0.5820    7.0240 hc        1 04L      0.105333
     47 H27         2.2490    1.7520   -1.9380 ha        1 04L      0.131000
     48 H28        -0.1440   -0.1980   -1.4290 ha        1 04L      0.132500
     49 H29         5.6090    3.8850   10.8720 ha        1 04L      0.130000
     50 H30         5.2850    1.2360   14.2840 ha        1 04L      0.162000
     51 H31        -2.4000   -4.3760   -2.0000 ha        1 04L      0.226000
     52 H32         0.4960    0.4110   -3.0630 ha        1 04L      0.132500
     53 H33         6.9730    5.5020   12.2100 ha        1 04L      0.160000
     54 H34         5.8420    3.4060   15.5580 hc        1 04L      0.189000
     55 H35        -1.0520   -1.2480    0.5420 ha        1 04L      0.230000
     56 H36         7.3500    2.5590   15.0640 hc        1 04L      0.189000
     57 HN2         3.3190    2.6010    0.2280 hn        1 04L      0.266000
     58 N9          1.6440    0.7220    5.9620 n         1 04L     -0.326000
     59 N13         2.9930   -0.5820   10.6950 n3        1 04L     -0.188000
@<TRIPOS>BOND
     1    1    2 1   
     2    1    3 1   
     3    1   15 1   
     4    2    4 1   
     5    2   57 1   
     6    3    6 1   
     7    4    6 1   
     8    4    8 1   
     9    5    7 1   
    10    5   16 1   
    11    5   58 1   
    12    6    9 1   
    13    7   14 1   
    14    7   17 1   
    15    8   20 1   
    16    9   12 1   
    17    9   36 1   
    18   10   11 1   
    19   10   19 1   
    20   10   59 1   
    21   11   13 1   
    22   11   37 1   
    23   11   39 1   
    24   12   20 1   
    25   12   58 1   
    26   13   23 1   
    27   14   18 1   
    28   14   19 1   
    29   14   40 1   
    30   15   26 1   
    31   15   47 1   
    32   17   24 1   
    33   17   42 1   
    34   18   22 1   
    35   18   43 1   
    36   18   59 1   
    37   20   41 1   
    38   21   22 1   
    39   23   27 1   
    40   23   28 1   
    41   24   44 1   
    42   24   45 1   
    43   24   46 1   
    44   25   29 1   
    45   25   51 1   
    46   26   48 1   
    47   26   52 1   
    48   27   31 1   
    49   27   49 1   
    50   28   32 1   
    51   28   50 1   
    52   29   33 1   
    53   30   33 1   
    54   31   34 1   
    55   31   53 1   
    56   32   34 1   
    57   32   54 1   
    58   32   56 1   
    59   33   55 1   
    60   35   58 1   
    61   38   59 1   
@<TRIPOS>SUBSTRUCTURE
     1 04L         1 TEMP              0 ****  ****    0 ROOT
