@<TRIPOS>MOLECULE
04L
   59    63     1     0     0
SMALL
bcc


@<TRIPOS>ATOM
      1 C1          6.5980   -0.8800    0.1920 cc        1 04L      0.477400
      2 N2          6.0430   -1.3180    1.4170 na        1 04L     -0.373000
      3 N3          5.7330   -0.1430   -0.5480 nd        1 04L     -0.551100
      4 C4          4.7340   -0.8150    1.4600 ca        1 04L      0.369800
      5 C5          0.6220    1.9020   -0.1050 c         1 04L      0.682700
      6 C6          4.5540   -0.0780    0.2090 ca        1 04L     -0.005900
      7 C7         -0.8020    2.3360    0.0490 ca        1 04L     -0.122600
      8 N8          3.7760   -0.9470    2.4200 nb        1 04L     -0.636000
      9 C10         3.3190    0.5380   -0.0360 ca        1 04L     -0.069000
     10 C11        -5.5070    0.8680    0.0000 c         1 04L      0.672300
     11 C12        -6.3190   -0.3260   -0.3540 ce        1 04L     -0.253200
     12 C14         2.3280    0.4090    0.9480 ca        1 04L     -0.070700
     13 C15        -7.6290   -0.3580   -0.0610 cf        1 04L     -0.011200
     14 C16        -1.8090    1.3920   -0.1490 ca        1 04L     -0.162000
     15 C17         7.9740   -1.2130   -0.1890 ca        1 04L     -0.119900
     16 O18         1.3570    2.3390   -1.0070 o         1 04L     -0.574100
     17 C19        -1.1080    3.6680    0.3600 ca        1 04L     -0.054300
     18 C20        -3.1700    1.7630   -0.0480 ca        1 04L      0.066600
     19 O21        -6.0190    1.8790    0.5210 o         1 04L     -0.597100
     20 C22         2.6210   -0.3410    2.1460 ca        1 04L      0.370200
     21 C23        -2.4570    4.0260    0.4690 ca        1 04L     -0.113000
     22 C24        -3.4770    3.1040    0.2700 ca        1 04L     -0.130000
     23 C25        -8.5210   -1.4660   -0.3560 ca        1 04L     -0.086800
     24 C26        -0.0470    4.6780    0.5740 c3        1 04L     -0.066800
     25 C27         8.5510   -2.4280    0.2030 ca        1 04L     -0.099000
     26 C28         8.7120   -0.3070   -0.9630 ca        1 04L     -0.099000
     27 C29        -8.2120   -2.4370   -1.3180 ca        1 04L     -0.103500
     28 C30        -9.7390   -1.5580    0.3390 ca        1 04L     -0.103500
     29 C31         9.8610   -2.7270   -0.1690 ca        1 04L     -0.134500
     30 C32        10.0210   -0.6160   -1.3310 ca        1 04L     -0.134500
     31 C33        -9.0970   -3.4830   -1.5740 ca        1 04L     -0.134500
     32 C34       -10.6180   -2.6070    0.0840 ca        1 04L     -0.134500
     33 C35        10.5980   -1.8220   -0.9340 ca        1 04L     -0.113000
     34 C36       -10.2990   -3.5720   -0.8730 ca        1 04L     -0.112000
     35 HN9         0.3960    0.7110    1.5420 hn        1 04L      0.321500
     36 H10         3.1550    1.1020   -0.9690 ha        1 04L      0.192000
     37 H12        -5.8110   -1.1640   -0.8540 ha        1 04L      0.134000
     38 HN13       -3.8120   -0.0750   -0.6590 hn        1 04L      0.317500
     39 H15        -8.0930    0.5070    0.4560 ha        1 04L      0.155000
     40 H16        -1.5290    0.3570   -0.4030 ha        1 04L      0.136000
     41 H22         1.8530   -0.4540    2.9340 h4        1 04L      0.021100
     42 H23        -2.7190    5.0680    0.7130 ha        1 04L      0.142000
     43 H24        -4.5260    3.4320    0.3650 ha        1 04L      0.177000
     44 H26         0.7730    4.5540   -0.1780 hc        1 04L      0.056033
     45 H26A       -0.4570    5.7140    0.4850 hc        1 04L      0.056033
     46 H26B        0.3930    4.5630    1.5970 hc        1 04L      0.056033
     47 H27         7.9760   -3.1610    0.7880 ha        1 04L      0.145000
     48 H28         8.2580    0.6440   -1.2840 ha        1 04L      0.145000
     49 H29        -7.2700   -2.3720   -1.8840 ha        1 04L      0.135500
     50 H30        -9.9960   -0.7970    1.0920 ha        1 04L      0.135500
     51 H31        10.3110   -3.6820    0.1390 ha        1 04L      0.137500
     52 H32        10.5980    0.0970   -1.9390 ha        1 04L      0.137500
     53 H33        -8.8460   -4.2390   -2.3330 ha        1 04L      0.136500
     54 H34       -11.5670   -2.6740    0.6370 ha        1 04L      0.136500
     55 H35        11.6310   -2.0610   -1.2250 ha        1 04L      0.136000
     56 H36       -10.9960   -4.3990   -1.0750 ha        1 04L      0.136000
     57 HN2         6.4990   -1.8290    2.1250 hn        1 04L      0.316700
     58 N9          1.0430    0.9590    0.8260 n         1 04L     -0.466100
     59 N13        -4.1480    0.7850   -0.2860 n         1 04L     -0.470100
@<TRIPOS>BOND
     1    1    2 1   
     2    1    3 2   
     3    1   15 1   
     4    2    4 1   
     5    2   57 1   
     6    3    6 1   
     7    4    6 ar  
     8    4    8 ar  
     9    5    7 1   
    10    5   16 2   
    11    5   58 1   
    12    6    9 ar  
    13    7   14 ar  
    14    7   17 ar  
    15    8   20 ar  
    16    9   12 ar  
    17    9   36 1   
    18   10   11 1   
    19   10   19 2   
    20   10   59 1   
    21   11   13 2   
    22   11   37 1   
    23   12   20 ar  
    24   12   58 1   
    25   13   23 1   
    26   13   39 1   
    27   14   18 ar  
    28   14   40 1   
    29   15   25 ar  
    30   15   26 ar  
    31   17   21 ar  
    32   17   24 1   
    33   18   22 ar  
    34   18   59 1   
    35   20   41 1   
    36   21   22 ar  
    37   21   42 1   
    38   22   43 1   
    39   23   27 ar  
    40   23   28 ar  
    41   24   44 1   
    42   24   45 1   
    43   24   46 1   
    44   25   29 ar  
    45   25   47 1   
    46   26   30 ar  
    47   26   48 1   
    48   27   31 ar  
    49   27   49 1   
    50   28   32 ar  
    51   28   50 1   
    52   29   33 ar  
    53   29   51 1   
    54   30   33 ar  
    55   30   52 1   
    56   31   34 ar  
    57   31   53 1   
    58   32   34 ar  
    59   32   54 1   
    60   33   55 1   
    61   34   56 1   
    62   35   58 1   
    63   38   59 1   
@<TRIPOS>SUBSTRUCTURE
     1 04L         1 TEMP              0 ****  ****    0 ROOT
