@<TRIPOS>MOLECULE
04L
   59    60     1     0     0
SMALL
bcc


@<TRIPOS>ATOM
      1 C1          1.4120   -1.2760   -0.4800 c2        1 04L      0.059000
      2 N2          2.2100   -2.3200    0.0430 na        1 04L     -0.221000
      3 N3          0.8730   -0.4900    0.4870 n2        1 04L     -0.163000
      4 C4          2.1720   -2.1870    1.4400 c2        1 04L     -0.016000
      5 C5          1.9010   -1.7460    6.5110 c2        1 04L      0.343000
      6 C6          1.3240   -1.0260    1.7020 c2        1 04L     -0.084000
      7 C7          1.5380   -1.1110    7.8270 c2        1 04L     -0.085000
      8 N8          2.7690   -2.9360    2.4080 n2        1 04L     -0.115000
      9 C10         1.1030   -0.6500    3.0310 c2        1 04L     -0.112000
     10 C11         2.8210    1.6980   10.0410 c2        1 04L      0.318000
     11 C12         3.7120    2.8380   10.5300 c3        1 04L     -0.222000
     12 C14         1.7170   -1.4170    4.0380 c2        1 04L      0.015000
     13 C15         4.3210    2.5870   11.8210 c1        1 04L     -0.096000
     14 C16         2.4280   -1.2380    8.8240 c2        1 04L     -0.100000
     15 C17         1.2280   -1.1150   -1.9210 c2        1 04L     -0.131000
     16 O18         2.5330   -2.8200    6.4690 o         1 04L     -0.362000
     17 C19         0.2710   -0.4020    7.9160 c2        1 04L     -0.143000
     18 C20         2.3200   -0.7540   10.2490 c3        1 04L      0.180000
     19 O21         1.9150    1.9470    9.2230 o         1 04L     -0.374000
     20 C22         2.5340   -2.5430    3.6600 c2        1 04L     -0.067000
     21 C23        -0.1580   -0.6130   11.1710 c1        1 04L     -0.176000
     22 C24         0.9510   -0.6580   10.7240 c1        1 04L     -0.196000
     23 C25         4.9840    3.5880   12.5750 c2        1 04L     -0.207000
     24 C26        -0.8660   -0.8140    7.3520 c2        1 04L     -0.211000
     25 C27        -2.6830    4.2590    0.3080 c1        1 04L     -0.206000
     26 C28         0.4850   -0.1480   -2.4610 c2        1 04L     -0.154000
     27 C29         5.1450    4.9630   12.1390 c2        1 04L     -0.020000
     28 C30         5.5000    3.2180   13.7940 c2        1 04L      0.054000
     29 C31        -1.9910    3.3470    0.6590 c1        1 04L     -0.098000
     30 C32        -0.8510    1.8940    2.2720 c1        1 04L      0.219000
     31 C33         5.7920    5.8820   12.9080 c2        1 04L     -0.241000
     32 C34         6.2020    4.1860   14.6580 c3        1 04L     -0.248000
     33 C35        -1.1830    2.2830    1.0560 c2        1 04L     -0.363000
     34 C36         6.3410    5.5590   14.1770 c1        1 04L     -0.066000
     35 HN9         0.9870   -0.2130    5.5170 hn        1 04L      0.248000
     36 H10         0.4670    0.2240    3.2580 ha        1 04L      0.173000
     37 H12         4.5300    2.9710    9.7600 hc        1 04L      0.142000
     38 HN13        3.7160    0.3880   11.2990 hn        1 04L      0.251000
     39 H15         3.0860    3.7760   10.5070 hc        1 04L      0.142000
     40 H16         3.3750   -1.7780    8.6280 ha        1 04L      0.148000
     41 H22         3.0250   -3.1660    4.4360 h4        1 04L      0.205000
     42 H23         0.3140    0.5330    8.5120 ha        1 04L      0.172000
     43 H24         2.8040   -1.5790   10.8790 h1        1 04L      0.114000
     44 H26        -1.7980   -0.2430    7.4520 ha        1 04L      0.117500
     45 H26A       -1.1470   -0.5750   11.5510 ha        1 04L      0.224000
     46 H26B       -0.9480   -1.7410    6.7690 ha        1 04L      0.117500
     47 H27         1.7500   -1.8550   -2.5520 ha        1 04L      0.132000
     48 H28        -0.0490    0.6070   -1.8660 ha        1 04L      0.126500
     49 H29         4.7210    5.2290   11.1560 ha        1 04L      0.134000
     50 H30         5.3940    2.1780   14.1490 ha        1 04L      0.153000
     51 H31        -3.2960    5.0660   -0.0010 ha        1 04L      0.226000
     52 H32         0.3680   -0.0560   -3.5500 ha        1 04L      0.126500
     53 H33         5.9100    6.9220   12.5610 ha        1 04L      0.154000
     54 H34         5.6820    4.2390   15.6640 hc        1 04L      0.178500
     55 H35        -0.7510    1.6650    0.2260 ha        1 04L      0.223000
     56 H36         7.2450    3.8050   14.8820 hc        1 04L      0.178500
     57 HN2         2.6940   -3.0090   -0.4660 hn        1 04L      0.266000
     58 N9          1.5230   -1.0450    5.3760 ns        1 04L     -0.310000
     59 N13         3.1260    0.4290   10.4930 ns        1 04L     -0.355000
@<TRIPOS>BOND
     1    1    2 1   
     2    1    3 1   
     3    1   15 1   
     4    2    4 1   
     5    2   57 1   
     6    3    6 1   
     7    4    6 1   
     8    4    8 1   
     9    5    7 1   
    10    5   16 1   
    11    5   58 1   
    12    6    9 1   
    13    7   14 1   
    14    7   17 1   
    15    8   20 1   
    16    9   12 1   
    17    9   36 1   
    18   10   11 1   
    19   10   19 1   
    20   10   59 1   
    21   11   13 1   
    22   11   37 1   
    23   11   39 1   
    24   12   20 1   
    25   12   58 1   
    26   13   23 1   
    27   14   18 1   
    28   14   40 1   
    29   15   26 1   
    30   15   47 1   
    31   17   24 1   
    32   17   42 1   
    33   18   22 1   
    34   18   43 1   
    35   18   59 1   
    36   20   41 1   
    37   21   22 1   
    38   21   45 1   
    39   23   27 1   
    40   23   28 1   
    41   24   44 1   
    42   24   46 1   
    43   25   29 1   
    44   25   51 1   
    45   26   48 1   
    46   26   52 1   
    47   27   31 1   
    48   27   49 1   
    49   28   32 1   
    50   28   50 1   
    51   29   33 1   
    52   30   33 1   
    53   31   34 1   
    54   31   53 1   
    55   32   34 1   
    56   32   54 1   
    57   32   56 1   
    58   33   55 1   
    59   35   58 1   
    60   38   59 1   
@<TRIPOS>SUBSTRUCTURE
     1 04L         1 TEMP              0 ****  ****    0 ROOT
