@<TRIPOS>MOLECULE
04N
   37    39     1     0     0
SMALL
bcc


@<TRIPOS>ATOM
      1 C1          0.0550   -0.0540   -0.0650 c3        1 04N      0.332900
      2 O1         -0.0630   -1.4160    0.2660 oh        1 04N     -0.659800
      3 C2          1.5770    0.2840   -0.0800 c3        1 04N      0.082500
      4 N2          2.3430   -0.6880   -0.9210 nz        1 04N     -0.827600
      5 C3          2.1690    0.3180    1.3550 c3        1 04N      0.137100
      6 O3          3.4990    0.7740    1.2170 oh        1 04N     -0.628800
      7 C4          1.2790    1.2620    2.1680 c3        1 04N      0.081100
      8 O4          1.7880    1.3340    3.4900 os        1 04N     -0.430600
      9 C5         -0.1360    0.6660    2.1940 c3        1 04N      0.062100
     10 O5         -0.6820    0.6890    0.8730 os        1 04N     -0.400600
     11 C6         -0.9820    1.5320    3.1320 c3        1 04N      0.137400
     12 O6         -0.3040    1.5730    4.3830 os        1 04N     -0.404600
     13 CAL         2.7170    2.2520    8.2420 ca        1 04N     -0.098000
     14 CAM         2.9010    3.3270    7.3710 ca        1 04N     -0.131500
     15 CAN         1.9670    1.1470    7.8410 ca        1 04N     -0.131500
     16 CAO         2.3360    3.3000    6.0980 ca        1 04N     -0.090500
     17 CAP         1.4010    1.1120    6.5660 ca        1 04N     -0.090500
     18 CBC         1.5850    2.1890    5.6960 ca        1 04N     -0.111300
     19 CBP         0.9780    2.1840    4.3270 c3        1 04N      0.387200
     20 H1         -0.4240    0.1820   -1.0600 h2        1 04N      0.104700
     21 H2          1.7040    1.3100   -0.5420 hx        1 04N      0.132700
     22 HN2         3.3490   -0.5100   -0.7940 hn        1 04N      0.472133
     23 HN2A        2.0900   -0.5840   -1.9060 hn        1 04N      0.472133
     24 H3          2.1660   -0.7080    1.8210 h1        1 04N      0.090700
     25 HO3         3.7870    1.0990    2.0850 ho        1 04N      0.472000
     26 H4          1.2720    2.2890    1.7050 h1        1 04N      0.072700
     27 H5         -0.1110   -0.3940    2.5710 h1        1 04N      0.088700
     28 H6         -1.1240    2.5610    2.7120 h1        1 04N      0.082700
     29 H6A        -1.9720    1.0590    3.3590 h1        1 04N      0.082700
     30 HAN         1.8180    0.3020    8.5300 ha        1 04N      0.145000
     31 HAO         2.4780    4.1520    5.4150 ha        1 04N      0.139500
     32 HAP         0.8000    0.2480    6.2430 ha        1 04N      0.139500
     33 HBP         0.9160    3.2130    3.8720 h2        1 04N      0.058700
     34 H7         -0.9900   -1.6000    0.4840 ho        1 04N      0.471000
     35 HAL         3.1620    2.2790    9.2490 ha        1 04N      0.146000
     36 H23         2.1230   -1.6450   -0.6150 hn        1 04N      0.472133
     37 HAM         3.4900    4.2000    7.6910 ha        1 04N      0.145000
@<TRIPOS>BOND
     1    1    2 1   
     2    1    3 1   
     3    1   10 1   
     4    1   20 1   
     5    2   34 1   
     6    3    4 1   
     7    3    5 1   
     8    3   21 1   
     9    4   22 1   
    10    4   23 1   
    11    4   36 1   
    12    5    6 1   
    13    5    7 1   
    14    5   24 1   
    15    6   25 1   
    16    7    8 1   
    17    7    9 1   
    18    7   26 1   
    19    8   19 1   
    20    9   10 1   
    21    9   11 1   
    22    9   27 1   
    23   11   12 1   
    24   11   28 1   
    25   11   29 1   
    26   12   19 1   
    27   13   14 ar  
    28   13   15 ar  
    29   13   35 1   
    30   14   16 ar  
    31   14   37 1   
    32   15   17 ar  
    33   15   30 1   
    34   16   18 ar  
    35   16   31 1   
    36   17   18 ar  
    37   17   32 1   
    38   18   19 1   
    39   19   33 1   
@<TRIPOS>SUBSTRUCTURE
     1 04N         1 TEMP              0 ****  ****    0 ROOT
