@<TRIPOS>MOLECULE
04N
   36    35     1     0     0
SMALL
bcc


@<TRIPOS>ATOM
      1 C1         -1.1010   -0.3560   -3.2190 c3        1 04N      0.345900
      2 O1         -1.8940   -0.9240   -4.5270 oh        1 04N     -0.605800
      3 C2          0.1300   -1.0890   -3.1650 c3        1 04N      0.087500
      4 N2         -0.1430   -2.5290   -3.5000 n3        1 04N     -0.911800
      5 C3          0.7360   -1.0110   -1.8230 c3        1 04N      0.144100
      6 O3          2.1260   -0.8510   -1.9660 oh        1 04N     -0.580800
      7 C4          0.1670    0.2050   -0.9570 c3        1 04N      0.083100
      8 O4          0.7280    0.3000    0.2720 os        1 04N     -0.410600
      9 C5         -1.3050   -0.2640   -0.9230 c3        1 04N      0.088100
     10 O5         -1.9570   -0.3180   -2.2930 os        1 04N     -0.440600
     11 C6         -2.1080    0.5500   -0.0280 c3        1 04N      0.129400
     12 O6         -1.5190    0.6620    1.2590 os        1 04N     -0.425600
     13 CAL         1.5670    0.8380    5.1060 c1        1 04N     -0.059750
     14 CAM         0.5350   -0.0140    4.7320 c1        1 04N     -0.059750
     15 CAN         2.0600    1.7830    4.1980 c1        1 04N     -0.059750
     16 CAO        -0.0090    0.0710    3.4570 c1        1 04N     -0.059750
     17 CAP         1.5160    1.8700    2.9200 c1        1 04N     -0.048500
     18 CBC         0.4840    1.0190    2.5460 c1        1 04N     -0.051100
     19 CBP        -0.0900    1.1110    1.2040 c3        1 04N      0.343000
     20 H1         -0.8660    0.5480   -3.4060 h2        1 04N      0.070700
     21 H2          0.7550   -0.7160   -3.8230 h1        1 04N      0.047700
     22 HN2         0.5600   -3.0410   -3.2380 hn        1 04N      0.362800
     23 HN2A       -0.2560   -2.6100   -4.3620 hn        1 04N      0.362800
     24 H3          0.5620   -1.8440   -1.3500 h1        1 04N      0.115700
     25 HO3         2.2970   -0.2650   -2.6470 ho        1 04N      0.396000
     26 H4          0.2550    1.0850   -1.4680 h1        1 04N      0.045700
     27 H5         -1.3090   -1.1380   -0.5810 h1        1 04N      0.095700
     28 H6         -2.2020    1.4490   -0.4140 h1        1 04N      0.064700
     29 H6A        -3.0100    0.1400    0.0630 h1        1 04N      0.064700
     30 HAL         1.9560    0.7760    6.0190 ha        1 04N      0.080000
     31 HAM         0.1750   -0.7050    5.3960 ha        1 04N      0.080000
     32 HAN         2.7780    2.3750    4.4600 ha        1 04N      0.080000
     33 HAO        -0.7490   -0.5390    3.1890 ha        1 04N      0.080000
     34 HAP         1.8800    2.5680    2.2520 ha        1 04N      0.074500
     35 HBP        -0.0650    2.0190    0.9220 h2        1 04N      0.044700
     36 H7         -2.6830   -1.1520   -4.3030 ho        1 04N      0.431000
@<TRIPOS>BOND
     1    1    2 1   
     2    1    3 1   
     3    1   10 1   
     4    1   20 1   
     5    2   36 1   
     6    3    4 1   
     7    3    5 1   
     8    3   21 1   
     9    4   22 1   
    10    4   23 1   
    11    5    6 1   
    12    5    7 1   
    13    5   24 1   
    14    6   25 1   
    15    7    8 1   
    16    7    9 1   
    17    7   26 1   
    18    8   19 1   
    19    9   10 1   
    20    9   11 1   
    21    9   27 1   
    22   11   12 1   
    23   11   28 1   
    24   11   29 1   
    25   12   19 1   
    26   13   15 3   
    27   13   30 1   
    28   14   16 3   
    29   14   31 1   
    30   15   32 1   
    31   16   33 1   
    32   17   18 3   
    33   17   34 1   
    34   18   19 1   
    35   19   35 1   
@<TRIPOS>SUBSTRUCTURE
     1 04N         1 TEMP              0 ****  ****    0 ROOT
