@<TRIPOS>MOLECULE
04N
   36    38     1     0     0
SMALL
bcc


@<TRIPOS>ATOM
      1 C1         -3.6450   -0.8340   -0.0380 c3        1 04N      0.331900
      2 O1         -3.7110   -0.8880   -1.4420 oh        1 04N     -0.623800
      3 C2         -3.4260    0.6400    0.4010 c3        1 04N      0.164500
      4 N2         -4.5180    1.4820   -0.0280 n3        1 04N     -0.895800
      5 C3         -2.0140    1.1120   -0.0480 c3        1 04N      0.108100
      6 O3         -1.8150    2.4020    0.5010 oh        1 04N     -0.602800
      7 C4         -1.0040    0.1030    0.5000 c3        1 04N      0.073100
      8 O4          0.3140    0.4910    0.1150 os        1 04N     -0.432600
      9 C5         -1.3120   -1.2720   -0.1050 c3        1 04N      0.081100
     10 O5         -2.5930   -1.7140    0.3340 os        1 04N     -0.441600
     11 C6         -0.2310   -2.2400    0.3700 c3        1 04N      0.135400
     12 O6          1.0380   -1.6860    0.0260 os        1 04N     -0.427600
     13 CAL         5.2090    0.9580   -0.4730 ca        1 04N     -0.119000
     14 CAM         4.9290   -0.4090   -0.4670 ca        1 04N     -0.137000
     15 CAN         4.2100    1.8750   -0.1480 ca        1 04N     -0.137000
     16 CAO         3.6540   -0.8620   -0.1330 ca        1 04N     -0.098500
     17 CAP         2.9320    1.4290    0.1880 ca        1 04N     -0.098500
     18 CBC         2.6550    0.0580    0.2000 ca        1 04N     -0.089300
     19 CBP         1.2950   -0.4180    0.6190 c3        1 04N      0.382200
     20 H1         -4.5590   -1.2720    0.4560 h2        1 04N      0.089700
     21 H2         -3.4320    0.6420    1.5330 h1        1 04N      0.081700
     22 HN2        -4.3310    2.4310    0.2350 hn        1 04N      0.366300
     23 HN2A       -4.6340    1.4280   -1.0220 hn        1 04N      0.366300
     24 H3         -1.9450    1.1570   -1.1700 h1        1 04N      0.067700
     25 HO3        -0.8990    2.6410    0.3080 ho        1 04N      0.421000
     26 H4         -1.0680    0.0690    1.6240 h1        1 04N      0.061700
     27 H5         -1.3030   -1.2070   -1.2290 h1        1 04N      0.082700
     28 H6         -0.3000   -2.4130    1.4740 h1        1 04N      0.065200
     29 H6A        -0.2710   -3.2140   -0.1820 h1        1 04N      0.065200
     30 HAM         5.7150   -1.1330   -0.7290 ha        1 04N      0.133500
     31 HAN         4.4270    2.9530   -0.1580 ha        1 04N      0.133500
     32 HAO         3.4240   -1.9390   -0.1380 ha        1 04N      0.145000
     33 HAP         2.1360    2.1480    0.4330 ha        1 04N      0.145000
     34 HBP         1.2130   -0.4890    1.7430 h2        1 04N      0.048700
     35 H7         -3.8990   -1.8030   -1.6880 ho        1 04N      0.421000
     36 HAL         6.2160    1.3120   -0.7370 ha        1 04N      0.132000
@<TRIPOS>BOND
     1    1    2 1   
     2    1    3 1   
     3    1   10 1   
     4    1   20 1   
     5    2   35 1   
     6    3    4 1   
     7    3    5 1   
     8    3   21 1   
     9    4   22 1   
    10    4   23 1   
    11    5    6 1   
    12    5    7 1   
    13    5   24 1   
    14    6   25 1   
    15    7    8 1   
    16    7    9 1   
    17    7   26 1   
    18    8   19 1   
    19    9   10 1   
    20    9   11 1   
    21    9   27 1   
    22   11   12 1   
    23   11   28 1   
    24   11   29 1   
    25   12   19 1   
    26   13   14 ar  
    27   13   15 ar  
    28   13   36 1   
    29   14   16 ar  
    30   14   30 1   
    31   15   17 ar  
    32   15   31 1   
    33   16   18 ar  
    34   16   32 1   
    35   17   18 ar  
    36   17   33 1   
    37   18   19 1   
    38   19   34 1   
@<TRIPOS>SUBSTRUCTURE
     1 04N         1 TEMP              0 ****  ****    0 ROOT
