@<TRIPOS>MOLECULE
04N
   37    39     1     0     0
SMALL
bcc


@<TRIPOS>ATOM
      1 C1          0.0450   -0.0610   -0.0500 c3        1 04N      0.332900
      2 O1         -0.1570   -1.4100    0.2960 oh        1 04N     -0.659800
      3 C2          1.5840    0.1880   -0.0440 c3        1 04N      0.082500
      4 N2          2.3050   -0.8380   -0.8610 n4        1 04N     -0.827600
      5 C3          2.1540    0.2060    1.4000 c3        1 04N      0.137100
      6 O3          3.5100    0.5830    1.2770 oh        1 04N     -0.628800
      7 C4          1.3080    1.2100    2.1860 c3        1 04N      0.081100
      8 O4          1.8000    1.2700    3.5150 os        1 04N     -0.430600
      9 C5         -0.1390    0.6980    2.1970 c3        1 04N      0.062100
     10 O5         -0.6620    0.7350    0.8670 os        1 04N     -0.400600
     11 C6         -0.9470    1.6240    3.1100 c3        1 04N      0.137400
     12 O6         -0.2880    1.6420    4.3710 os        1 04N     -0.404600
     13 CAL         2.7070    2.1960    8.2710 ca        1 04N     -0.098000
     14 CAM         1.9000    1.1310    7.8710 ca        1 04N     -0.131500
     15 CAN         2.9670    3.2470    7.3890 ca        1 04N     -0.131500
     16 CAO         1.3530    1.1120    6.5880 ca        1 04N     -0.090500
     17 CAP         2.4210    3.2350    6.1070 ca        1 04N     -0.090500
     18 CBC         1.6130    2.1650    5.7070 ca        1 04N     -0.111300
     19 CBP         1.0280    2.1770    4.3290 c3        1 04N      0.387200
     20 H1         -0.4040    0.1880   -1.0560 h2        1 04N      0.104700
     21 H2          1.7770    1.1980   -0.5170 hx        1 04N      0.132700
     22 HN2         2.0740   -0.7330   -1.8510 hn        1 04N      0.472133
     23 HN2A        3.3180   -0.7170   -0.7200 hn        1 04N      0.472133
     24 H3          2.0850   -0.8120    1.8780 h1        1 04N      0.090700
     25 HO3         3.8040    0.9020    2.1460 ho        1 04N      0.472000
     26 H4          1.3690    2.2300    1.7110 h1        1 04N      0.072700
     27 H5         -0.1810   -0.3570    2.5870 h1        1 04N      0.088700
     28 H6         -1.9670    1.2120    3.3270 h1        1 04N      0.082700
     29 H6A        -1.0230    2.6530    2.6750 h1        1 04N      0.082700
     30 HAN         3.6010    4.0880    7.7070 ha        1 04N      0.145000
     31 HAO         0.7070    0.2810    6.2660 ha        1 04N      0.139500
     32 HAP         2.6230    4.0680    5.4170 ha        1 04N      0.139500
     33 HBP         1.0320    3.2020    3.8600 h2        1 04N      0.058700
     34 H7         -1.0960   -1.5370    0.5010 ho        1 04N      0.471000
     35 HAL         3.1380    2.2100    9.2840 ha        1 04N      0.146000
     36 H23         2.0250   -1.7770   -0.5460 hn        1 04N      0.472133
     37 HAM         1.6910    0.3050    8.5680 ha        1 04N      0.145000
@<TRIPOS>BOND
     1    1    2 1   
     2    1    3 1   
     3    1   10 1   
     4    1   20 1   
     5    2   34 1   
     6    3    4 1   
     7    3    5 1   
     8    3   21 1   
     9    4   22 1   
    10    4   23 1   
    11    4   36 1   
    12    5    6 1   
    13    5    7 1   
    14    5   24 1   
    15    6   25 1   
    16    7    8 1   
    17    7    9 1   
    18    7   26 1   
    19    8   19 1   
    20    9   10 1   
    21    9   11 1   
    22    9   27 1   
    23   11   12 1   
    24   11   28 1   
    25   11   29 1   
    26   12   19 1   
    27   13   14 ar  
    28   13   15 ar  
    29   13   35 1   
    30   14   16 ar  
    31   14   37 1   
    32   15   17 ar  
    33   15   30 1   
    34   16   18 ar  
    35   16   31 1   
    36   17   18 ar  
    37   17   32 1   
    38   18   19 1   
    39   19   33 1   
@<TRIPOS>SUBSTRUCTURE
     1 04N         1 TEMP              0 ****  ****    0 ROOT
