@<TRIPOS>MOLECULE
04O
   43    41     1     0     0
SMALL
bcc


@<TRIPOS>ATOM
      1 C11         1.6500    1.8390    0.9580 c2        1 04O     -0.090000
      2 O11         0.3940    2.2480    1.3390 oh        1 04O     -0.302500
      3 C16         1.4690    4.0430    6.5240 c2        1 04O     -0.100000
      4 C21         2.1470    1.7410   -0.3030 c2        1 04O      0.002000
      5 N21         1.3880    1.8490   -1.4380 n3        1 04O     -0.342000
      6 C26         1.7600    5.3140    6.2070 c2        1 04O     -0.169000
      7 C31         2.0040   -2.1270    2.9300 c3        1 04O     -0.021000
      8 O31         1.9740   -2.9530    4.0650 oh        1 04O     -0.298000
      9 C36         3.2040    4.5310    9.6580 c1        1 04O     -0.118000
     10 C41         0.9710   -0.9960    3.0100 c3        1 04O      0.044000
     11 O41         1.5400   -0.0810    4.0540 os        1 04O     -0.123000
     12 C46         3.9370    5.0570   10.5980 c2        1 04O     -0.102000
     13 C51        -0.3630   -1.4520    3.4430 c2        1 04O     -0.300000
     14 O51         2.3790    1.6060    2.1060 oh        1 04O     -0.302500
     15 C56         2.4890    4.0210    8.7510 c1        1 04O     -0.095000
     16 C61        -1.5160   -0.8200    3.1560 c2        1 04O      0.039000
     17 O61        -1.4770    0.3910    2.5060 oh        1 04O     -0.306000
     18 C66         1.7420    3.4620    7.8290 c2        1 04O     -0.090000
     19 CBJ         1.1150    1.1410    4.1110 c2        1 04O      0.288000
     20 H11         2.9040    2.4060    2.2680 ho        1 04O      0.223000
     21 H21         3.0240   -1.6920    2.7590 h1        1 04O      0.125500
     22 HN21        0.5260    2.3390   -1.3730 hn        1 04O      0.222000
     23 HN2A        3.2100    1.4570   -0.4410 h4        1 04O      0.170000
     24 H26         1.5370    5.7450    5.2220 ha        1 04O      0.130000
     25 H31         1.7150   -2.7930    2.0690 h1        1 04O      0.125500
     26 HO31        2.4430   -2.4970    4.7760 ho        1 04O      0.213000
     27 H35         2.0860    1.4380    6.0200 hc        1 04O      0.164000
     28 H35A        2.6650    2.4610    4.6440 hc        1 04O      0.164000
     29 H36         2.2310    5.9970    6.9270 ha        1 04O      0.130000
     30 H41         0.9490   -0.3980    2.0540 h1        1 04O      0.144000
     31 H45         0.4640    3.7170    4.6410 hc        1 04O      0.104000
     32 H45A       -0.1220    2.6970    6.0210 hc        1 04O      0.104000
     33 H46         4.4440    6.0260   10.4720 ha        1 04O      0.146000
     34 H51        -2.5090   -1.2140    3.4290 h4        1 04O      0.169000
     35 H56         4.0860    4.5590   11.5690 ha        1 04O      0.146000
     36 H61        -0.3830   -2.4060    4.0020 ha        1 04O      0.193000
     37 H61A       -2.3850    0.6480    2.2820 ho        1 04O      0.253000
     38 H66         1.2620    2.4890    8.0410 ha        1 04O      0.132000
     39 HBJ         0.3160    1.5130    3.4220 h4        1 04O      0.218000
     40 H2         -0.2220    1.5460    1.0700 ho        1 04O      0.223000
     41 C35         1.7380    2.0220    5.1220 c3        1 04O     -0.215000
     42 C45         0.7950    3.1380    5.5450 c3        1 04O     -0.122000
     43 H213        1.8770    1.9470   -2.2970 hn        1 04O      0.222000
@<TRIPOS>BOND
     1    1    2 1   
     2    1    4 1   
     3    1   14 1   
     4    2   40 1   
     5    3    6 1   
     6    3   18 1   
     7    3   42 1   
     8    4    5 1   
     9    4   23 1   
    10    5   22 1   
    11    5   43 1   
    12    6   24 1   
    13    6   29 1   
    14    7    8 1   
    15    7   10 1   
    16    7   21 1   
    17    7   25 1   
    18    8   26 1   
    19    9   12 1   
    20    9   15 1   
    21   10   11 1   
    22   10   13 1   
    23   10   30 1   
    24   11   19 1   
    25   12   33 1   
    26   12   35 1   
    27   13   16 1   
    28   13   36 1   
    29   14   20 1   
    30   15   18 1   
    31   16   17 1   
    32   16   34 1   
    33   17   37 1   
    34   18   38 1   
    35   19   39 1   
    36   19   41 1   
    37   27   41 1   
    38   28   41 1   
    39   31   42 1   
    40   32   42 1   
    41   41   42 1   
@<TRIPOS>SUBSTRUCTURE
     1 04O         1 TEMP              0 ****  ****    0 ROOT
