@<TRIPOS>MOLECULE
04O
   42    41     1     0     0
SMALL
bcc


@<TRIPOS>ATOM
      1 C11        -1.6500    3.4390   -1.4450 c3        1 04O      0.122000
      2 O11        -2.1350    3.2240   -2.6730 oh        1 04O     -0.321000
      3 C16         1.0410   -3.5410    0.6310 c1        1 04O     -0.074000
      4 C21        -0.2180    3.4410   -1.5070 c3        1 04O     -0.100000
      5 N21         0.2920    2.0860   -2.2570 n3        1 04O     -0.329000
      6 C26         1.5730   -4.1460    1.7700 c1        1 04O     -0.126000
      7 C31         0.3020    3.4790   -0.3480 c3        1 04O      0.033000
      8 O31         0.0140    4.8810    0.3030 oh        1 04O     -0.333000
      9 C35         0.3930   -1.1850    0.0030 c3        1 04O     -0.147000
     10 C36         2.0780   -5.4540    1.7000 c1        1 04O     -0.129500
     11 C41        -0.2770    2.3650    0.5820 c3        1 04O      0.003000
     12 O41         0.2540    1.1250    0.1830 os        1 04O     -0.288000
     13 C45         0.1790   -2.3430    1.0270 c2        1 04O     -0.122000
     14 C46         2.0480   -6.1430    0.5040 c1        1 04O     -0.129500
     15 C51        -1.7460    2.3590    0.5960 c3        1 04O     -0.011000
     16 O51        -2.2140    2.3250   -0.4650 os        1 04O     -0.302000
     17 C56         1.5150   -5.5380   -0.6390 c1        1 04O     -0.128000
     18 C61        -2.0620    1.7600    1.0310 c3        1 04O     -0.020000
     19 O61        -1.5000    0.3860    0.6710 os        1 04O     -0.280000
     20 C66         1.0120   -4.2340   -0.5710 c2        1 04O     -0.125000
     21 CBJ        -0.1570    0.3490    0.7130 c3        1 04O      0.142000
     22 H11        -1.9550    4.3210   -1.1350 h2        1 04O      0.121000
     23 H21         0.0650    4.1900   -1.9970 h1        1 04O      0.110000
     24 HN21        1.1780    2.1490   -2.4170 hn        1 04O      0.159500
     25 HN2A       -0.1670    1.9770   -3.0670 hn        1 04O      0.159500
     26 H26         1.5930   -3.6620    2.6120 ha        1 04O      0.130000
     27 H31         1.3270    3.3500   -0.4330 h1        1 04O      0.115000
     28 HO31        0.7830    5.3160    0.4200 ho        1 04O      0.213000
     29 H35         1.3500   -1.1190   -0.2220 hc        1 04O      0.112500
     30 H35A       -0.1350   -1.3750   -0.8300 hc        1 04O      0.112500
     31 H36         2.4560   -5.8860    2.5120 ha        1 04O      0.131000
     32 H41         0.0280    2.5440    1.4850 h1        1 04O      0.102000
     33 H45        -0.7470   -2.6030    1.0270 ha        1 04O      0.092000
     34 H45A        0.4400   -2.0310    1.9480 ha        1 04O      0.092000
     35 H46         2.4070   -7.0730    0.4560 ha        1 04O      0.131000
     36 H51        -2.0360    3.2100    1.0180 h1        1 04O      0.104000
     37 H56         1.4940   -6.0500   -1.5240 ha        1 04O      0.132000
     38 H61        -3.0410    1.7500    0.8900 h1        1 04O      0.105500
     39 H61A       -1.8740    1.9420    2.0290 h1        1 04O      0.105500
     40 H66         0.6450   -3.8180   -1.3580 ha        1 04O      0.135000
     41 HBJ         0.1370    0.3990    1.6400 h2        1 04O      0.079000
     42 H2         -2.6920    3.8330   -2.8640 ho        1 04O      0.224000
@<TRIPOS>BOND
     1    1    2 1   
     2    1    4 1   
     3    1   16 1   
     4    1   22 1   
     5    2   42 1   
     6    3    6 1   
     7    3   20 1   
     8    4    5 1   
     9    4    7 1   
    10    4   23 1   
    11    5   24 1   
    12    5   25 1   
    13    6   26 1   
    14    7    8 1   
    15    7   11 1   
    16    7   27 1   
    17    8   28 1   
    18    9   13 1   
    19    9   21 1   
    20    9   29 1   
    21    9   30 1   
    22   10   14 1   
    23   10   31 1   
    24   11   12 1   
    25   11   15 1   
    26   11   32 1   
    27   12   21 1   
    28   13   33 1   
    29   13   34 1   
    30   14   35 1   
    31   15   16 1   
    32   15   18 1   
    33   15   36 1   
    34   17   20 1   
    35   17   37 1   
    36   18   19 1   
    37   18   38 1   
    38   18   39 1   
    39   19   21 1   
    40   20   40 1   
    41   21   41 1   
@<TRIPOS>SUBSTRUCTURE
     1 04O         1 TEMP              0 ****  ****    0 ROOT
