@<TRIPOS>MOLECULE
04O
   42    44     1     0     0
SMALL
bcc


@<TRIPOS>ATOM
      1 C11        -4.5800   -0.7620   -0.0030 c3        1 04O      0.331900
      2 O11        -4.6560   -0.9460   -1.3960 oh        1 04O     -0.623800
      3 C16         4.1720   -0.0020    0.3190 ca        1 04O     -0.081300
      4 C21        -4.3680    0.7470    0.2970 c3        1 04O      0.164500
      5 N21        -5.4690    1.5390   -0.1990 n3        1 04O     -0.895800
      6 C26         4.9720    0.9630    0.9410 ca        1 04O     -0.126000
      7 C31        -2.9630    1.1850   -0.2050 c3        1 04O      0.109100
      8 O31        -2.7700    2.5210    0.2230 oh        1 04O     -0.603800
      9 C36         6.2260    1.2800    0.4180 ca        1 04O     -0.128500
     10 C41        -1.9410    0.2370    0.4230 c3        1 04O      0.074100
     11 O41        -0.6290    0.5960   -0.0070 os        1 04O     -0.438600
     12 C46         6.6890    0.6360   -0.7290 ca        1 04O     -0.131000
     13 C51        -2.2450   -1.1900   -0.0490 c3        1 04O      0.081100
     14 O51        -3.5180   -1.5980    0.4390 os        1 04O     -0.441600
     15 C56         5.8960   -0.3270   -1.3530 ca        1 04O     -0.128500
     16 C61        -1.1530   -2.1050    0.5030 c3        1 04O      0.134400
     17 O61         0.1080   -1.5770    0.1010 os        1 04O     -0.431600
     18 C66         4.6440   -0.6450   -0.8320 ca        1 04O     -0.126000
     19 CBJ         0.3620   -0.2580    0.5650 c3        1 04O      0.328900
     20 H11        -5.4870   -1.1580    0.5350 h2        1 04O      0.089700
     21 H21        -4.3650    0.8520    1.4230 h1        1 04O      0.081700
     22 HN21       -5.2870    2.5090   -0.0250 hn        1 04O      0.365800
     23 HN2A       -5.5910    1.3940   -1.1830 hn        1 04O      0.365800
     24 H26         4.6120    1.4730    1.8460 ha        1 04O      0.132500
     25 H31        -2.9030    1.1300   -1.3270 h1        1 04O      0.065700
     26 HO31       -1.8540    2.7460    0.0120 ho        1 04O      0.423000
     27 H35         1.7360    1.3030   -0.0140 hc        1 04O      0.071700
     28 H35A        1.8230   -0.1920   -1.0380 hc        1 04O      0.071700
     29 H36         6.8490    2.0390    0.9130 ha        1 04O      0.131500
     30 H41        -1.9950    0.3060    1.5460 h1        1 04O      0.061700
     31 H45         2.7440   -1.4730    0.9430 hc        1 04O      0.053700
     32 H45A        2.7380    0.0520    1.9190 hc        1 04O      0.053700
     33 H46         7.6780    0.8870   -1.1400 ha        1 04O      0.131000
     34 H51        -2.2450   -1.2290   -1.1740 h1        1 04O      0.080700
     35 H56         6.2600   -0.8370   -2.2570 ha        1 04O      0.131500
     36 H61        -1.2140   -2.1760    1.6190 h1        1 04O      0.064200
     37 H61A       -1.1920   -3.1260    0.0440 h1        1 04O      0.064200
     38 H66         4.0180   -1.4060   -1.3240 ha        1 04O      0.132500
     39 HBJ         0.3100   -0.2170    1.6890 h2        1 04O      0.042700
     40 H2         -4.8390   -1.8800   -1.5550 ho        1 04O      0.421000
     41 C35         1.7160    0.1830    0.0130 c3        1 04O     -0.067400
     42 C45         2.8380   -0.3540    0.8770 c3        1 04O     -0.037100
@<TRIPOS>BOND
     1    1    2 1   
     2    1    4 1   
     3    1   14 1   
     4    1   20 1   
     5    2   40 1   
     6    3    6 ar  
     7    3   18 ar  
     8    3   42 1   
     9    4    5 1   
    10    4    7 1   
    11    4   21 1   
    12    5   22 1   
    13    5   23 1   
    14    6    9 ar  
    15    6   24 1   
    16    7    8 1   
    17    7   10 1   
    18    7   25 1   
    19    8   26 1   
    20    9   12 ar  
    21    9   29 1   
    22   10   11 1   
    23   10   13 1   
    24   10   30 1   
    25   11   19 1   
    26   12   15 ar  
    27   12   33 1   
    28   13   14 1   
    29   13   16 1   
    30   13   34 1   
    31   15   18 ar  
    32   15   35 1   
    33   16   17 1   
    34   16   36 1   
    35   16   37 1   
    36   17   19 1   
    37   18   38 1   
    38   19   39 1   
    39   19   41 1   
    40   27   41 1   
    41   28   41 1   
    42   31   42 1   
    43   32   42 1   
    44   41   42 1   
@<TRIPOS>SUBSTRUCTURE
     1 04O         1 TEMP              0 ****  ****    0 ROOT
