@<TRIPOS>MOLECULE
04O
   43    41     1     0     0
SMALL
bcc


@<TRIPOS>ATOM
      1 C11        -0.1940   -0.5350   -1.0650 c2        1 04O      0.060000
      2 O11         0.0800   -1.5350   -0.1670 oh        1 04O     -0.287000
      3 C16         2.9070    3.6990    7.7920 c2        1 04O     -0.104000
      4 C21         0.7530    0.1710   -1.7290 c2        1 04O     -0.177000
      5 N21         2.1320   -0.0170   -1.5820 n3        1 04O     -0.305000
      6 C26         4.1390    3.7060    8.3210 c2        1 04O     -0.159000
      7 C31         2.2250   -0.0630    1.9360 c3        1 04O     -0.034000
      8 O31         3.4190    0.5820    1.5640 oh        1 04O     -0.325000
      9 C36         1.5670    3.5280   11.1450 c1        1 04O     -0.117000
     10 C41         1.2490    0.9740    2.5030 c3        1 04O      0.059000
     11 O41         1.6590    1.0750    3.9500 os        1 04O     -0.100000
     12 C46         1.4850    3.3960   12.4390 c2        1 04O     -0.101000
     13 C51        -0.1680    0.5650    2.4640 c2        1 04O     -0.276000
     14 O51        -1.5490   -0.3270   -1.0650 oh        1 04O     -0.287000
     15 C56         1.6440    3.6620    9.8920 c1        1 04O     -0.095000
     16 C61        -1.1610    1.2350    3.0770 c2        1 04O      0.031000
     17 O61        -0.8420    2.3240    3.8600 oh        1 04O     -0.326000
     18 C66         1.6940    3.8020    8.5880 c2        1 04O     -0.092000
     19 CBJ         1.6890    2.2290    4.5250 c2        1 04O      0.283000
     20 H11        -1.8080    0.0130   -1.9340 ho        1 04O      0.244000
     21 H21         1.7320   -0.5970    1.0790 h1        1 04O      0.141000
     22 HN21        2.3600   -0.9400   -1.2630 hn        1 04O      0.175500
     23 HN2A        0.4470    1.0140   -2.3740 h4        1 04O      0.161000
     24 H26         5.0480    3.6370    7.7080 ha        1 04O      0.132000
     25 H31         2.5080   -0.8040    2.7350 h1        1 04O      0.141000
     26 HO31        3.3580    0.8080    0.6250 ho        1 04O      0.233000
     27 H35         1.1440    2.1080    6.5600 hc        1 04O      0.173000
     28 H35A        2.7830    1.4310    6.2040 hc        1 04O      0.173000
     29 H36         4.3040    3.7920    9.4050 ha        1 04O      0.132000
     30 H41         1.4120    1.9880    2.0440 h1        1 04O      0.131000
     31 H45         3.6780    3.7380    5.7780 hc        1 04O      0.103000
     32 H45A        2.0240    4.4520    5.9880 hc        1 04O      0.103000
     33 H46         2.3660    3.1710   13.0600 ha        1 04O      0.146000
     34 H51        -2.2250    0.9580    3.0070 h4        1 04O      0.171000
     35 H56         0.5310    3.5030   12.9780 ha        1 04O      0.146000
     36 H61        -0.4000   -0.3220    1.8450 ha        1 04O      0.197000
     37 H61A       -1.6670    2.7390    4.1530 ho        1 04O      0.256000
     38 H66         0.7650    4.0360    8.0360 ha        1 04O      0.128000
     39 HBJ         1.4170    3.1580    3.9740 h4        1 04O      0.187000
     40 H2         -0.6800   -2.1420   -0.1590 ho        1 04O      0.244000
     41 C35         2.0820    2.2750    5.9470 c3        1 04O     -0.220000
     42 C45         2.6990    3.6160    6.3150 c3        1 04O     -0.120000
     43 H213        2.6200    0.1910   -2.4320 hn        1 04O      0.175500
@<TRIPOS>BOND
     1    1    2 1   
     2    1    4 1   
     3    1   14 1   
     4    2   40 1   
     5    3    6 1   
     6    3   18 1   
     7    3   42 1   
     8    4    5 1   
     9    4   23 1   
    10    5   22 1   
    11    5   43 1   
    12    6   24 1   
    13    6   29 1   
    14    7    8 1   
    15    7   10 1   
    16    7   21 1   
    17    7   25 1   
    18    8   26 1   
    19    9   12 1   
    20    9   15 1   
    21   10   11 1   
    22   10   13 1   
    23   10   30 1   
    24   11   19 1   
    25   12   33 1   
    26   12   35 1   
    27   13   16 1   
    28   13   36 1   
    29   14   20 1   
    30   15   18 1   
    31   16   17 1   
    32   16   34 1   
    33   17   37 1   
    34   18   38 1   
    35   19   39 1   
    36   19   41 1   
    37   27   41 1   
    38   28   41 1   
    39   31   42 1   
    40   32   42 1   
    41   41   42 1   
@<TRIPOS>SUBSTRUCTURE
     1 04O         1 TEMP              0 ****  ****    0 ROOT
