@<TRIPOS>MOLECULE
04P
   27    25     1     0     0
SMALL
bcc


@<TRIPOS>ATOM
      1 C20        -0.3480   -0.4970   -0.5690 c3        1 04P      0.126400
      2 C27         0.3920   -1.8120   -0.7520 c3        1 04P     -0.091400
      3 C32         3.2880    0.0110    2.2770 c2        1 04P      0.383800
      4 C33         1.5830   -1.7130   -1.6790 c3        1 04P     -0.078400
      5 N37         3.2520   -0.6750    1.2260 n1        1 04P     -0.473800
      6 C38         2.6630   -0.7810   -1.1620 c3        1 04P     -0.164700
      7 C40         3.2270   -1.3040    0.1240 c2        1 04P      0.481900
      8 C41         5.3410    1.6570    3.0450 c1        1 04P     -0.035000
      9 N42         5.2970    2.9420    2.6640 n3        1 04P     -0.433900
     10 N43         6.3070    1.1420    3.8190 n3        1 04P     -0.433900
     11 H201       -0.4050    0.0700   -1.5370 h1        1 04P      0.042700
     12 H202       -1.3890   -0.6960   -0.1970 h1        1 04P      0.042700
     13 H27        -0.3310   -2.5590   -1.1770 hc        1 04P      0.061200
     14 H321        4.2620    0.7620    2.5900 h4        1 04P      0.115800
     15 H322        2.4370   -0.0480    2.9900 h4        1 04P      0.115800
     16 H331        0.7210   -2.1890    0.2520 hc        1 04P      0.061200
     17 H332        2.0110   -2.7390   -1.8370 hc        1 04P      0.066200
     18 H381        1.2500   -1.3320   -2.6820 hc        1 04P      0.066200
     19 H382        2.2320    0.2500   -1.0410 hc        1 04P      0.092200
     20 H401        3.5080   -0.7260   -1.9020 hc        1 04P      0.092200
     21 H402        3.6490   -2.3370    0.1010 h4        1 04P      0.050800
     22 H42         4.5370    3.2310    2.0950 hn        1 04P      0.284950
     23 H431        5.9600    3.6400    2.9170 hn        1 04P      0.284950
     24 H432        7.0760    1.6510    4.1940 hn        1 04P      0.284950
     25 OXT         0.3610    0.2810    0.3900 oh        1 04P     -0.641800
     26 HXT        -0.2040    1.0330    0.6030 ho        1 04P      0.415000
     27 H433        6.2490    0.1800    4.0540 hn        1 04P      0.284950
@<TRIPOS>BOND
     1    1    2 1   
     2    1   11 1   
     3    1   12 1   
     4    1   25 1   
     5    2    4 1   
     6    2   13 1   
     7    2   16 1   
     8    3    5 2   
     9    3   14 1   
    10    3   15 1   
    11    4    6 1   
    12    4   17 1   
    13    4   18 1   
    14    5    7 2   
    15    6    7 1   
    16    6   19 1   
    17    6   20 1   
    18    7   21 1   
    19    8    9 2   
    20    8   10 2   
    21    9   22 1   
    22    9   23 1   
    23   10   24 1   
    24   10   27 1   
    25   25   26 1   
@<TRIPOS>SUBSTRUCTURE
     1 04P         1 TEMP              0 ****  ****    0 ROOT
