@<TRIPOS>MOLECULE
04P
   26    26     1     0     0
SMALL
bcc


@<TRIPOS>ATOM
      1 C20         2.7160   -0.3530    0.2660 c3        1 04P      0.136400
      2 C27         1.3340    0.1060   -0.1860 c3        1 04P     -0.097700
      3 C32         0.2780   -0.3480    0.8310 c3        1 04P      0.188800
      4 C33         1.3240    1.6180   -0.3390 c3        1 04P     -0.073400
      5 N37        -1.0580    0.2040    0.6770 nh        1 04P     -0.697600
      6 C38        -0.0720    2.1180   -0.6420 c3        1 04P     -0.106400
      7 C40        -1.0600    1.6380    0.4210 c3        1 04P      0.171800
      8 C41        -1.9290   -0.5300   -0.2460 c2        1 04P      0.733100
      9 N42        -1.4820   -1.0120   -1.3730 n2        1 04P     -0.848100
     10 N43        -3.2920   -0.5880    0.1870 nh        1 04P     -0.927800
     11 H201        3.4980    0.0410   -0.4380 h1        1 04P      0.020200
     12 H202        2.9410    0.0190    1.3030 h1        1 04P      0.020200
     13 H27         1.1090   -0.3720   -1.1800 hc        1 04P      0.094700
     14 H321        0.2300   -1.4720    0.8130 h1        1 04P      0.060700
     15 H322        0.6120   -0.0270    1.8610 h1        1 04P      0.060700
     16 H331        1.6970    2.0950    0.6060 hc        1 04P      0.038200
     17 H332        2.0200    1.9170   -1.1650 hc        1 04P      0.038200
     18 H381       -0.0810    3.2380   -0.6630 hc        1 04P      0.052700
     19 H382       -0.3930    1.7520   -1.6520 hc        1 04P      0.052700
     20 H401       -2.0980    1.9630    0.1360 h1        1 04P      0.055200
     21 H402       -0.7980    2.1250    1.4040 h1        1 04P      0.055200
     22 H42        -2.1340   -1.5340   -1.9170 hn        1 04P      0.390400
     23 H431       -3.4480   -0.2930    1.1260 hn        1 04P      0.391300
     24 H432       -3.7370   -1.4570   -0.0140 hn        1 04P      0.391300
     25 OXT         2.7250   -1.7720    0.2570 oh        1 04P     -0.599800
     26 HXT         3.6260   -2.0420    0.4690 ho        1 04P      0.397000
@<TRIPOS>BOND
     1    1    2 1   
     2    1   11 1   
     3    1   12 1   
     4    1   25 1   
     5    2    3 1   
     6    2    4 1   
     7    2   13 1   
     8    3    5 1   
     9    3   14 1   
    10    3   15 1   
    11    4    6 1   
    12    4   16 1   
    13    4   17 1   
    14    5    7 1   
    15    5    8 1   
    16    6    7 1   
    17    6   18 1   
    18    6   19 1   
    19    7   20 1   
    20    7   21 1   
    21    8    9 2   
    22    8   10 1   
    23    9   22 1   
    24   10   23 1   
    25   10   24 1   
    26   25   26 1   
@<TRIPOS>SUBSTRUCTURE
     1 04P         1 TEMP              0 ****  ****    0 ROOT
