@<TRIPOS>MOLECULE
04P
   27    26     1     0     0
SMALL
bcc


@<TRIPOS>ATOM
      1 C20        -0.0430   -0.2160   -0.6830 c3        1 04P     -0.024000
      2 C27         1.3250    0.2990   -1.1000 c3        1 04P     -0.166000
      3 C32         2.2220    0.7800    2.5370 c1        1 04P     -0.112000
      4 C33         2.3420   -0.8070   -1.3050 c3        1 04P     -0.159000
      5 N37         3.2370    0.0930    2.0220 n3        1 04P     -0.155000
      6 C38         3.5290   -0.7100   -0.3660 c3        1 04P     -0.179000
      7 C40         3.1370   -1.0230    1.0800 c3        1 04P     -0.125000
      8 C41         4.5510    0.5240    2.4510 cz        1 04P      0.386000
      9 N42         4.6440    1.4320    3.4590 n3        1 04P     -0.325000
     10 N43         5.6730    0.0160    1.8580 n3        1 04P     -0.325000
     11 H201       -0.8070    0.6030   -0.7780 h1        1 04P      0.084000
     12 H202        2.0480   -1.3440    1.1040 h1        1 04P      0.141000
     13 H27        -0.3570   -1.0860   -1.3200 h1        1 04P      0.084000
     14 H321        1.1930    0.8690   -2.0590 hc        1 04P      0.095000
     15 H322        1.2000    0.4930    2.2160 ha        1 04P      0.148000
     16 H331        1.6850    1.0260   -0.3260 hc        1 04P      0.095000
     17 H332        2.7300   -0.7640   -2.3580 hc        1 04P      0.103500
     18 H381        1.8530   -1.8100   -1.1790 hc        1 04P      0.103500
     19 H382        4.3010   -1.4590   -0.6910 hc        1 04P      0.093500
     20 H401        3.9890    0.3080   -0.4650 hc        1 04P      0.093500
     21 H402        3.7440   -1.8900    1.4680 h1        1 04P      0.141000
     22 H42         3.7930    1.8140    3.8460 hn        1 04P      0.289000
     23 H431        5.5230    1.7780    3.7760 hn        1 04P      0.289000
     24 H432        5.6040   -0.6390    1.1080 hn        1 04P      0.289000
     25 OXT         0.0420   -0.6240    0.6780 oh        1 04P     -0.377000
     26 HXT        -0.8290   -0.9550    0.9260 ho        1 04P      0.223000
     27 H433        6.5840    0.2860    2.1590 hn        1 04P      0.289000
@<TRIPOS>BOND
     1    1    2 1   
     2    1   11 1   
     3    1   13 1   
     4    1   25 1   
     5    2    4 1   
     6    2   14 1   
     7    2   16 1   
     8    3    5 1   
     9    3   15 1   
    10    4    6 1   
    11    4   17 1   
    12    4   18 1   
    13    5    7 1   
    14    5    8 1   
    15    6    7 1   
    16    6   19 1   
    17    6   20 1   
    18    7   12 1   
    19    7   21 1   
    20    8    9 1   
    21    8   10 1   
    22    9   22 1   
    23    9   23 1   
    24   10   24 1   
    25   10   27 1   
    26   25   26 1   
@<TRIPOS>SUBSTRUCTURE
     1 04P         1 TEMP              0 ****  ****    0 ROOT
