@<TRIPOS>MOLECULE
04P
   26    25     1     0     0
SMALL
bcc


@<TRIPOS>ATOM
      1 C20        -1.0950    1.0640   -0.9780 c3        1 04P      0.129400
      2 C27         0.4500    1.0640   -0.9780 c3        1 04P     -0.093700
      3 C32         0.9420    1.0640    0.4660 c3        1 04P      0.186800
      4 C33         0.9230   -0.1050   -1.7280 c3        1 04P     -0.071400
      5 N37         0.6610   -0.1940    1.1510 nh        1 04P     -0.674400
      6 C38         0.6370   -1.3700   -1.0310 c3        1 04P     -0.112400
      7 C40         1.1270   -1.3610    0.4090 c3        1 04P      0.178800
      8 C41        -0.4770   -0.3010    2.0180 c2        1 04P      0.312000
      9 N42        -0.6870    0.6070    2.9390 n1        1 04P     -0.315000
     10 N43        -1.3780   -1.3940    1.8780 nh        1 04P     -0.829600
     11 H201       -1.4210    0.1550   -1.1270 h1        1 04P      0.033700
     12 H202       -1.4200    1.3890   -0.1170 h1        1 04P      0.033700
     13 H27         0.7670    1.8740   -1.4210 hc        1 04P      0.071700
     14 H321        0.5050    1.7910    0.9490 h1        1 04P      0.056200
     15 H322        1.9060    1.2160    0.4710 h1        1 04P      0.056200
     16 H331        0.4840   -0.1190   -2.6010 hc        1 04P      0.051700
     17 H332        1.8870   -0.0280   -1.8600 hc        1 04P      0.051700
     18 H381       -0.3280   -1.5220   -1.0350 hc        1 04P      0.047700
     19 H382        1.0740   -2.1000   -1.5090 hc        1 04P      0.047700
     20 H401        0.8080   -2.1680    0.8560 h1        1 04P      0.051200
     21 H402        2.1040   -1.3650    0.4100 h1        1 04P      0.051200
     22 H42        -0.1100    1.3070    3.0290 DU        1 04P      0.158000
     23 H431       -1.1580   -2.2120    2.2170 hn        1 04P      0.393800
     24 H432       -2.1980   -1.2630    1.5010 hn        1 04P      0.393800
     25 OXT        -1.5680    1.9110   -2.0120 oh        1 04P     -0.607800
     26 HXT        -2.4350    2.0610   -1.8990 ho        1 04P      0.400000
@<TRIPOS>BOND
     1    1    2 1   
     2    1   11 1   
     3    1   12 1   
     4    1   25 1   
     5    2    3 1   
     6    2    4 1   
     7    2   13 1   
     8    3    5 1   
     9    3   14 1   
    10    3   15 1   
    11    4    6 1   
    12    4   16 1   
    13    4   17 1   
    14    5    7 1   
    15    5    8 1   
    16    6    7 1   
    17    6   18 1   
    18    6   19 1   
    19    7   20 1   
    20    7   21 1   
    21    8    9 2   
    22    8   10 1   
    23   10   23 1   
    24   10   24 1   
    25   25   26 1   
@<TRIPOS>SUBSTRUCTURE
     1 04P         1 TEMP              0 ****  ****    0 ROOT
