@<TRIPOS>MOLECULE
04Q
   23    23     1     0     0
SMALL
bcc


@<TRIPOS>ATOM
      1 N5         -0.1490    0.7310   -0.0140 n4        1 04Q     -0.749000
      2 C9          1.3170    0.4470    0.0070 c3        1 04Q      0.170100
      3 C10        -0.8200    0.3230    1.2460 c3        1 04Q     -0.086200
      4 C16         1.8500    0.2160   -1.3690 ca        1 04Q     -0.164300
      5 C17        -1.2310   -1.2140    1.1680 c         1 04Q      0.930600
      6 C21         2.7830    1.0920   -1.9320 ca        1 04Q     -0.106500
      7 C22         1.4280   -0.9170   -2.0770 ca        1 04Q     -0.106500
      8 O23        -1.5980   -1.7150    2.2430 o         1 04Q     -0.769300
      9 O24        -1.1340   -1.7320    0.0220 o         1 04Q     -0.769300
     10 C28         3.2950    0.8330   -3.2020 ca        1 04Q     -0.129500
     11 C29         1.9420   -1.1660   -3.3480 ca        1 04Q     -0.129500
     12 C34         2.8740   -0.2930   -3.9100 ca        1 04Q     -0.104000
     13 H91C        1.8380    1.3050    0.5150 hx        1 04Q      0.102200
     14 H92C        1.4660   -0.4920    0.6220 hx        1 04Q      0.102200
     15 H101       -1.7550    0.9260    1.3710 hx        1 04Q      0.084700
     16 H102       -0.1410    0.4840    2.1210 hx        1 04Q      0.084700
     17 H21         3.1210    1.9770   -1.3730 ha        1 04Q      0.159500
     18 H22         0.6960   -1.6130   -1.6200 ha        1 04Q      0.159500
     19 H28         4.0340    1.5180   -3.6440 ha        1 04Q      0.144500
     20 H29         1.6120   -2.0570   -3.9050 ha        1 04Q      0.144500
     21 H34         3.2810   -0.4950   -4.9130 ha        1 04Q      0.141000
     22 H2         -0.3170    1.7090   -0.2340 hn        1 04Q      0.446300
     23 H52        -0.5750    0.1260   -0.7560 hn        1 04Q      0.446300
@<TRIPOS>BOND
     1    1    2 1   
     2    1    3 1   
     3    1   22 1   
     4    1   23 1   
     5    2    4 1   
     6    2   13 1   
     7    2   14 1   
     8    3    5 1   
     9    3   15 1   
    10    3   16 1   
    11    4    6 ar  
    12    4    7 ar  
    13    5    8 1   
    14    5    9 1   
    15    6   10 ar  
    16    6   17 1   
    17    7   11 ar  
    18    7   18 1   
    19   10   12 ar  
    20   10   19 1   
    21   11   12 ar  
    22   11   20 1   
    23   12   21 1   
@<TRIPOS>SUBSTRUCTURE
     1 04Q         1 TEMP              0 ****  ****    0 ROOT
