@<TRIPOS>MOLECULE
04Q
   22    20     1     0     0
SMALL
bcc


@<TRIPOS>ATOM
      1 N5         -1.1550    0.0820    1.0610 n3        1 04Q     -0.277000
      2 C9          0.3270    0.0520    1.0210 c3        1 04Q     -0.062000
      3 C10        -1.5970   -0.1050    2.3800 c3        1 04Q     -0.169000
      4 C16         0.8040    0.1000   -0.4230 c2        1 04Q     -0.049000
      5 C17        -3.1030   -0.5490    2.3670 c2        1 04Q      0.304000
      6 C21         1.3060    1.2770   -0.9780 c2        1 04Q     -0.124000
      7 C22         0.8370   -1.0830   -1.1600 c1        1 04Q     -0.117000
      8 O23        -4.0030    0.2720    2.6810 o         1 04Q     -0.583000
      9 O24        -3.4030   -1.7210    2.0850 o         1 04Q     -0.583000
     10 C28         1.8370    1.2660   -2.2590 c1        1 04Q     -0.143000
     11 C29         1.3670   -1.0870   -2.4350 c1        1 04Q     -0.149500
     12 C34         1.8680    0.0870   -2.9870 c1        1 04Q     -0.149500
     13 H91C        0.6900    0.8410    1.5160 h1        1 04Q      0.090000
     14 H92C        0.6380   -0.7490    1.4280 h1        1 04Q      0.090000
     15 H101       -1.5110    0.7330    2.8730 h1        1 04Q      0.073500
     16 H102       -1.0470   -0.8020    2.8150 h1        1 04Q      0.073500
     17 H21         1.2860    2.0910   -0.4740 ha        1 04Q      0.143000
     18 H22         0.4840   -1.9210   -0.7680 ha        1 04Q      0.142000
     19 H28         2.2090    2.1340   -2.6700 ha        1 04Q      0.116000
     20 H29         1.3890   -1.9070   -2.9480 ha        1 04Q      0.112500
     21 H34         2.2340    0.0820   -3.8700 ha        1 04Q      0.112500
     22 H2         -1.4580    0.9100    0.7450 hn        1 04Q      0.148000
@<TRIPOS>BOND
     1    1    2 1   
     2    1    3 1   
     3    1   22 1   
     4    2    4 1   
     5    2   13 1   
     6    2   14 1   
     7    3    5 1   
     8    3   15 1   
     9    3   16 1   
    10    4    6 1   
    11    4    7 1   
    12    5    8 1   
    13    5    9 1   
    14    6   10 1   
    15    6   17 1   
    16    7   18 1   
    17   10   19 1   
    18   11   12 1   
    19   11   20 1   
    20   12   21 1   
@<TRIPOS>SUBSTRUCTURE
     1 04Q         1 TEMP              0 ****  ****    0 ROOT
