@<TRIPOS>MOLECULE
04Q
   23    23     1     0     0
SMALL
bcc


@<TRIPOS>ATOM
      1 N5         -0.1690    0.6900   -0.0100 n4        1 04Q     -0.749000
      2 C9          1.3060    0.4590    0.0040 c3        1 04Q      0.170100
      3 C10        -0.8190    0.2620    1.2550 c3        1 04Q     -0.086200
      4 C16         1.8400    0.2440   -1.3740 ca        1 04Q     -0.164300
      5 C17        -1.1750   -1.2880    1.1830 c         1 04Q      0.930600
      6 C21         2.7380    1.1510   -1.9430 ca        1 04Q     -0.106500
      7 C22         1.4550   -0.9060   -2.0770 ca        1 04Q     -0.106500
      8 O23        -1.5190   -1.7990    2.2610 o         1 04Q     -0.769300
      9 O24        -1.0660   -1.8060    0.0380 o         1 04Q     -0.769300
     10 C28         3.2530    0.9080   -3.2160 ca        1 04Q     -0.129500
     11 C29         1.9710   -1.1390   -3.3510 ca        1 04Q     -0.129500
     12 C34         2.8690   -0.2340   -3.9190 ca        1 04Q     -0.104000
     13 H91C        1.4910   -0.4730    0.6200 hx        1 04Q      0.102200
     14 H92C        1.7990    1.3360    0.5080 hx        1 04Q      0.102200
     15 H101       -0.1420    0.4500    2.1260 hx        1 04Q      0.084700
     16 H102       -1.7740    0.8320    1.3830 hx        1 04Q      0.084700
     17 H21         3.0470    2.0490   -1.3880 ha        1 04Q      0.159500
     18 H22         0.7510   -1.6260   -1.6150 ha        1 04Q      0.159500
     19 H28         3.9650    1.6180   -3.6630 ha        1 04Q      0.144500
     20 H29         1.6700   -2.0420   -3.9040 ha        1 04Q      0.144500
     21 H34         3.2780   -0.4230   -4.9230 ha        1 04Q      0.141000
     22 H2         -0.5770    0.0690   -0.7480 hn        1 04Q      0.446300
     23 H52        -0.3730    1.6610   -0.2320 hn        1 04Q      0.446300
@<TRIPOS>BOND
     1    1    2 1   
     2    1    3 1   
     3    1   22 1   
     4    1   23 1   
     5    2    4 1   
     6    2   13 1   
     7    2   14 1   
     8    3    5 1   
     9    3   15 1   
    10    3   16 1   
    11    4    6 ar  
    12    4    7 ar  
    13    5    8 1   
    14    5    9 1   
    15    6   10 ar  
    16    6   17 1   
    17    7   11 ar  
    18    7   18 1   
    19   10   12 ar  
    20   10   19 1   
    21   11   12 ar  
    22   11   20 1   
    23   12   21 1   
@<TRIPOS>SUBSTRUCTURE
     1 04Q         1 TEMP              0 ****  ****    0 ROOT
