@<TRIPOS>MOLECULE
04Q
   22    22     1     0     0
SMALL
bcc


@<TRIPOS>ATOM
      1 N5          0.9370    0.7810    0.0670 n3        1 04Q     -0.798200
      2 C9          0.0370   -0.0240    0.8850 c3        1 04Q      0.182100
      3 C10         2.3040    0.7350    0.5620 c3        1 04Q      0.017800
      4 C16        -1.3730   -0.0420    0.3700 ca        1 04Q     -0.056300
      5 C17         3.0500   -0.6180    0.4410 c         1 04Q      0.884600
      6 C21        -2.0080   -1.2610    0.1070 ca        1 04Q     -0.120500
      7 C22        -2.0770    1.1530    0.1770 ca        1 04Q     -0.120500
      8 O23         4.1870   -0.6930    0.9850 o         1 04Q     -0.848300
      9 O24         2.4970   -1.5650   -0.1890 o         1 04Q     -0.848300
     10 C28        -3.3320   -1.2840   -0.3290 ca        1 04Q     -0.145000
     11 C29        -3.3990    1.1270   -0.2620 ca        1 04Q     -0.145000
     12 C34        -4.0300   -0.0910   -0.5130 ca        1 04Q     -0.152000
     13 H91C        0.4140   -1.0870    0.9860 h1        1 04Q      0.050700
     14 H92C        0.0210    0.4300    1.9190 h1        1 04Q      0.050700
     15 H101        2.8860    1.4980   -0.0240 h1        1 04Q      0.034200
     16 H102        2.3140    1.0460    1.6410 h1        1 04Q      0.034200
     17 H21        -1.4510   -2.2020    0.2370 ha        1 04Q      0.142500
     18 H22        -1.5710    2.1120    0.3670 ha        1 04Q      0.142500
     19 H28        -3.8230   -2.2450   -0.5340 ha        1 04Q      0.115000
     20 H29        -3.9450    2.0690   -0.4130 ha        1 04Q      0.115000
     21 H34        -5.0730   -0.1110   -0.8580 ha        1 04Q      0.111000
     22 H2          0.9360    0.3920   -0.8640 hn        1 04Q      0.352800
@<TRIPOS>BOND
     1    1    2 1   
     2    1    3 1   
     3    1   22 1   
     4    2    4 1   
     5    2   13 1   
     6    2   14 1   
     7    3    5 1   
     8    3   15 1   
     9    3   16 1   
    10    4    6 ar  
    11    4    7 ar  
    12    5    8 1   
    13    5    9 1   
    14    6   10 ar  
    15    6   17 1   
    16    7   11 ar  
    17    7   18 1   
    18   10   12 ar  
    19   10   19 1   
    20   11   12 ar  
    21   11   20 1   
    22   12   21 1   
@<TRIPOS>SUBSTRUCTURE
     1 04Q         1 TEMP              0 ****  ****    0 ROOT
