@<TRIPOS>MOLECULE
04Q
   23    23     1     0     0
SMALL
bcc


@<TRIPOS>ATOM
      1 N5         -0.1700   -0.6960   -0.0150 ny        1 04Q     -0.749000
      2 C9          1.3060   -0.4660    0.0010 c3        1 04Q      0.170100
      3 C10        -0.8190   -0.2760    1.2530 c3        1 04Q     -0.086200
      4 C16         1.8400   -0.2430   -1.3760 ca        1 04Q     -0.164300
      5 C17        -1.1750    1.2740    1.1910 c         1 04Q      0.930600
      6 C21         1.4560    0.9120   -2.0710 ca        1 04Q     -0.106500
      7 C22         2.7370   -1.1460   -1.9500 ca        1 04Q     -0.106500
      8 O23        -1.5190    1.7780    2.2720 o         1 04Q     -0.769300
      9 O24        -1.0650    1.7990    0.0490 o         1 04Q     -0.769300
     10 C28         1.9720    1.1530   -3.3430 ca        1 04Q     -0.129500
     11 C29         3.2530   -0.8950   -3.2210 ca        1 04Q     -0.129500
     12 C34         2.8700    0.2520   -3.9170 ca        1 04Q     -0.104000
     13 H91C        1.4910    0.4610    0.6240 hx        1 04Q      0.102200
     14 H92C        1.7980   -1.3460    0.5000 hx        1 04Q      0.102200
     15 H101       -0.1430   -0.4700    2.1220 hx        1 04Q      0.084700
     16 H102       -1.7750   -0.8470    1.3770 hx        1 04Q      0.084700
     17 H21         0.7510    1.6300   -1.6050 ha        1 04Q      0.159500
     18 H22         3.0470   -2.0480   -1.4010 ha        1 04Q      0.159500
     19 H28         1.6720    2.0600   -3.8900 ha        1 04Q      0.144500
     20 H29         3.9650   -1.6020   -3.6730 ha        1 04Q      0.144500
     21 H34         3.2790    0.4470   -4.9200 ha        1 04Q      0.141000
     22 H2         -0.5770   -0.0700   -0.7480 hn        1 04Q      0.446300
     23 H52        -0.3740   -1.6660   -0.2430 hn        1 04Q      0.446300
@<TRIPOS>BOND
     1    1    2 1   
     2    1    3 1   
     3    1   22 1   
     4    1   23 1   
     5    2    4 1   
     6    2   13 1   
     7    2   14 1   
     8    3    5 1   
     9    3   15 1   
    10    3   16 1   
    11    4    6 ar  
    12    4    7 ar  
    13    5    8 1   
    14    5    9 1   
    15    6   10 ar  
    16    6   17 1   
    17    7   11 ar  
    18    7   18 1   
    19   10   12 ar  
    20   10   19 1   
    21   11   12 ar  
    22   11   20 1   
    23   12   21 1   
@<TRIPOS>SUBSTRUCTURE
     1 04Q         1 TEMP              0 ****  ****    0 ROOT
