@<TRIPOS>MOLECULE
04R
   27    25     1     0     0
SMALL
bcc


@<TRIPOS>ATOM
      1 F1         -3.1620    2.4130    1.1930 f         1 04R     -0.179000
      2 C2         -1.7880    2.3330    1.3640 c3        1 04R      0.517000
      3 F3         -1.5070    2.1720    2.6610 f         1 04R     -0.179000
      4 F4         -1.2220    3.4450    0.9240 f         1 04R     -0.179000
      5 C5         -1.2460    1.1350    0.5690 c2        1 04R     -0.235000
      6 N6         -2.0240    0.1800   -0.1180 n2        1 04R     -0.051000
      7 N          -1.1610   -0.8240   -0.6130 n2        1 04R     -0.026000
      8 C8          0.1120   -0.5050   -0.2480 c1        1 04R     -0.040000
      9 C9          0.0630    0.7380    0.5030 c1        1 04R     -0.165000
     10 C10         1.4400    1.4240    0.8880 c2        1 04R     -0.092500
     11 C11         2.6150    0.8350    0.3530 c3        1 04R     -0.149500
     12 C12         2.6240   -0.5940    0.2160 c3        1 04R     -0.149500
     13 C13         1.5370   -1.1710   -0.4870 c2        1 04R     -0.092500
     14 CA         -1.5650   -1.9910   -1.3980 c2        1 04R     -0.116000
     15 C          -3.1170   -2.0120   -1.5320 c2        1 04R      0.339000
     16 O          -3.8340   -2.6420   -0.6540 o         1 04R     -0.549500
     17 H10         1.4090    2.3480    0.5900 ha        1 04R      0.103250
     18 H10A        1.5210    1.4210    1.8970 ha        1 04R      0.103250
     19 H11         2.7780    1.2460   -0.5780 hc        1 04R      0.072000
     20 H11A        3.3600    1.0840    0.9280 hc        1 04R      0.072000
     21 H12         2.6050   -0.9730    1.1390 hc        1 04R      0.072000
     22 H12A        3.4820   -0.8410   -0.3100 hc        1 04R      0.072000
     23 H13         1.7280   -1.0830   -1.4110 ha        1 04R      0.103250
     24 H13A        1.4710   -2.0780   -0.2020 ha        1 04R      0.103250
     25 H14        -1.2620   -2.8130   -0.9430 ha        1 04R      0.097500
     26 H14A       -1.1640   -1.9430   -2.2810 ha        1 04R      0.097500
     27 OXT        -3.6960   -1.3030   -2.4480 o         1 04R     -0.549500
@<TRIPOS>BOND
     1    1    2 1   
     2    2    3 1   
     3    2    4 1   
     4    2    5 1   
     5    5    6 1   
     6    5    9 1   
     7    6    7 1   
     8    7    8 1   
     9    8    9 1   
    10   10   11 1   
    11   10   17 1   
    12   10   18 1   
    13   11   12 1   
    14   11   19 1   
    15   11   20 1   
    16   12   13 1   
    17   12   21 1   
    18   12   22 1   
    19   13   23 1   
    20   13   24 1   
    21   14   15 1   
    22   14   25 1   
    23   14   26 1   
    24   15   16 1   
    25   15   27 1   
@<TRIPOS>SUBSTRUCTURE
     1 04R         1 TEMP              0 ****  ****    0 ROOT
