@<TRIPOS>MOLECULE
04R
   27    28     1     0     0
SMALL
bcc


@<TRIPOS>ATOM
      1 F1          2.8920   -1.8610   -1.1730 f         1 04R     -0.249633
      2 C2          2.4560   -1.1820   -0.0580 c3        1 04R      0.636600
      3 F3          2.5540   -2.1150    0.9470 f         1 04R     -0.249633
      4 F4          3.4910   -0.3140    0.2080 f         1 04R     -0.249633
      5 C5          1.1070   -0.5330   -0.1990 cc        1 04R      0.184600
      6 N6         -0.0210   -1.2610   -0.5060 nd        1 04R     -0.477800
      7 N          -1.0380   -0.4070   -0.5670 na        1 04R      0.188400
      8 C8         -0.6210    0.9040   -0.3020 cd        1 04R     -0.078600
      9 C9          0.7730    0.8540   -0.0590 cc        1 04R     -0.233600
     10 C10         1.5690    2.0390    0.2740 c3        1 04R      0.008900
     11 C11         0.8020    3.3080   -0.0710 c3        1 04R     -0.074400
     12 C12        -0.6410    3.2530    0.3930 c3        1 04R     -0.068400
     13 C13        -1.4330    2.1350   -0.2680 c3        1 04R     -0.031100
     14 CA         -2.4020   -0.7920   -0.9000 c3        1 04R     -0.106700
     15 C          -3.4420   -0.7460    0.2710 c         1 04R      0.919600
     16 O          -3.5000    0.2820    0.9930 o         1 04R     -0.812800
     17 H10         1.8090    2.0300    1.3720 hc        1 04R      0.042700
     18 H10A        2.5480    2.0220   -0.2770 hc        1 04R      0.042700
     19 H11         1.3150    4.1850    0.4030 hc        1 04R      0.028700
     20 H11A        0.8270    3.4630   -1.1820 hc        1 04R      0.028700
     21 H12        -0.6630    3.1050    1.5050 hc        1 04R      0.038700
     22 H12A       -1.1410    4.2310    0.1710 hc        1 04R      0.038700
     23 H13        -1.7080    2.4260   -1.3180 hc        1 04R      0.085700
     24 H13A       -2.3910    1.9460    0.3010 hc        1 04R      0.085700
     25 H14        -2.7550   -0.0710   -1.6890 h1        1 04R      0.058200
     26 H14A       -2.4000   -1.8350   -1.3180 h1        1 04R      0.058200
     27 OXT        -4.2020   -1.7450    0.3430 o         1 04R     -0.812800
@<TRIPOS>BOND
     1    1    2 1   
     2    2    3 1   
     3    2    4 1   
     4    2    5 1   
     5    5    6 2   
     6    5    9 1   
     7    6    7 1   
     8    7    8 1   
     9    7   14 1   
    10    8    9 2   
    11    8   13 1   
    12    9   10 1   
    13   10   11 1   
    14   10   17 1   
    15   10   18 1   
    16   11   12 1   
    17   11   19 1   
    18   11   20 1   
    19   12   13 1   
    20   12   21 1   
    21   12   22 1   
    22   13   23 1   
    23   13   24 1   
    24   14   15 1   
    25   14   25 1   
    26   14   26 1   
    27   15   16 1   
    28   15   27 1   
@<TRIPOS>SUBSTRUCTURE
     1 04R         1 TEMP              0 ****  ****    0 ROOT
