@<TRIPOS>MOLECULE
04S
   17    17     1     0     0
SMALL
bcc


@<TRIPOS>ATOM
      1 N29        -0.0180   -0.3750    0.2300 n4        1 04S     -0.837600
      2 C30         1.3890    0.0760   -0.0360 c3        1 04S      0.108500
      3 C31         2.1660    0.2470    1.3030 c3        1 04S      0.134800
      4 N32         2.7170   -1.0660    1.6010 n3        1 04S     -0.832200
      5 C33         2.9580   -1.7600    0.3370 c3        1 04S      0.136800
      6 C34         2.1990   -1.0100   -0.7740 c3        1 04S     -0.120400
      7 HN29       -0.5230    0.3460    0.7520 hn        1 04S      0.463133
      8 H30         1.3310    1.0400   -0.6140 hx        1 04S      0.121700
      9 H31         2.9410    1.0490    1.1410 h1        1 04S      0.079200
     10 H31A        1.5120    0.5700    2.1580 h1        1 04S      0.079200
     11 HN32        3.5390   -1.0110    2.1720 hn        1 04S      0.408800
     12 H33         4.0500   -1.8270    0.0750 h1        1 04S      0.075700
     13 H33A        2.5700   -2.8100    0.4490 h1        1 04S      0.075700
     14 H34         2.9160   -0.5050   -1.4720 hc        1 04S      0.091200
     15 H34A        1.5710   -1.7050   -1.3810 hc        1 04S      0.091200
     16 H2          0.0040   -1.2370    0.7910 hn        1 04S      0.463133
     17 H293       -0.5020   -0.5620   -0.6530 hn        1 04S      0.463133
@<TRIPOS>BOND
     1    1    2 1   
     2    1    7 1   
     3    1   16 1   
     4    1   17 1   
     5    2    3 1   
     6    2    6 1   
     7    2    8 1   
     8    3    4 1   
     9    3    9 1   
    10    3   10 1   
    11    4    5 1   
    12    4   11 1   
    13    5    6 1   
    14    5   12 1   
    15    5   13 1   
    16    6   14 1   
    17    6   15 1   
@<TRIPOS>SUBSTRUCTURE
     1 04S         1 TEMP              0 ****  ****    0 ROOT
