@<TRIPOS>MOLECULE
04S
   17    17     1     0     0
SMALL
bcc


@<TRIPOS>ATOM
      1 N29        -0.0060   -0.3280    0.1730 n4        1 04S     -0.837600
      2 C30         1.4200    0.0930   -0.0390 c3        1 04S      0.108500
      3 C31         2.1550    0.2230    1.3290 c3        1 04S      0.134800
      4 N32         2.6630   -1.1090    1.6230 n3        1 04S     -0.832200
      5 C33         2.9300   -1.7880    0.3560 c3        1 04S      0.136800
      6 C34         2.2280   -1.0000   -0.7670 c3        1 04S     -0.120400
      7 HN29       -0.4640   -0.4870   -0.7290 hn        1 04S      0.463133
      8 H30         1.4050    1.0670   -0.6010 hx        1 04S      0.121700
      9 H31         1.4810    0.5480    2.1670 h1        1 04S      0.079200
     10 H31A        2.9540    1.0080    1.2070 h1        1 04S      0.079200
     11 HN32        3.4660   -1.0830    2.2220 hn        1 04S      0.408800
     12 H33         4.0280   -1.8780    0.1290 h1        1 04S      0.075700
     13 H33A        2.5120   -2.8290    0.4370 h1        1 04S      0.075700
     14 H34         2.9800   -0.5030   -1.4320 hc        1 04S      0.091200
     15 H34A        1.6040   -1.6700   -1.4070 hc        1 04S      0.091200
     16 H2         -0.5110    0.3980    0.6900 hn        1 04S      0.463133
     17 H293       -0.0240   -1.1980    0.7190 hn        1 04S      0.463133
@<TRIPOS>BOND
     1    1    2 1   
     2    1    7 1   
     3    1   16 1   
     4    1   17 1   
     5    2    3 1   
     6    2    6 1   
     7    2    8 1   
     8    3    4 1   
     9    3    9 1   
    10    3   10 1   
    11    4    5 1   
    12    4   11 1   
    13    5    6 1   
    14    5   12 1   
    15    5   13 1   
    16    6   14 1   
    17    6   15 1   
@<TRIPOS>SUBSTRUCTURE
     1 04S         1 TEMP              0 ****  ****    0 ROOT
