@<TRIPOS>MOLECULE
04S
   16    16     1     0     0
SMALL
bcc


@<TRIPOS>ATOM
      1 N29         2.0380    0.0090    0.3620 n3        1 04S     -0.907800
      2 C30         0.8140    0.0190   -0.4090 c3        1 04S      0.145500
      3 C31        -0.0910   -1.2240   -0.1200 c3        1 04S      0.141800
      4 N32        -1.4830   -0.7940   -0.0910 n3        1 04S     -0.788200
      5 C33        -1.4930    0.6450    0.1610 c3        1 04S      0.144800
      6 C34        -0.0970    1.2310   -0.1070 c3        1 04S     -0.105400
      7 HN29        2.5690   -0.8130    0.1600 hn        1 04S      0.351800
      8 H30         1.0340    0.0240   -1.5210 h1        1 04S      0.004700
      9 H31         0.0800   -2.0150   -0.8950 h1        1 04S      0.056200
     10 H31A        0.1450   -1.6590    0.8890 h1        1 04S      0.056200
     11 HN32       -1.9220   -0.9910   -0.9720 hn        1 04S      0.342800
     12 H33        -2.2700    1.1630   -0.4610 h1        1 04S      0.049200
     13 H33A       -1.7650    0.7910    1.2430 h1        1 04S      0.049200
     14 H34         0.2540    1.8100    0.7820 hc        1 04S      0.052200
     15 H34A       -0.1160    1.9220   -0.9830 hc        1 04S      0.052200
     16 H2          2.5840    0.8220    0.1580 hn        1 04S      0.351800
@<TRIPOS>BOND
     1    1    2 1   
     2    1    7 1   
     3    1   16 1   
     4    2    3 1   
     5    2    6 1   
     6    2    8 1   
     7    3    4 1   
     8    3    9 1   
     9    3   10 1   
    10    4    5 1   
    11    4   11 1   
    12    5    6 1   
    13    5   12 1   
    14    5   13 1   
    15    6   14 1   
    16    6   15 1   
@<TRIPOS>SUBSTRUCTURE
     1 04S         1 TEMP              0 ****  ****    0 ROOT
