@<TRIPOS>MOLECULE
04S
   16    16     1     0     0
SMALL
bcc


@<TRIPOS>ATOM
      1 N29        -1.6260    0.7160   -0.5140 n3        1 04S     -0.915800
      2 C30        -0.1160    0.7160   -0.5140 c3        1 04S      0.141500
      3 C31         0.4360    0.7160    0.9850 c3        1 04S      0.148800
      4 N32         0.9630   -0.6790    1.2240 n3        1 04S     -0.789200
      5 C33         0.5160   -1.3810    0.2210 c3        1 04S      0.146800
      6 C34         0.3140   -0.3370   -1.0150 c3        1 04S     -0.104400
      7 HN29       -1.9300    1.4220   -0.0230 hn        1 04S      0.350800
      8 H30         0.2250    1.4890   -1.0030 h1        1 04S      0.016700
      9 H31        -0.2860    0.9160    1.6110 h1        1 04S      0.052700
     10 H31A        1.1560    1.3690    1.0790 h1        1 04S      0.052700
     11 HN32        0.6160   -1.0060    2.0020 hn        1 04S      0.351800
     12 H33        -0.3370   -1.7940    0.4540 h1        1 04S      0.047200
     13 H33A        1.1660   -2.0670   -0.0240 h1        1 04S      0.047200
     14 H34        -0.3330   -0.6940   -1.6530 hc        1 04S      0.051200
     15 H34A        1.1670   -0.1730   -1.4590 hc        1 04S      0.051200
     16 H2         -1.9300    0.7890   -1.3710 hn        1 04S      0.350800
@<TRIPOS>BOND
     1    1    2 1   
     2    1    7 1   
     3    1   16 1   
     4    2    3 1   
     5    2    6 1   
     6    2    8 1   
     7    3    4 1   
     8    3    9 1   
     9    3   10 1   
    10    4    5 1   
    11    4   11 1   
    12    5    6 1   
    13    5   12 1   
    14    5   13 1   
    15    6   14 1   
    16    6   15 1   
@<TRIPOS>SUBSTRUCTURE
     1 04S         1 TEMP              0 ****  ****    0 ROOT
