@<TRIPOS>MOLECULE
04S
   17    17     1     0     0
SMALL
bcc


@<TRIPOS>ATOM
      1 N29        -0.0020   -0.3000    0.1800 nz        1 04S     -0.837600
      2 C30         1.4290    0.1020   -0.0310 c3        1 04S      0.108500
      3 C31         2.1690    0.2090    1.3360 c3        1 04S      0.134800
      4 N32         2.6590   -1.1320    1.6170 n7        1 04S     -0.832200
      5 C33         2.9130   -1.8040    0.3430 c3        1 04S      0.136800
      6 C34         2.2200   -0.9960   -0.7720 c3        1 04S     -0.120400
      7 HN29       -0.4650   -0.4460   -0.7210 hn        1 04S      0.463133
      8 H30         1.4260    1.0810   -0.5850 hx        1 04S      0.121700
      9 H31         1.5020    0.5370    2.1780 h1        1 04S      0.079200
     10 H31A        2.9790    0.9840    1.2180 h1        1 04S      0.079200
     11 HN32        3.4640   -1.1230    2.2130 hn        1 04S      0.408800
     12 H33         2.4810   -2.8400    0.4160 h1        1 04S      0.075700
     13 H33A        4.0100   -1.9070    0.1120 h1        1 04S      0.075700
     14 H34         1.5850   -1.6520   -1.4150 hc        1 04S      0.091200
     15 H34A        2.9770   -0.5040   -1.4340 hc        1 04S      0.091200
     16 H2         -0.4960    0.4270    0.7050 hn        1 04S      0.463133
     17 H293       -0.0310   -1.1750    0.7190 hn        1 04S      0.463133
@<TRIPOS>BOND
     1    1    2 1   
     2    1    7 1   
     3    1   16 1   
     4    1   17 1   
     5    2    3 1   
     6    2    6 1   
     7    2    8 1   
     8    3    4 1   
     9    3    9 1   
    10    3   10 1   
    11    4    5 1   
    12    4   11 1   
    13    5    6 1   
    14    5   12 1   
    15    5   13 1   
    16    6   14 1   
    17    6   15 1   
@<TRIPOS>SUBSTRUCTURE
     1 04S         1 TEMP              0 ****  ****    0 ROOT
