@<TRIPOS>MOLECULE
04T
   39    40     1     0     0
SMALL
bcc


@<TRIPOS>ATOM
      1 C1          0.2580   -1.1360    0.5300 ca        1 04T      0.047000
      2 C2          1.4580   -1.2830    1.1800 ca        1 04T     -0.244000
      3 C3          1.8410   -0.4220    2.2590 ca        1 04T      0.321600
      4 C4          0.9140    0.6230    2.5990 ca        1 04T     -0.301200
      5 C5         -0.3060    0.7410    1.9110 ca        1 04T      0.095000
      6 C6         -0.6630   -0.1290    0.8890 ca        1 04T     -0.462500
      7 S7         -2.1050    0.0280    0.0620 sy        1 04T      1.409300
      8 O8         -2.4630    1.3790   -0.0310 o         1 04T     -0.657800
      9 O9         -2.0510   -0.7170   -1.1260 o         1 04T     -0.657800
     10 C10        -3.1560   -0.7410    1.1440 c3        1 04T     -0.359300
     11 N11         1.1740    1.6130    3.6660 no        1 04T      0.327200
     12 O12         0.2510    2.2640    4.0790 o         1 04T     -0.221000
     13 O13         2.2880    1.7690    4.1010 o         1 04T     -0.221000
     14 N14         3.0120   -0.6190    2.9340 nu        1 04T     -0.618000
     15 C15         3.9200   -1.6690    2.6550 ca        1 04T      0.071600
     16 C16         5.2690   -1.3720    2.3740 ca        1 04T     -0.106000
     17 C17         6.1940   -2.3850    2.1590 ca        1 04T     -0.163000
     18 C18         5.8030   -3.7400    2.2120 ca        1 04T      0.083600
     19 C19         4.4460   -4.0340    2.4970 ca        1 04T     -0.163000
     20 C20         3.5260   -3.0200    2.7180 ca        1 04T     -0.106000
     21 N21         6.6860   -4.8070    2.0020 ns        1 04T     -0.476100
     22 C22         8.0410   -4.7410    1.6850 c         1 04T      0.668100
     23 C23         8.7420   -6.0700    1.5170 c3        1 04T     -0.179100
     24 O24         8.6510   -3.6680    1.5440 o         1 04T     -0.579100
     25 H1          0.0040   -1.8090   -0.3130 ha        1 04T      0.168000
     26 H2          2.1570   -2.0710    0.8540 ha        1 04T      0.162000
     27 H5         -1.0020    1.5630    2.1850 ha        1 04T      0.183000
     28 H10        -2.9150   -1.8200    1.3000 h1        1 04T      0.114367
     29 H10A       -4.2110   -0.7070    0.7720 h1        1 04T      0.114367
     30 H10B       -3.1680   -0.2660    2.1560 h1        1 04T      0.114367
     31 HN14        3.3520    0.0840    3.5610 hn        1 04T      0.482800
     32 H16         5.6110   -0.3250    2.3260 ha        1 04T      0.147500
     33 H17         7.2410   -2.1090    1.9430 ha        1 04T      0.160500
     34 H19         4.1000   -5.0780    2.5530 ha        1 04T      0.160500
     35 H20         2.4810   -3.2840    2.9470 ha        1 04T      0.147500
     36 HN21        6.2890   -5.7160    2.0880 hn        1 04T      0.317500
     37 H23         8.6920   -6.6630    2.4620 hc        1 04T      0.072367
     38 H23A        8.2780   -6.6580    0.6880 hc        1 04T      0.072367
     39 H23B        9.8140   -5.8750    1.2670 hc        1 04T      0.072367
@<TRIPOS>BOND
     1    1    2 ar  
     2    1    6 ar  
     3    1   25 1   
     4    2    3 ar  
     5    2   26 1   
     6    3    4 ar  
     7    3   14 1   
     8    4    5 ar  
     9    4   11 1   
    10    5    6 ar  
    11    5   27 1   
    12    6    7 1   
    13    7    8 2   
    14    7    9 2   
    15    7   10 1   
    16   10   28 1   
    17   10   29 1   
    18   10   30 1   
    19   11   12 1   
    20   11   13 1   
    21   14   15 1   
    22   14   31 1   
    23   15   16 ar  
    24   15   20 ar  
    25   16   17 ar  
    26   16   32 1   
    27   17   18 ar  
    28   17   33 1   
    29   18   19 ar  
    30   18   21 1   
    31   19   20 ar  
    32   19   34 1   
    33   20   35 1   
    34   21   22 1   
    35   21   36 1   
    36   22   23 1   
    37   22   24 2   
    38   23   37 1   
    39   23   38 1   
    40   23   39 1   
@<TRIPOS>SUBSTRUCTURE
     1 04T         1 TEMP              0 ****  ****    0 ROOT
