@<TRIPOS>MOLECULE
04T
   39    34     1     0     0
SMALL
bcc


@<TRIPOS>ATOM
      1 C1         -2.7900    1.4570    1.2880 c1        1 04T      0.048000
      2 C2         -1.4050    1.4850    1.2450 c1        1 04T     -0.243000
      3 C3         -0.7540    1.7940    0.0600 c1        1 04T      0.240000
      4 C4         -1.4890    2.0740   -1.0820 c1        1 04T     -0.257000
      5 C5         -2.8750    2.0460   -1.0380 c1        1 04T      0.095000
      6 C6         -3.5250    1.7380    0.1460 c1        1 04T     -0.906000
      7 S7         -5.2990    1.7460    0.2130 s4        1 04T      2.089800
      8 O8         -5.7730    2.4110    1.3950 o         1 04T     -0.545400
      9 O9         -5.8560    2.5790   -0.8170 o         1 04T     -0.545400
     10 C10        -5.9260    0.0900    0.1100 c2        1 04T     -0.939000
     11 N11        -0.8240    2.4050   -2.2890 no        1 04T      0.582000
     12 O12        -1.4730    2.7000   -3.2830 o         1 04T     -0.371500
     13 O13         0.5400    2.4160   -2.3370 o         1 04T     -0.371500
     14 N14         0.6610    1.9250    0.0410 n3        1 04T     -0.251000
     15 C15         1.4840    0.7840    0.2540 c2        1 04T     -0.008000
     16 C16         2.4130    0.7850    1.2840 c2        1 04T     -0.106000
     17 C17         3.2970   -0.2750    1.4210 c1        1 04T     -0.176000
     18 C18         3.2520   -1.3350    0.5290 c1        1 04T      0.090000
     19 C19         2.3240   -1.3360   -0.5010 c1        1 04T     -0.149000
     20 C20         1.4390   -0.2760   -0.6380 c1        1 04T     -0.106000
     21 N21         4.2020   -2.3930    0.6320 n         1 04T     -0.330000
     22 C22         4.1150   -3.5130   -0.2400 c2        1 04T      0.312000
     23 C23         5.1630   -4.6060   -0.1740 c3        1 04T     -0.247000
     24 O24         3.2340   -3.5670   -1.0720 o         1 04T     -0.342000
     25 H1         -3.2480    1.2400    2.1220 ha        1 04T      0.168000
     26 H2         -0.8880    1.2880    2.0480 ha        1 04T      0.164000
     27 H5         -3.3930    2.2430   -1.8420 ha        1 04T      0.184000
     28 H10        -5.4540   -0.3940   -0.5990 ha        1 04T      0.154000
     29 H10A       -6.8840    0.1150   -0.0930 ha        1 04T      0.154000
     30 H10B       -5.7850   -0.3660    0.9670 ha        1 04T      0.154000
     31 HN14        1.0420    2.7380   -0.1200 hn        1 04T      0.277000
     32 H16         2.4450    1.5310    1.9120 ha        1 04T      0.146000
     33 H17         3.9510   -0.2740    2.1450 ha        1 04T      0.138000
     34 H19         2.2920   -2.0810   -1.1280 ha        1 04T      0.183000
     35 H20         0.7850   -0.2770   -1.3630 ha        1 04T      0.149000
     36 HN21        4.8370   -2.3720    1.2850 hn        1 04T      0.232000
     37 H23         5.9070   -4.3810   -0.7710 hc        1 04T      0.111667
     38 H23A        4.7650   -5.4570   -0.4540 hc        1 04T      0.111667
     39 H23B        5.4940   -4.6860    0.7450 hc        1 04T      0.111667
@<TRIPOS>BOND
     1    1    6 1   
     2    1   25 1   
     3    2    3 1   
     4    2   26 1   
     5    3   14 1   
     6    4    5 1   
     7    4   11 1   
     8    5   27 1   
     9    6    7 1   
    10    7    8 1   
    11    7    9 1   
    12   10   28 1   
    13   10   29 1   
    14   10   30 1   
    15   11   12 1   
    16   11   13 1   
    17   14   15 1   
    18   14   31 1   
    19   15   16 1   
    20   15   20 1   
    21   16   17 1   
    22   16   32 1   
    23   17   33 1   
    24   18   19 1   
    25   18   21 1   
    26   19   34 1   
    27   20   35 1   
    28   21   22 1   
    29   21   36 1   
    30   22   23 1   
    31   22   24 1   
    32   23   37 1   
    33   23   38 1   
    34   23   39 1   
@<TRIPOS>SUBSTRUCTURE
     1 04T         1 TEMP              0 ****  ****    0 ROOT
