@<TRIPOS>MOLECULE
04T
   39    40     1     0     0
SMALL
bcc


@<TRIPOS>ATOM
      1 C1          0.2750   -1.1190    0.5090 ca        1 04T      0.047000
      2 C2          1.4670   -1.2740    1.1700 ca        1 04T     -0.244000
      3 C3          1.8450   -0.4180    2.2560 ca        1 04T      0.321600
      4 C4          0.9190    0.6300    2.5900 ca        1 04T     -0.301200
      5 C5         -0.2940    0.7560    1.8910 ca        1 04T      0.095000
      6 C6         -0.6450   -0.1090    0.8630 ca        1 04T     -0.462500
      7 S7         -2.0790    0.0580    0.0230 sy        1 04T      1.409300
      8 O8         -2.4290    1.4110   -0.0690 o         1 04T     -0.657800
      9 O9         -2.0170   -0.6840   -1.1670 o         1 04T     -0.657800
     10 C10        -3.1430   -0.7090    1.0930 c3        1 04T     -0.359300
     11 N11         1.1750    1.6160    3.6620 no        1 04T      0.327200
     12 O12         0.2510    2.2690    4.0690 o         1 04T     -0.221000
     13 O13         2.2850    1.7650    4.1090 o         1 04T     -0.221000
     14 N14         3.0080   -0.6240    2.9400 nh        1 04T     -0.618000
     15 C15         3.9140   -1.6770    2.6660 ca        1 04T      0.071600
     16 C16         5.2670   -1.3860    2.3980 ca        1 04T     -0.106000
     17 C17         6.1880   -2.4030    2.1890 ca        1 04T     -0.163000
     18 C18         5.7900   -3.7570    2.2350 ca        1 04T      0.083600
     19 C19         4.4290   -4.0440    2.5060 ca        1 04T     -0.163000
     20 C20         3.5130   -3.0260    2.7220 ca        1 04T     -0.106000
     21 N21         6.6700   -4.8270    2.0290 n         1 04T     -0.476100
     22 C22         8.0270   -4.7670    1.7230 c         1 04T      0.668100
     23 C23         8.7230   -6.0990    1.5580 c3        1 04T     -0.179100
     24 O24         8.6430   -3.6960    1.5900 o         1 04T     -0.579100
     25 H1          0.0250   -1.7880   -0.3380 ha        1 04T      0.168000
     26 H2          2.1660   -2.0650    0.8490 ha        1 04T      0.162000
     27 H5         -0.9880    1.5810    2.1610 ha        1 04T      0.183000
     28 H10        -2.9090   -1.7900    1.2470 h1        1 04T      0.114367
     29 H10A       -4.1950   -0.6690    0.7110 h1        1 04T      0.114367
     30 H10B       -3.1620   -0.2380    2.1060 h1        1 04T      0.114367
     31 HN14        3.3460    0.0760    3.5720 hn        1 04T      0.482800
     32 H16         5.6140   -0.3400    2.3560 ha        1 04T      0.147500
     33 H17         7.2390   -2.1320    1.9830 ha        1 04T      0.160500
     34 H19         4.0780   -5.0870    2.5570 ha        1 04T      0.160500
     35 H20         2.4640   -3.2850    2.9410 ha        1 04T      0.147500
     36 HN21        6.2670   -5.7340    2.1100 hn        1 04T      0.317500
     37 H23         8.6640   -6.6930    2.5010 hc        1 04T      0.072367
     38 H23A        8.2630   -6.6830    0.7250 hc        1 04T      0.072367
     39 H23B        9.7980   -5.9090    1.3160 hc        1 04T      0.072367
@<TRIPOS>BOND
     1    1    2 ar  
     2    1    6 ar  
     3    1   25 1   
     4    2    3 ar  
     5    2   26 1   
     6    3    4 ar  
     7    3   14 1   
     8    4    5 ar  
     9    4   11 1   
    10    5    6 ar  
    11    5   27 1   
    12    6    7 1   
    13    7    8 2   
    14    7    9 2   
    15    7   10 1   
    16   10   28 1   
    17   10   29 1   
    18   10   30 1   
    19   11   12 1   
    20   11   13 1   
    21   14   15 1   
    22   14   31 1   
    23   15   16 ar  
    24   15   20 ar  
    25   16   17 ar  
    26   16   32 1   
    27   17   18 ar  
    28   17   33 1   
    29   18   19 ar  
    30   18   21 1   
    31   19   20 ar  
    32   19   34 1   
    33   20   35 1   
    34   21   22 1   
    35   21   36 1   
    36   22   23 1   
    37   22   24 2   
    38   23   37 1   
    39   23   38 1   
    40   23   39 1   
@<TRIPOS>SUBSTRUCTURE
     1 04T         1 TEMP              0 ****  ****    0 ROOT
