@<TRIPOS>MOLECULE
04T
   39    40     1     0     0
SMALL
bcc


@<TRIPOS>ATOM
      1 C1          0.2810   -1.1280    0.4920 ca        1 04T      0.047000
      2 C2          1.4700   -1.2790    1.1610 ca        1 04T     -0.244000
      3 C3          1.8390   -0.4200    2.2470 ca        1 04T      0.321600
      4 C4          0.9080    0.6260    2.5730 ca        1 04T     -0.301200
      5 C5         -0.3010    0.7490    1.8670 ca        1 04T      0.095000
      6 C6         -0.6430   -0.1200    0.8380 ca        1 04T     -0.462500
      7 S7         -2.0720    0.0430   -0.0110 sy        1 04T      1.409300
      8 O8         -2.4260    1.3940   -0.1070 o         1 04T     -0.657800
      9 O9         -2.0010   -0.7010   -1.2000 o         1 04T     -0.657800
     10 C10        -3.1410   -0.7270    1.0530 c3        1 04T     -0.359300
     11 N11         1.1540    1.6150    3.6450 no        1 04T      0.327200
     12 O12         0.2270    2.2670    4.0450 o         1 04T     -0.221000
     13 O13         2.2620    1.7680    4.0980 o         1 04T     -0.221000
     14 N14         2.9980   -0.6210    2.9390 nh        1 04T     -0.618000
     15 C15         3.9080   -1.6730    2.6730 ca        1 04T      0.071600
     16 C16         5.2620   -1.3780    2.4130 ca        1 04T     -0.106000
     17 C17         6.1880   -2.3930    2.2110 ca        1 04T     -0.163000
     18 C18         5.7930   -3.7480    2.2570 ca        1 04T      0.083600
     19 C19         4.4310   -4.0390    2.5200 ca        1 04T     -0.163000
     20 C20         3.5100   -3.0230    2.7280 ca        1 04T     -0.106000
     21 N21         6.6760   -4.8160    2.0580 n         1 04T     -0.476100
     22 C22         8.0360   -4.7530    1.7620 c         1 04T      0.668100
     23 C23         8.7360   -6.0830    1.6040 c3        1 04T     -0.179100
     24 O24         8.6500   -3.6810    1.6320 o         1 04T     -0.579100
     25 H1          0.0380   -1.7990   -0.3550 ha        1 04T      0.168000
     26 H2          2.1720   -2.0680    0.8450 ha        1 04T      0.162000
     27 H5         -0.9990    1.5720    2.1310 ha        1 04T      0.183000
     28 H10        -2.9050   -1.8070    1.2090 h1        1 04T      0.114367
     29 H10A       -4.1910   -0.6900    0.6640 h1        1 04T      0.114367
     30 H10B       -3.1680   -0.2550    2.0650 h1        1 04T      0.114367
     31 HN14        3.3300    0.0810    3.5720 hn        1 04T      0.482800
     32 H16         5.6070   -0.3320    2.3710 ha        1 04T      0.147500
     33 H17         7.2390   -2.1200    2.0120 ha        1 04T      0.160500
     34 H19         4.0820   -5.0820    2.5700 ha        1 04T      0.160500
     35 H20         2.4610   -3.2840    2.9410 ha        1 04T      0.147500
     36 HN21        6.2760   -5.7240    2.1390 hn        1 04T      0.317500
     37 H23         9.8120   -5.8910    1.3700 hc        1 04T      0.072367
     38 H23A        8.2830   -6.6700    0.7690 hc        1 04T      0.072367
     39 H23B        8.6710   -6.6770    2.5480 hc        1 04T      0.072367
@<TRIPOS>BOND
     1    1    2 ar  
     2    1    6 ar  
     3    1   25 1   
     4    2    3 ar  
     5    2   26 1   
     6    3    4 ar  
     7    3   14 1   
     8    4    5 ar  
     9    4   11 1   
    10    5    6 ar  
    11    5   27 1   
    12    6    7 1   
    13    7    8 2   
    14    7    9 2   
    15    7   10 1   
    16   10   28 1   
    17   10   29 1   
    18   10   30 1   
    19   11   12 1   
    20   11   13 1   
    21   14   15 1   
    22   14   31 1   
    23   15   16 ar  
    24   15   20 ar  
    25   16   17 ar  
    26   16   32 1   
    27   17   18 ar  
    28   17   33 1   
    29   18   19 ar  
    30   18   21 1   
    31   19   20 ar  
    32   19   34 1   
    33   20   35 1   
    34   21   22 1   
    35   21   36 1   
    36   22   23 1   
    37   22   24 2   
    38   23   37 1   
    39   23   38 1   
    40   23   39 1   
@<TRIPOS>SUBSTRUCTURE
     1 04T         1 TEMP              0 ****  ****    0 ROOT
