@<TRIPOS>MOLECULE
04T
   39    40     1     0     0
SMALL
bcc


@<TRIPOS>ATOM
      1 C1          2.1060   -1.2280    0.5110 ca        1 04T      0.047000
      2 C2          0.8720   -0.6500    0.3510 ca        1 04T     -0.244000
      3 C3          0.7240    0.7440    0.0530 ca        1 04T      0.321600
      4 C4          1.9400    1.5060   -0.0370 ca        1 04T     -0.301200
      5 C5          3.1860    0.8790    0.1310 ca        1 04T      0.095000
      6 C6          3.2970   -0.4810    0.3890 ca        1 04T     -0.462500
      7 S7          4.7800   -1.2180    0.6080 sy        1 04T      1.409300
      8 O8          5.6760   -0.3290    1.2160 o         1 04T     -0.657800
      9 O9          4.5980   -2.4740    1.2060 o         1 04T     -0.657800
     10 C10         5.2440   -1.4400   -1.0060 c3        1 04T     -0.359300
     11 N11         1.9590    2.9600   -0.3050 no        1 04T      0.327200
     12 O12         2.9950    3.4660   -0.6460 o         1 04T     -0.221000
     13 O13         0.9580    3.6220   -0.1770 o         1 04T     -0.221000
     14 N14        -0.5090    1.2900   -0.1610 nh        1 04T     -0.618000
     15 C15        -1.7180    0.5540   -0.1290 ca        1 04T      0.071600
     16 C16        -2.7640    0.9630    0.7240 ca        1 04T     -0.106000
     17 C17        -3.9820    0.2970    0.7290 ca        1 04T     -0.163000
     18 C18        -4.2010   -0.8110   -0.1190 ca        1 04T      0.083600
     19 C19        -3.1470   -1.2160   -0.9750 ca        1 04T     -0.163000
     20 C20        -1.9340   -0.5450   -0.9830 ca        1 04T     -0.106000
     21 N21        -5.4050   -1.5260   -0.1580 n         1 04T     -0.476100
     22 C22        -6.5470   -1.3150    0.6120 c         1 04T      0.668100
     23 C23        -7.7020   -2.2520    0.3440 c3        1 04T     -0.179100
     24 O24        -6.6280   -0.4200    1.4690 o         1 04T     -0.579100
     25 H1          2.1800   -2.3050    0.7590 ha        1 04T      0.168000
     26 H2         -0.0350   -1.2660    0.4740 ha        1 04T      0.162000
     27 H5          4.1110    1.4920    0.0680 ha        1 04T      0.183000
     28 H10         5.3010   -0.4840   -1.5810 h1        1 04T      0.114367
     29 H10A        6.2610   -1.9040   -1.0710 h1        1 04T      0.114367
     30 H10B        4.5570   -2.1150   -1.5710 h1        1 04T      0.114367
     31 HN14       -0.6160    2.2860   -0.1920 hn        1 04T      0.482800
     32 H16        -2.6290    1.8250    1.3980 ha        1 04T      0.147500
     33 H17        -4.7760    0.6500    1.4100 ha        1 04T      0.160500
     34 H19        -3.2790   -2.0720   -1.6560 ha        1 04T      0.160500
     35 H20        -1.1390   -0.8800   -1.6690 ha        1 04T      0.147500
     36 HN21       -5.4390   -2.2730   -0.8160 hn        1 04T      0.317500
     37 H23        -7.4060   -3.3100    0.5460 hc        1 04T      0.072367
     38 H23A       -8.5460   -1.9760    1.0240 hc        1 04T      0.072367
     39 H23B       -8.0450   -2.1610   -0.7140 hc        1 04T      0.072367
@<TRIPOS>BOND
     1    1    2 ar  
     2    1    6 ar  
     3    1   25 1   
     4    2    3 ar  
     5    2   26 1   
     6    3    4 ar  
     7    3   14 1   
     8    4    5 ar  
     9    4   11 1   
    10    5    6 ar  
    11    5   27 1   
    12    6    7 1   
    13    7    8 2   
    14    7    9 2   
    15    7   10 1   
    16   10   28 1   
    17   10   29 1   
    18   10   30 1   
    19   11   12 1   
    20   11   13 1   
    21   14   15 1   
    22   14   31 1   
    23   15   16 ar  
    24   15   20 ar  
    25   16   17 ar  
    26   16   32 1   
    27   17   18 ar  
    28   17   33 1   
    29   18   19 ar  
    30   18   21 1   
    31   19   20 ar  
    32   19   34 1   
    33   20   35 1   
    34   21   22 1   
    35   21   36 1   
    36   22   23 1   
    37   22   24 2   
    38   23   37 1   
    39   23   38 1   
    40   23   39 1   
@<TRIPOS>SUBSTRUCTURE
     1 04T         1 TEMP              0 ****  ****    0 ROOT
