@<TRIPOS>MOLECULE
04U
   19    19     1     0     0
SMALL
bcc


@<TRIPOS>ATOM
      1 O9          0.1630   -0.6120    1.7160 oh        1 04U     -0.610100
      2 C8         -0.9700   -0.0290    1.2400 c         1 04U      0.643100
      3 C10        -0.9290    0.3860   -0.2220 c3        1 04U      0.127500
      4 C25        -0.2570   -0.6910   -1.0950 c3        1 04U     -0.111400
      5 C24         1.0550   -0.0640   -1.6170 c3        1 04U      0.172500
      6 N26         2.2870   -0.6870   -1.1820 n2        1 04U     -0.452200
      7 N27         2.6150   -0.7470    0.0320 n1        1 04U      0.233000
      8 N28         3.0890   -0.9030    1.0490 n1        1 04U     -0.034000
      9 C23         0.9080    1.4550   -1.2960 c3        1 04U      0.135800
     10 N11        -0.1920    1.6420   -0.3640 n3        1 04U     -0.811200
     11 H10        -2.0120    0.5060   -0.5230 h1        1 04U      0.074700
     12 H251       -0.0840   -1.6310   -0.5170 hc        1 04U      0.070700
     13 H252       -0.9210   -0.9400   -1.9600 hc        1 04U      0.070700
     14 H24         1.1250   -0.2020   -2.7360 h1        1 04U      0.096700
     15 H231        1.8330    1.8760   -0.8170 h1        1 04U      0.054200
     16 H232        0.7440    2.0120   -2.2600 h1        1 04U      0.054200
     17 H28         0.0530   -0.8160    2.6600 ho        1 04U      0.449000
     18 OXT        -1.9160    0.0870    2.0210 o         1 04U     -0.544000
     19 H2         -0.8010    2.3840   -0.6470 hn        1 04U      0.377800
@<TRIPOS>BOND
     1    1    2 1   
     2    1   17 1   
     3    2    3 1   
     4    2   18 2   
     5    3    4 1   
     6    3   10 1   
     7    3   11 1   
     8    4    5 1   
     9    4   12 1   
    10    4   13 1   
    11    5    6 1   
    12    5    9 1   
    13    5   14 1   
    14    6    7 1   
    15    7    8 3   
    16    9   10 1   
    17    9   15 1   
    18    9   16 1   
    19   10   19 1   
@<TRIPOS>SUBSTRUCTURE
     1 04U         1 TEMP              0 ****  ****    0 ROOT
