@<TRIPOS>MOLECULE
04V
   18    17     1     0     0
SMALL
bcc


@<TRIPOS>ATOM
      1 N7         -0.1150    0.4260   -1.1160 n3        1 04V     -0.813200
      2 C6          1.4860    0.4320   -1.1220 c3        1 04V      0.149800
      3 C5          1.8680    0.3840    0.1160 c3        1 04V     -0.103400
      4 C4          0.7530   -0.3320    0.8600 c3        1 04V     -0.087400
      5 C3         -0.4950   -0.4070   -0.1600 c3        1 04V      0.175700
      6 C1         -1.8590   -0.0580    0.4810 c2        1 04V      0.160900
      7 N2         -2.6840   -1.0120    0.8230 n1        1 04V     -0.325000
      8 OXT        -2.2110    1.2870    0.6960 oh        1 04V     -0.528100
      9 H61C        1.8160    1.2540   -1.5420 h1        1 04V      0.048700
     10 H62C        1.8220   -0.3500   -1.6060 h1        1 04V      0.048700
     11 H3         -0.6520   -1.3140   -0.4930 h1        1 04V      0.071700
     12 H51C        1.9840    1.2900    0.4700 hc        1 04V      0.051200
     13 H52C        2.7040   -0.1200    0.1930 hc        1 04V      0.051200
     14 H41C        1.0390   -1.2340    1.1080 hc        1 04V      0.059700
     15 H42C        0.5030    0.1730    1.6590 hc        1 04V      0.059700
     16 H21N       -2.4560   -1.8850    0.6830 DU        1 04V      0.179000
     17 HXT        -3.0810    1.3410    0.8740 ho        1 04V      0.436000
     18 H2         -0.4210    0.1240   -1.9230 hn        1 04V      0.365800
@<TRIPOS>BOND
     1    1    2 1   
     2    1    5 1   
     3    1   18 1   
     4    2    3 1   
     5    2    9 1   
     6    2   10 1   
     7    3    4 1   
     8    3   12 1   
     9    3   13 1   
    10    4    5 1   
    11    4   14 1   
    12    4   15 1   
    13    5    6 1   
    14    5   11 1   
    15    6    7 2   
    16    6    8 1   
    17    8   17 1   
@<TRIPOS>SUBSTRUCTURE
     1 04V         1 TEMP              0 ****  ****    0 ROOT
