@<TRIPOS>MOLECULE
04V
   18    18     1     0     0
SMALL
bcc


@<TRIPOS>ATOM
      1 N7         -0.8740   -0.9940   -0.7850 n3        1 04V     -0.801200
      2 C6         -2.1210   -0.7130   -0.0800 c3        1 04V      0.152800
      3 C5         -2.0740    0.7110    0.4970 c3        1 04V     -0.093400
      4 C4         -0.7380    1.2980    0.0620 c3        1 04V     -0.081400
      5 C3          0.0250    0.1470   -0.6360 c3        1 04V      0.150200
      6 C1          1.3220   -0.1280    0.1340 c2        1 04V      0.588600
      7 N2          1.4240   -0.9600    1.1080 n2        1 04V     -0.850100
      8 OXT         2.3220    0.6760   -0.4000 oh        1 04V     -0.636600
      9 H61C       -2.9510   -0.8010   -0.8340 h1        1 04V      0.044200
     10 H62C       -2.3210   -1.4570    0.7380 h1        1 04V      0.044200
     11 H3          0.3330    0.4590   -1.6780 h1        1 04V      0.090700
     12 H51C       -2.9260    1.3200    0.1090 hc        1 04V      0.049700
     13 H52C       -2.1530    0.6820    1.6110 hc        1 04V      0.049700
     14 H41C       -0.8840    2.1380   -0.6590 hc        1 04V      0.054700
     15 H42C       -0.1620    1.6920    0.9340 hc        1 04V      0.054700
     16 H21N        2.3210   -1.0470    1.5340 hn        1 04V      0.390400
     17 HXT         3.1540    0.5460    0.0740 ho        1 04V      0.414000
     18 H2         -0.4600   -1.8480   -0.4650 hn        1 04V      0.378800
@<TRIPOS>BOND
     1    1    2 1   
     2    1    5 1   
     3    1   18 1   
     4    2    3 1   
     5    2    9 1   
     6    2   10 1   
     7    3    4 1   
     8    3   12 1   
     9    3   13 1   
    10    4    5 1   
    11    4   14 1   
    12    4   15 1   
    13    5    6 1   
    14    5   11 1   
    15    6    7 2   
    16    6    8 1   
    17    7   16 1   
    18    8   17 1   
@<TRIPOS>SUBSTRUCTURE
     1 04V         1 TEMP              0 ****  ****    0 ROOT
