@<TRIPOS>MOLECULE
04Z
   46    48     1     0     0
SMALL
bcc


@<TRIPOS>ATOM
      1 C1          0.9110   -0.0180   -0.1570 ca        1 04Z     -0.177000
      2 N1          4.4820   -1.5190    5.5510 nc        1 04Z     -0.597000
      3 O1         11.0480   -2.6240    7.3170 o         1 04Z     -0.523800
      4 S1          3.6590   -1.2190    3.0860 ss        1 04Z      0.440700
      5 C2          2.2700   -0.1360    0.2340 ca        1 04Z      0.237100
      6 N2          3.2390    0.3110    6.6840 n4        1 04Z     -0.800300
      7 O2         11.7800   -2.0840    5.0450 o         1 04Z     -0.523800
      8 S2         11.0220   -2.7830    5.9520 sy        1 04Z      1.452200
      9 C3          2.6810    0.2390    1.5330 ca        1 04Z     -0.348000
     10 N3          5.4080   -3.2170    4.0450 n4        1 04Z     -0.590100
     11 O3          1.6450    1.6450    4.6810 o         1 04Z     -0.477100
     12 C4          0.3610    0.8460    2.0480 ca        1 04Z     -0.071000
     13 N4         11.7250   -4.5060    5.7690 n4        1 04Z     -0.807500
     14 C5         -0.0140    0.4980    0.7270 ca        1 04Z     -0.017000
     15 O6          3.2650   -0.5800   -0.5800 os        1 04Z     -0.328900
     16 C7          2.9480   -0.7740   -1.9690 c3        1 04Z      0.102700
     17 C10         1.6760    0.6970    2.4390 ca        1 04Z     -0.136600
     18 C11         2.0770    0.8530    3.8450 c         1 04Z      0.625300
     19 C12         3.0770   -0.1840    4.2120 cd        1 04Z     -0.294000
     20 C13         3.6010   -0.4560    5.4980 cc        1 04Z      0.436200
     21 C14         4.5840   -2.0340    4.2900 cd        1 04Z      0.276300
     22 C15         6.8030   -3.1200    4.5190 ca        1 04Z      0.057600
     23 C16         7.1020   -3.3740    5.8680 ca        1 04Z     -0.113500
     24 C17         8.4310   -3.3230    6.2900 ca        1 04Z      0.025000
     25 C18         9.4750   -3.0210    5.3990 ca        1 04Z     -0.441500
     26 C19         9.1470   -2.7710    4.0550 ca        1 04Z      0.025000
     27 C20         7.8280   -2.8160    3.6060 ca        1 04Z     -0.113500
     28 H1          0.6030   -0.3050   -1.1770 ha        1 04Z      0.189000
     29 HN2         2.5770    1.0670    6.4060 hn        1 04Z      0.496467
     30 HN2A        4.0780    0.7330    7.1060 hn        1 04Z      0.496467
     31 H3          3.7320    0.5820    1.6340 ha        1 04Z      0.180000
     32 HN3         4.9640   -4.0260    4.5200 hn        1 04Z      0.485300
     33 H4         -0.4030    1.2200    2.7530 ha        1 04Z      0.188000
     34 HN4        11.0760   -5.1960    5.3970 hn        1 04Z      0.478800
     35 HN4A       12.0520   -4.8600    6.6760 hn        1 04Z      0.478800
     36 H5         -1.0660    0.6400    0.4150 ha        1 04Z      0.194000
     37 H7          3.9440   -1.0290   -2.4160 h1        1 04Z      0.079700
     38 H7A         2.2280   -1.6200   -2.0810 h1        1 04Z      0.079700
     39 H7B         2.5450    0.1690   -2.4110 h1        1 04Z      0.079700
     40 H16         6.3110   -3.6040    6.6060 ha        1 04Z      0.193000
     41 H17         8.6520   -3.5020    7.3640 ha        1 04Z      0.205000
     42 H19         9.9460   -2.5050    3.3290 ha        1 04Z      0.205000
     43 H20         7.6220   -2.6090    2.5390 ha        1 04Z      0.193000
     44 H23         2.7830   -0.3010    7.3770 hn        1 04Z      0.496467
     45 H32         5.4120   -3.3910    3.0280 hn        1 04Z      0.485300
     46 H43        12.5430   -4.4970    5.1480 hn        1 04Z      0.478800
@<TRIPOS>BOND
     1    1    5 ar  
     2    1   14 ar  
     3    1   28 1   
     4    2   20 1   
     5    2   21 2   
     6    3    8 2   
     7    4   19 1   
     8    4   21 1   
     9    5    9 ar  
    10    5   15 1   
    11    6   20 1   
    12    6   29 1   
    13    6   30 1   
    14    6   44 1   
    15    7    8 2   
    16    8   13 1   
    17    8   25 1   
    18    9   17 ar  
    19    9   31 1   
    20   10   21 1   
    21   10   22 1   
    22   10   32 1   
    23   10   45 1   
    24   11   18 2   
    25   12   14 ar  
    26   12   17 ar  
    27   12   33 1   
    28   13   34 1   
    29   13   35 1   
    30   13   46 1   
    31   14   36 1   
    32   15   16 1   
    33   16   37 1   
    34   16   38 1   
    35   16   39 1   
    36   17   18 1   
    37   18   19 1   
    38   19   20 2   
    39   22   23 ar  
    40   22   27 ar  
    41   23   24 ar  
    42   23   40 1   
    43   24   25 ar  
    44   24   41 1   
    45   25   26 ar  
    46   26   27 ar  
    47   26   42 1   
    48   27   43 1   
@<TRIPOS>SUBSTRUCTURE
     1 04Z         1 TEMP              0 ****  ****    0 ROOT
