@<TRIPOS>MOLECULE
04Z
   44    46     1     0     0
SMALL
bcc


@<TRIPOS>ATOM
      1 C1          0.4610    0.1200   -0.1930 ca        1 04Z     -0.175000
      2 N1          4.6830   -1.9660    5.3740 nc        1 04Z     -0.719000
      3 O1         11.9080   -1.6930    6.1500 o         1 04Z     -0.581800
      4 S1          3.9050   -1.5680    2.9230 ss        1 04Z      0.084700
      5 C2          1.8170    0.2750    0.1220 ca        1 04Z      0.128100
      6 N2          3.0630   -0.6350    6.5900 nh        1 04Z     -0.926500
      7 O2         12.3310   -3.8280    5.1310 o         1 04Z     -0.581800
      8 S2         11.4620   -2.9160    5.6940 sy        1 04Z      1.519200
      9 C3          2.2600    0.2030    1.4560 ca        1 04Z     -0.158000
     10 N3          6.0350   -3.0710    3.6770 nh        1 04Z     -0.678300
     11 O3          1.0710    0.3390    4.8040 o         1 04Z     -0.545100
     12 C4         -0.0300   -0.1720    2.1610 ca        1 04Z     -0.111000
     13 N4         11.2070   -3.7950    7.4350 n4        1 04Z     -0.779500
     14 C5         -0.4540   -0.0990    0.8360 ca        1 04Z     -0.091000
     15 O6          2.8170    0.4920   -0.8050 os        1 04Z     -0.331900
     16 C7          2.3910    0.7250   -2.1450 c3        1 04Z      0.110700
     17 C10         1.3290   -0.0340    2.4690 ca        1 04Z     -0.135600
     18 C11         1.7540   -0.1390    3.8860 c         1 04Z      0.638300
     19 C12         2.9840   -0.8730    4.1300 cd        1 04Z     -0.411000
     20 C13         3.5390   -1.1440    5.4170 cc        1 04Z      0.693200
     21 C14         4.9590   -2.2550    4.0810 cd        1 04Z      0.549300
     22 C15         7.2880   -3.0320    4.2180 ca        1 04Z      0.323600
     23 C16         7.7660   -1.9410    5.0130 ca        1 04Z     -0.216500
     24 C17         9.0560   -1.9290    5.4730 ca        1 04Z      0.052000
     25 C18         9.9770   -2.9800    5.2060 ca        1 04Z     -0.662500
     26 C19         9.4960   -4.0500    4.4020 ca        1 04Z      0.052000
     27 C20         8.2140   -4.0900    3.9230 ca        1 04Z     -0.216500
     28 H1          0.1120    0.1780   -1.2340 ha        1 04Z      0.150000
     29 HN2         2.1880   -0.1570    6.5610 hn        1 04Z      0.458300
     30 HN2A        3.3790   -1.0070    7.4520 hn        1 04Z      0.458300
     31 H3          3.3250    0.3920    1.6700 ha        1 04Z      0.151000
     32 HN3         5.7740   -3.8820    3.1500 hn        1 04Z      0.469800
     33 H4         -0.7570   -0.3280    2.9740 ha        1 04Z      0.157000
     34 HN4        10.2400   -4.0530    7.5890 hn        1 04Z      0.445467
     35 HN4A       11.7750   -4.6350    7.4880 hn        1 04Z      0.445467
     36 H5         -1.5240   -0.2090    0.5970 ha        1 04Z      0.149000
     37 H7          3.3470    0.9500   -2.6830 h1        1 04Z      0.051367
     38 H7A         1.6960    1.5980   -2.1940 h1        1 04Z      0.051367
     39 H7B         1.9080   -0.1900   -2.5650 h1        1 04Z      0.051367
     40 H16         7.1000   -1.0940    5.2490 ha        1 04Z      0.177500
     41 H17         9.4080   -1.0600    6.0640 ha        1 04Z      0.164500
     42 H19        10.1940   -4.8730    4.1490 ha        1 04Z      0.164500
     43 H20         7.8930   -4.9420    3.3000 ha        1 04Z      0.177500
     44 H43        11.4940   -3.1720    8.1840 hn        1 04Z      0.445467
@<TRIPOS>BOND
     1    1    5 ar  
     2    1   14 ar  
     3    1   28 1   
     4    2   20 1   
     5    2   21 2   
     6    3    8 2   
     7    4   19 1   
     8    4   21 1   
     9    5    9 ar  
    10    5   15 1   
    11    6   20 1   
    12    6   29 1   
    13    6   30 1   
    14    7    8 2   
    15    8   13 1   
    16    8   25 1   
    17    9   17 ar  
    18    9   31 1   
    19   10   21 1   
    20   10   22 1   
    21   10   32 1   
    22   11   18 2   
    23   12   14 ar  
    24   12   17 ar  
    25   12   33 1   
    26   13   34 1   
    27   13   35 1   
    28   13   44 1   
    29   14   36 1   
    30   15   16 1   
    31   16   37 1   
    32   16   38 1   
    33   16   39 1   
    34   17   18 1   
    35   18   19 1   
    36   19   20 2   
    37   22   23 ar  
    38   22   27 ar  
    39   23   24 ar  
    40   23   40 1   
    41   24   25 ar  
    42   24   41 1   
    43   25   26 ar  
    44   26   27 ar  
    45   26   42 1   
    46   27   43 1   
@<TRIPOS>SUBSTRUCTURE
     1 04Z         1 TEMP              0 ****  ****    0 ROOT
