@<TRIPOS>MOLECULE
04Z
   43    38     1     0     0
SMALL
bcc


@<TRIPOS>ATOM
      1 C1         -0.5020   -5.0440   -1.8140 c1        1 04Z     -0.187000
      2 N1         -0.8540    2.4450   -1.7530 n2        1 04Z     -0.227000
      3 O1          5.0030    3.7040    3.9450 o         1 04Z     -0.939000
      4 S1         -0.5250    0.1680   -1.0590 ss        1 04Z      0.549000
      5 C2         -1.7860   -4.5450   -1.6630 c1        1 04Z      0.074000
      6 N2         -1.9740    1.8800   -4.1010 nh        1 04Z     -0.334000
      7 O2          3.9900    2.2520    5.2850 o         1 04Z     -0.939000
      8 S2          3.7160    3.4400    4.5240 ss        1 04Z      2.872000
      9 C3         -2.0880   -3.2650   -2.0990 c1        1 04Z     -0.108000
     10 N3         -0.5040    2.5420    0.4120 nh        1 04Z     -0.227000
     11 O3         -1.9890   -1.0330   -4.3350 o         1 04Z     -0.338000
     12 C4          0.1780   -2.9820   -2.8390 c1        1 04Z     -0.124000
     13 N4          3.2350    4.6730    5.4960 n2        1 04Z     -0.953000
     14 C5          0.4800   -4.2630   -2.4020 c1        1 04Z     -0.124000
     15 O6         -2.7980   -5.5180   -1.7080 os        1 04Z     -0.207000
     16 C7         -3.1620   -6.0240   -0.4430 c3        1 04Z     -0.077000
     17 C10        -1.1060   -2.4830   -2.6880 c1        1 04Z     -0.106000
     18 C11        -1.4580   -1.1230   -3.2460 c2        1 04Z      0.362000
     19 C12        -1.1810    0.1220   -2.4350 c2        1 04Z     -0.615000
     20 C13        -1.3880    1.4820   -2.8710 c2        1 04Z      0.196000
     21 C14        -0.3430    1.6530   -0.6810 c2        1 04Z     -0.119000
     22 C15         0.5440    2.7070    1.3520 c2        1 04Z      0.134000
     23 C16         1.4740    3.7200    1.1810 c2        1 04Z     -0.208000
     24 C17         2.4510    3.9340    2.1410 c1        1 04Z      0.018000
     25 C18         2.4970    3.1350    3.2720 c1        1 04Z     -0.869000
     26 C19         1.5670    2.1210    3.4430 c1        1 04Z      0.025000
     27 C20         0.5900    1.9080    2.4840 c1        1 04Z     -0.216000
     28 H1         -0.2890   -5.9460   -1.5060 ha        1 04Z      0.141000
     29 HN2        -2.3010    1.2500   -4.6770 hn        1 04Z      0.251500
     30 HN2A       -2.0070    2.7660   -4.3250 hn        1 04Z      0.251500
     31 H3         -2.9930   -2.9130   -1.9930 ha        1 04Z      0.166000
     32 HN3        -1.2890    2.9950    0.5190 hn        1 04Z      0.244000
     33 H4          0.8700   -2.4320   -3.2530 ha        1 04Z      0.141500
     34 HN4         3.5750    5.5120    5.3720 hn        1 04Z      0.242000
     35 HN4A        2.6410    4.5160    6.1730 hn        1 04Z      0.242000
     36 H5          1.3840   -4.6140   -2.5090 ha        1 04Z      0.141500
     37 H7         -3.8530   -5.4500   -0.0480 h1        1 04Z      0.085667
     38 H7A        -2.3740   -6.0380    0.1420 h1        1 04Z      0.085667
     39 H7B        -3.5120   -6.9350   -0.5440 h1        1 04Z      0.085667
     40 H16         1.4420    4.2830    0.3850 ha        1 04Z      0.145000
     41 H17         3.1060    4.6470    2.0210 ha        1 04Z      0.157000
     42 H19         1.6000    1.5580    4.2410 ha        1 04Z      0.156000
     43 H20        -0.0650    1.1940    2.6040 ha        1 04Z      0.154000
@<TRIPOS>BOND
     1    1    5 1   
     2    1   28 1   
     3    2   20 1   
     4    2   21 1   
     5    3    8 1   
     6    4   19 1   
     7    4   21 1   
     8    5   15 1   
     9    6   20 1   
    10    6   29 1   
    11    6   30 1   
    12    7    8 1   
    13    9   17 1   
    14    9   31 1   
    15   10   21 1   
    16   10   22 1   
    17   10   32 1   
    18   11   18 1   
    19   12   14 1   
    20   12   33 1   
    21   13   34 1   
    22   13   35 1   
    23   14   36 1   
    24   15   16 1   
    25   16   37 1   
    26   16   38 1   
    27   16   39 1   
    28   17   18 1   
    29   18   19 1   
    30   19   20 1   
    31   22   23 1   
    32   22   27 1   
    33   23   24 1   
    34   23   40 1   
    35   24   41 1   
    36   25   26 1   
    37   26   42 1   
    38   27   43 1   
@<TRIPOS>SUBSTRUCTURE
     1 04Z         1 TEMP              0 ****  ****    0 ROOT
