@<TRIPOS>MOLECULE
04Z
   44    46     1     0     0
SMALL
bcc


@<TRIPOS>ATOM
      1 C1          0.2140   -0.9730    0.1150 ca        1 04Z     -0.175000
      2 N1          5.5020    0.0080    5.0610 nc        1 04Z     -0.714000
      3 O1         10.5020   -4.0160    8.1190 o         1 04Z     -0.581800
      4 S1          4.3540   -0.6850    2.8320 ss        1 04Z      0.068700
      5 C2          1.4970   -0.4110    0.0880 ca        1 04Z      0.127100
      6 N2          3.6440    1.0210    6.2400 nv        1 04Z     -0.927500
      7 O2         12.1420   -3.7640    6.3800 o         1 04Z     -0.581800
      8 S2         10.8280   -3.8740    6.7870 sy        1 04Z      1.519200
      9 C3          2.0990    0.0650    1.2670 ca        1 04Z     -0.157000
     10 N3          6.9520   -1.1310    3.4690 nu        1 04Z     -0.678300
     11 O3          1.3290    1.0410    4.5920 o         1 04Z     -0.545100
     12 C4          0.1150   -0.5830    2.5030 ca        1 04Z     -0.111000
     13 N4         10.5080   -5.7350    6.2190 nz        1 04Z     -0.778500
     14 C5         -0.4690   -1.0500    1.3270 ca        1 04Z     -0.092000
     15 O6          2.2740   -0.2860   -1.0460 os        1 04Z     -0.331900
     16 C7          1.6320   -0.5830   -2.2830 c3        1 04Z      0.111700
     17 C10         1.4050   -0.0370    2.4740 ca        1 04Z     -0.135600
     18 C11         2.0060    0.4380    3.7450 c         1 04Z      0.638300
     19 C12         3.4070    0.1190    3.9510 cd        1 04Z     -0.411000
     20 C13         4.1560    0.4250    5.1260 cc        1 04Z      0.697200
     21 C14         5.7080   -0.6080    3.8760 cd        1 04Z      0.556300
     22 C15         7.8430   -1.7660    4.2870 ca        1 04Z      0.323600
     23 C16         7.4990   -2.2850    5.5760 ca        1 04Z     -0.215500
     24 C17         8.4280   -2.9580    6.3240 ca        1 04Z      0.051500
     25 C18         9.7590   -3.1880    5.8750 ca        1 04Z     -0.662500
     26 C19        10.0850   -2.6770    4.5880 ca        1 04Z      0.051500
     27 C20         9.1800   -2.0000    3.8160 ca        1 04Z     -0.215500
     28 H1         -0.2600   -1.3430   -0.8060 ha        1 04Z      0.149000
     29 HN2         4.2500    1.3340    6.9590 hn        1 04Z      0.461800
     30 HN2A        2.7200    1.3900    6.1840 hn        1 04Z      0.461800
     31 H3          3.0840    0.5540    1.1990 ha        1 04Z      0.151000
     32 HN3         7.2950   -0.7630    2.6020 hn        1 04Z      0.468800
     33 H4         -0.4330   -0.6270    3.4570 ha        1 04Z      0.157000
     34 HN4         9.7750   -5.7960    5.5230 hn        1 04Z      0.444467
     35 HN4A       10.2390   -6.3000    7.0180 hn        1 04Z      0.444467
     36 H5         -1.4830   -1.4800    1.3540 ha        1 04Z      0.148000
     37 H7          1.3740   -1.6690   -2.3360 h1        1 04Z      0.051367
     38 H7A         2.4090   -0.3240   -3.0460 h1        1 04Z      0.051367
     39 H7B         0.7190    0.0460   -2.4180 h1        1 04Z      0.051367
     40 H16         6.4840   -2.1380    5.9820 ha        1 04Z      0.178000
     41 H17         8.1430   -3.3260    7.3300 ha        1 04Z      0.164000
     42 H19        11.1180   -2.8160    4.2130 ha        1 04Z      0.164000
     43 H20         9.4890   -1.6160    2.8290 ha        1 04Z      0.178000
     44 H43        11.3570   -6.1290    5.8250 hn        1 04Z      0.444467
@<TRIPOS>BOND
     1    1    5 ar  
     2    1   14 ar  
     3    1   28 1   
     4    2   20 1   
     5    2   21 2   
     6    3    8 2   
     7    4   19 1   
     8    4   21 1   
     9    5    9 ar  
    10    5   15 1   
    11    6   20 1   
    12    6   29 1   
    13    6   30 1   
    14    7    8 2   
    15    8   13 1   
    16    8   25 1   
    17    9   17 ar  
    18    9   31 1   
    19   10   21 1   
    20   10   22 1   
    21   10   32 1   
    22   11   18 2   
    23   12   14 ar  
    24   12   17 ar  
    25   12   33 1   
    26   13   34 1   
    27   13   35 1   
    28   13   44 1   
    29   14   36 1   
    30   15   16 1   
    31   16   37 1   
    32   16   38 1   
    33   16   39 1   
    34   17   18 1   
    35   18   19 1   
    36   19   20 2   
    37   22   23 ar  
    38   22   27 ar  
    39   23   24 ar  
    40   23   40 1   
    41   24   25 ar  
    42   24   41 1   
    43   25   26 ar  
    44   26   27 ar  
    45   26   42 1   
    46   27   43 1   
@<TRIPOS>SUBSTRUCTURE
     1 04Z         1 TEMP              0 ****  ****    0 ROOT
