@<TRIPOS>MOLECULE
04Z
   43    45     1     0     0
SMALL
bcc


@<TRIPOS>ATOM
      1 C1         -6.7580   -0.7480    0.6860 ca        1 04Z     -0.186000
      2 N1          0.1560    1.4320   -0.4410 nc        1 04Z     -0.753000
      3 O1          7.0640    0.8860   -0.1320 o         1 04Z     -0.659800
      4 S1         -1.8300   -0.1790    0.0990 ss        1 04Z     -0.100300
      5 C2         -5.7080   -1.2170   -0.1110 ca        1 04Z      0.119100
      6 N2         -1.0370    3.4660   -0.9690 nh        1 04Z     -0.939500
      7 O2          7.1610   -1.4240   -0.8390 o         1 04Z     -0.659800
      8 S2          6.6920   -0.4590    0.0800 sy        1 04Z      1.532200
      9 C3         -4.6550   -0.3660   -0.4930 ca        1 04Z     -0.141000
     10 N3          0.7880   -0.8180    0.2580 nh        1 04Z     -0.713300
     11 O3         -3.8430    3.0680   -0.7820 o         1 04Z     -0.584100
     12 C4         -5.7240    1.4420    0.7170 ca        1 04Z     -0.117000
     13 N4          7.1310   -0.8930    1.5600 n3        1 04Z     -1.026700
     14 C5         -6.7560    0.5870    1.0930 ca        1 04Z     -0.102000
     15 O6         -5.5980   -2.5140   -0.5780 os        1 04Z     -0.328900
     16 C7         -6.6840   -3.3820   -0.2780 c3        1 04Z      0.112700
     17 C10        -4.6660    0.9620   -0.0680 ca        1 04Z     -0.121600
     18 C11        -3.5740    1.9000   -0.4430 c         1 04Z      0.643300
     19 C12        -2.2280    1.3980   -0.3560 cd        1 04Z     -0.421000
     20 C13        -1.0470    2.1540   -0.6100 cc        1 04Z      0.727200
     21 C14        -0.1330    0.1750   -0.0510 cd        1 04Z      0.684300
     22 C15         2.1830   -0.6770    0.1730 ca        1 04Z      0.209600
     23 C16         2.8540    0.5060    0.5510 ca        1 04Z     -0.185000
     24 C17         4.2420    0.5540    0.5200 ca        1 04Z      0.006500
     25 C18         5.0110   -0.5480    0.1330 ca        1 04Z     -0.414500
     26 C19         4.3400   -1.7180   -0.2430 ca        1 04Z      0.006500
     27 C20         2.9570   -1.7960   -0.2290 ca        1 04Z     -0.185000
     28 H1         -7.5800   -1.4110    0.9890 ha        1 04Z      0.140000
     29 HN2        -0.1890    3.9210   -1.1960 hn        1 04Z      0.459800
     30 HN2A       -1.9090    3.9160   -1.1340 hn        1 04Z      0.459800
     31 H3         -3.8570   -0.7600   -1.1440 ha        1 04Z      0.159000
     32 HN3         0.4470   -1.7470    0.1120 hn        1 04Z      0.441800
     33 H4         -5.7310    2.5000    1.0220 ha        1 04Z      0.152000
     34 HN4         7.2610   -0.2530    2.3020 hn        1 04Z      0.446300
     35 HN4A        7.3270   -1.8270    1.8210 hn        1 04Z      0.446300
     36 H5         -7.5820    0.9650    1.7130 ha        1 04Z      0.138000
     37 H7         -7.6390   -2.9840   -0.7000 h1        1 04Z      0.045700
     38 H7A        -6.3980   -4.3400   -0.7820 h1        1 04Z      0.045700
     39 H7B        -6.7760   -3.5300    0.8260 h1        1 04Z      0.045700
     40 H16         2.2960    1.3980    0.8750 ha        1 04Z      0.153000
     41 H17         4.7520    1.4960    0.7950 ha        1 04Z      0.155000
     42 H19         4.9290   -2.5910   -0.5810 ha        1 04Z      0.155000
     43 H20         2.4680   -2.7340   -0.5360 ha        1 04Z      0.153000
@<TRIPOS>BOND
     1    1    5 ar  
     2    1   14 ar  
     3    1   28 1   
     4    2   20 1   
     5    2   21 2   
     6    3    8 2   
     7    4   19 1   
     8    4   21 1   
     9    5    9 ar  
    10    5   15 1   
    11    6   20 1   
    12    6   29 1   
    13    6   30 1   
    14    7    8 2   
    15    8   13 1   
    16    8   25 1   
    17    9   17 ar  
    18    9   31 1   
    19   10   21 1   
    20   10   22 1   
    21   10   32 1   
    22   11   18 2   
    23   12   14 ar  
    24   12   17 ar  
    25   12   33 1   
    26   13   34 1   
    27   13   35 1   
    28   14   36 1   
    29   15   16 1   
    30   16   37 1   
    31   16   38 1   
    32   16   39 1   
    33   17   18 1   
    34   18   19 1   
    35   19   20 2   
    36   22   23 ar  
    37   22   27 ar  
    38   23   24 ar  
    39   23   40 1   
    40   24   25 ar  
    41   24   41 1   
    42   25   26 ar  
    43   26   27 ar  
    44   26   42 1   
    45   27   43 1   
@<TRIPOS>SUBSTRUCTURE
     1 04Z         1 TEMP              0 ****  ****    0 ROOT
