@<TRIPOS>MOLECULE
051
   59    62     1     0     0
SMALL
bcc


@<TRIPOS>ATOM
      1 N30        -2.5040   -0.3910   -1.5770 n1        1 051     -0.361800
      2 C30        -1.7610   -0.3670   -0.6810 cg        1 051      0.235800
      3 C27        -0.8540   -0.3370    0.4140 ca        1 051      0.004000
      4 C26         0.5110   -0.5380    0.1860 ca        1 051     -0.131000
      5 C25         1.4030   -0.5050    1.2720 ca        1 051      0.120900
      6 F25         2.7260   -0.6950    1.0470 f         1 051     -0.135900
      7 C28        -1.3290   -0.1060    1.7120 ca        1 051     -0.106000
      8 C29        -0.4390   -0.0770    2.7820 ca        1 051     -0.086000
      9 C24         0.9290   -0.2750    2.5840 ca        1 051     -0.094300
     10 C23         1.9010   -0.2680    3.7170 c3        1 051      0.171700
     11 O22         1.2930    0.4160    4.8190 os        1 051     -0.336900
     12 C20         1.9330    0.2620    6.0390 ca        1 051      0.134100
     13 C21         1.1790    0.6060    7.1490 ca        1 051     -0.173000
     14 C15         1.7600    0.5240    8.4390 ca        1 051      0.037000
     15 C14         1.0250    0.8540    9.6120 ca        1 051     -0.158000
     16 C13         1.6080    0.7520   10.8480 ca        1 051     -0.030000
     17 C19         3.2780   -0.1770    6.1650 ca        1 051     -0.206000
     18 C18         3.8450   -0.2600    7.4130 ca        1 051     -0.046000
     19 C16         3.1040    0.0920    8.5740 ca        1 051     -0.096000
     20 C17         3.6800    0.0080    9.8690 ca        1 051      0.045000
     21 C12         2.9560    0.3270   10.9970 ca        1 051     -0.379500
     22 S11         3.6470    0.2710   12.5460 sy        1 051      1.516200
     23 O32         4.9220    0.8810   12.4950 o         1 051     -0.664800
     24 O33         2.7270    0.8700   13.4380 o         1 051     -0.664800
     25 N           3.7710   -1.3050   12.8350 n3        1 051     -0.924100
     26 C1          5.0110   -2.0010   13.0850 c3        1 051      0.254500
     27 C3          5.2290   -2.3270   14.5750 c3        1 051     -0.093400
     28 C6          4.2420   -3.3550   15.0840 c3        1 051     -0.066400
     29 C4          4.2770   -4.6360   14.2760 c3        1 051     -0.193700
     30 C8          3.0960   -5.5480   14.7220 c         1 051      0.917600
     31 O4          3.3660   -6.5150   15.4820 o         1 051     -0.833300
     32 O3          1.9440   -5.2630   14.2890 o         1 051     -0.833300
     33 C5          4.1460   -4.3690   12.7900 c3        1 051     -0.078400
     34 C2          5.1400   -3.3320   12.3040 c3        1 051     -0.164700
     35 C7          5.0820   -3.0780   10.8240 c         1 051      0.639100
     36 O1          5.8250   -2.3130   10.1940 o         1 051     -0.553000
     37 O2          4.1870   -3.7090   10.0110 oh        1 051     -0.596100
     38 H26         0.8960   -0.7200   -0.8290 ha        1 051      0.159000
     39 H28        -2.4050    0.0520    1.8850 ha        1 051      0.151000
     40 H29        -0.8090    0.1090    3.8050 ha        1 051      0.168000
     41 H231        2.1540   -1.3250    4.0070 h1        1 051      0.063700
     42 H232        2.8390    0.2760    3.4210 h1        1 051      0.063700
     43 H21         0.1400    0.9430    7.0360 ha        1 051      0.147000
     44 H19         3.8610   -0.4460    5.2730 ha        1 051      0.137000
     45 H14        -0.0180    1.1860    9.5060 ha        1 051      0.135000
     46 H13         1.0380    1.0090   11.7600 ha        1 051      0.161000
     47 H18         4.8820   -0.6120    7.5380 ha        1 051      0.156000
     48 H17         4.7320   -0.3320    9.9530 ha        1 051      0.173000
     49 H           3.5900   -4.2720   10.5260 ho        1 051      0.447000
     50 H1          5.8530   -1.3230   12.7380 h1        1 051      0.075700
     51 H31C        6.2750   -2.7180   14.6840 hc        1 051      0.040200
     52 H32C        5.1540   -1.3890   15.1820 hc        1 051      0.040200
     53 H2          6.1830   -3.7160   12.5110 hc        1 051      0.088700
     54 H61C        4.4790   -3.5960   16.1540 hc        1 051      0.052200
     55 H62C        3.2000   -2.9380   15.0640 hc        1 051      0.052200
     56 H4          5.2390   -5.1760   14.4770 hc        1 051      0.041700
     57 H51C        4.3160   -5.3340   12.2410 hc        1 051      0.054700
     58 H52C        3.0880   -4.0450   12.5870 hc        1 051      0.054700
     59 HN3         2.9740   -1.8710   13.0280 hn        1 051      0.467800
@<TRIPOS>BOND
     1    1    2 3   
     2    2    3 1   
     3    3    4 ar  
     4    3    7 ar  
     5    4    5 ar  
     6    4   38 1   
     7    5    6 1   
     8    5    9 ar  
     9    7    8 ar  
    10    7   39 1   
    11    8    9 ar  
    12    8   40 1   
    13    9   10 1   
    14   10   11 1   
    15   10   41 1   
    16   10   42 1   
    17   11   12 1   
    18   12   13 ar  
    19   12   17 ar  
    20   13   14 ar  
    21   13   43 1   
    22   14   15 ar  
    23   14   19 ar  
    24   15   16 ar  
    25   15   45 1   
    26   16   21 ar  
    27   16   46 1   
    28   17   18 ar  
    29   17   44 1   
    30   18   19 ar  
    31   18   47 1   
    32   19   20 ar  
    33   20   21 ar  
    34   20   48 1   
    35   21   22 1   
    36   22   23 2   
    37   22   24 2   
    38   22   25 1   
    39   25   26 1   
    40   25   59 1   
    41   26   27 1   
    42   26   34 1   
    43   26   50 1   
    44   27   28 1   
    45   27   51 1   
    46   27   52 1   
    47   28   29 1   
    48   28   54 1   
    49   28   55 1   
    50   29   30 1   
    51   29   33 1   
    52   29   56 1   
    53   30   31 1   
    54   30   32 1   
    55   33   34 1   
    56   33   57 1   
    57   33   58 1   
    58   34   35 1   
    59   34   53 1   
    60   35   36 2   
    61   35   37 1   
    62   37   49 1   
@<TRIPOS>SUBSTRUCTURE
     1 051         1 TEMP              0 ****  ****    0 ROOT
