@<TRIPOS>MOLECULE
051
   58    54     1     0     0
SMALL
bcc


@<TRIPOS>ATOM
      1 N30        -5.1310    0.3060  -10.9990 n1        1 051     -0.055000
      2 C30        -4.4590    0.2260  -10.0580 c1        1 051     -0.085000
      3 C27        -3.5820    0.1210   -8.8340 c1        1 051     -0.004000
      4 C26        -4.1250    0.2860   -7.5780 c2        1 051     -0.134000
      5 C25        -3.3190    0.1550   -6.4520 c1        1 051      0.086000
      6 F25        -3.8190    0.4230   -5.2340 f         1 051     -0.097000
      7 C28        -2.2420   -0.1730   -8.9730 c1        1 051     -0.109000
      8 C29        -1.4410   -0.3030   -7.8510 c1        1 051     -0.089000
      9 C24        -1.9800   -0.1390   -6.5960 c2        1 051     -0.074000
     10 C23        -1.0940   -0.2670   -5.3700 c3        1 051      0.009000
     11 O22        -1.5160   -1.3900   -4.5890 os        1 051     -0.229000
     12 C20        -0.8990   -1.4650   -3.2940 c2        1 051      0.063000
     13 C21        -1.7510   -1.4760   -2.2030 c2        1 051     -0.199000
     14 C15        -1.2140   -1.5350   -0.8740 c1        1 051      0.027000
     15 C14        -2.0820   -1.4350    0.2450 c1        1 051     -0.086500
     16 C13        -1.5530   -1.3830    1.5330 c1        1 051     -0.086500
     17 C19         0.4740   -1.5110   -3.1030 c1        1 051     -0.178000
     18 C18         1.0040   -1.5690   -1.7980 c1        1 051     -0.068000
     19 C16         0.1430   -1.5800   -0.6880 c2        1 051     -0.099000
     20 C17         0.6790   -1.5280    0.6160 c2        1 051     -0.009000
     21 C12        -0.1750   -1.4290    1.7210 c1        1 051     -0.764000
     22 S11         0.6560   -1.6310    3.3490 s4        1 051      2.045800
     23 O32        -0.0690   -2.5410    4.1930 o         1 051     -0.570400
     24 O33         1.9180   -2.3200    3.2140 o         1 051     -0.570400
     25 N           0.8540   -0.1540    4.0840 n2        1 051     -0.879000
     26 C1          1.3840   -0.0810    5.4220 c3        1 051      0.069000
     27 C3          2.8670   -0.2730    5.3630 c3        1 051     -0.172000
     28 C6          3.5860    0.8590    4.7100 c3        1 051     -0.134000
     29 C4          3.2500    2.2400    5.3070 c3        1 051     -0.167000
     30 C8          3.9520    3.3560    4.5460 c2        1 051      0.332000
     31 O4          4.8820    3.9900    5.0890 o         1 051     -0.596500
     32 O3          3.5250    3.7120    3.4190 o         1 051     -0.596500
     33 C5          1.6930    2.4270    5.3510 c3        1 051     -0.122000
     34 C2          0.9510    1.2780    6.0540 c3        1 051     -0.168000
     35 C7         -0.5820    1.4730    6.0360 c2        1 051      0.324000
     36 O1         -1.2730    1.1700    7.0620 o         1 051     -0.595500
     37 O2         -1.1360    2.0200    5.0430 o         1 051     -0.595500
     38 H26        -5.0520    0.5580   -7.4820 ha        1 051      0.155000
     39 H28        -1.8410   -0.2170   -9.8660 ha        1 051      0.145000
     40 H29        -0.4970   -0.5570   -7.9500 ha        1 051      0.171000
     41 H231       -0.1690   -0.3970   -5.6510 h1        1 051      0.106500
     42 H232       -1.1600    0.5410   -4.8370 h1        1 051      0.106500
     43 H21        -2.6270   -1.0670   -2.2810 ha        1 051      0.136000
     44 H19         1.1090   -1.7290   -3.8120 ha        1 051      0.130000
     45 H14        -3.0510   -1.4960    0.1180 ha        1 051      0.186500
     46 H13        -2.1480   -1.3140    2.3000 ha        1 051      0.186500
     47 H18         1.9420   -1.8940   -1.8920 ha        1 051      0.130000
     48 H17         1.6630   -1.5600    0.7490 ha        1 051      0.147000
     49 H           0.6740    0.6050    3.6280 hn        1 051      0.304000
     50 H1          0.9900   -0.8230    5.9640 h1        1 051      0.053000
     51 H31C        3.0570   -1.1030    4.8560 hc        1 051      0.067000
     52 H32C        3.2080   -0.3780    6.2780 hc        1 051      0.067000
     53 H2          1.1310    1.2870    7.0180 hc        1 051      0.088000
     54 H61C        3.3600    0.8660    3.7560 hc        1 051      0.077500
     55 H62C        4.5560    0.7070    4.8000 hc        1 051      0.077500
     56 H4          3.6360    2.3460    6.2010 hc        1 051      0.066000
     57 H51C        1.3550    2.4990    4.4160 hc        1 051      0.088000
     58 H52C        1.4910    3.2660    5.8230 hc        1 051      0.088000
@<TRIPOS>BOND
     1    1    2 1   
     2    3    4 1   
     3    3    7 1   
     4    4    5 1   
     5    4   38 1   
     6    5    9 1   
     7    7   39 1   
     8    8    9 1   
     9    8   40 1   
    10    9   10 1   
    11   10   11 1   
    12   10   41 1   
    13   10   42 1   
    14   11   12 1   
    15   12   13 1   
    16   12   17 1   
    17   13   14 1   
    18   13   43 1   
    19   14   19 1   
    20   15   16 1   
    21   15   45 1   
    22   16   46 1   
    23   17   44 1   
    24   18   19 1   
    25   18   47 1   
    26   19   20 1   
    27   20   21 1   
    28   20   48 1   
    29   21   22 1   
    30   22   23 1   
    31   22   24 1   
    32   25   26 1   
    33   25   49 1   
    34   26   27 1   
    35   26   34 1   
    36   26   50 1   
    37   27   28 1   
    38   27   51 1   
    39   27   52 1   
    40   28   29 1   
    41   28   54 1   
    42   28   55 1   
    43   29   30 1   
    44   29   33 1   
    45   29   56 1   
    46   30   31 1   
    47   30   32 1   
    48   33   34 1   
    49   33   57 1   
    50   33   58 1   
    51   34   35 1   
    52   34   53 1   
    53   35   36 1   
    54   35   37 1   
@<TRIPOS>SUBSTRUCTURE
     1 051         1 TEMP              0 ****  ****    0 ROOT
