@<TRIPOS>MOLECULE
051
   58    61     1     0     0
SMALL
bcc


@<TRIPOS>ATOM
      1 N30       -11.9880    0.9270   -0.9780 n1        1 051     -0.381800
      2 C30       -10.8650    0.7980   -0.7020 cg        1 051      0.244800
      3 C27        -9.4920    0.6400   -0.3670 ca        1 051     -0.010000
      4 C26        -9.0390    1.0390    0.8950 ca        1 051     -0.135000
      5 C25        -7.6820    0.8770    1.2230 ca        1 051      0.115900
      6 F25        -7.2510    1.2600    2.4490 f         1 051     -0.135900
      7 C28        -8.6020    0.0850   -1.2960 ca        1 051     -0.108000
      8 C29        -7.2580   -0.0690   -0.9630 ca        1 051     -0.088000
      9 C24        -6.7780    0.3200    0.2890 ca        1 051     -0.079300
     10 C23        -5.3380    0.1790    0.6570 c3        1 051      0.169700
     11 O22        -4.7230   -0.7230   -0.2720 os        1 051     -0.355900
     12 C20        -3.3840   -0.9710    0.0390 ca        1 051      0.068100
     13 C21        -2.4050   -0.4610   -0.7850 ca        1 051     -0.122000
     14 C15        -1.0430   -0.7960   -0.5450 ca        1 051      0.003000
     15 C14         0.0040   -0.2980   -1.3580 ca        1 051     -0.150000
     16 C13         1.3160   -0.6280   -1.0990 ca        1 051     -0.020000
     17 C19        -3.0720   -1.8180    1.1380 ca        1 051     -0.183000
     18 C18        -1.7620   -2.1420    1.3800 ca        1 051     -0.082000
     19 C16        -0.7200   -1.6410    0.5510 ca        1 051     -0.081000
     20 C17         0.6400   -1.9600    0.7910 ca        1 051     -0.018000
     21 C12         1.6490   -1.4760   -0.0150 ca        1 051     -0.308500
     22 S11         3.2770   -1.9700    0.3140 sy        1 051      1.489200
     23 O32         3.2960   -2.2590    1.7110 o         1 051     -0.681800
     24 O33         3.5180   -3.1160   -0.4930 o         1 051     -0.681800
     25 N           4.1910   -0.7630   -0.0980 n3        1 051     -0.906100
     26 C1          4.3220    0.4870    0.6300 c3        1 051      0.266500
     27 C3          5.3000    0.4000    1.8130 c3        1 051     -0.093400
     28 C6          6.7470    0.3610    1.3750 c3        1 051     -0.055400
     29 C4          7.0970    1.5540    0.5030 c3        1 051     -0.177700
     30 C8          8.5800    1.4840    0.0810 c         1 051      0.913600
     31 O4          9.3010    2.5050    0.2960 o         1 051     -0.861800
     32 O3          9.0330    0.4200   -0.4330 o         1 051     -0.861800
     33 C5          6.1730    1.6050   -0.7020 c3        1 051     -0.043400
     34 C2          4.7150    1.6710   -0.2820 c3        1 051     -0.178700
     35 C7          3.7750    1.7510   -1.4980 c         1 051      0.904600
     36 O1          2.9760    2.7270   -1.5790 o         1 051     -0.860800
     37 O2          3.7920    0.8210   -2.3690 o         1 051     -0.860800
     38 H26        -9.7280    1.4760    1.6320 ha        1 051      0.154000
     39 H28        -8.9630   -0.2280   -2.2870 ha        1 051      0.146000
     40 H29        -6.5530   -0.5090   -1.6900 ha        1 051      0.175000
     41 H231       -4.8280    1.1790    0.5980 h1        1 051      0.060700
     42 H232       -5.2380   -0.2240    1.7020 h1        1 051      0.060700
     43 H21        -2.6590    0.1950   -1.6300 ha        1 051      0.142000
     44 H19        -3.8880   -2.2030    1.7640 ha        1 051      0.125000
     45 H14        -0.2390    0.3760   -2.1930 ha        1 051      0.145000
     46 H13         2.1210   -0.1900   -1.7410 ha        1 051      0.231000
     47 H18        -1.4930   -2.7960    2.2230 ha        1 051      0.129000
     48 H17         0.8880   -2.6020    1.6560 ha        1 051      0.148000
     49 H           4.5590   -0.6700   -1.0350 hn        1 051      0.509800
     50 H1          3.2960    0.7230    1.0580 h1        1 051      0.013700
     51 H31C        5.1260    1.3100    2.4450 hc        1 051      0.027700
     52 H32C        5.0630   -0.5000    2.4410 hc        1 051      0.027700
     53 H2          4.5590    2.6000    0.3330 hc        1 051      0.048700
     54 H61C        7.4070    0.3550    2.2810 hc        1 051      0.038200
     55 H62C        6.9590   -0.5780    0.7990 hc        1 051      0.038200
     56 H4          6.9590    2.4970    1.1020 hc        1 051      0.026700
     57 H51C        6.4130    2.5120   -1.3150 hc        1 051      0.049200
     58 H52C        6.3480    0.7090   -1.3520 hc        1 051      0.049200
@<TRIPOS>BOND
     1    1    2 3   
     2    2    3 1   
     3    3    4 ar  
     4    3    7 ar  
     5    4    5 ar  
     6    4   38 1   
     7    5    6 1   
     8    5    9 ar  
     9    7    8 ar  
    10    7   39 1   
    11    8    9 ar  
    12    8   40 1   
    13    9   10 1   
    14   10   11 1   
    15   10   41 1   
    16   10   42 1   
    17   11   12 1   
    18   12   13 ar  
    19   12   17 ar  
    20   13   14 ar  
    21   13   43 1   
    22   14   15 ar  
    23   14   19 ar  
    24   15   16 ar  
    25   15   45 1   
    26   16   21 ar  
    27   16   46 1   
    28   17   18 ar  
    29   17   44 1   
    30   18   19 ar  
    31   18   47 1   
    32   19   20 ar  
    33   20   21 ar  
    34   20   48 1   
    35   21   22 1   
    36   22   23 2   
    37   22   24 2   
    38   22   25 1   
    39   25   26 1   
    40   25   49 1   
    41   26   27 1   
    42   26   34 1   
    43   26   50 1   
    44   27   28 1   
    45   27   51 1   
    46   27   52 1   
    47   28   29 1   
    48   28   54 1   
    49   28   55 1   
    50   29   30 1   
    51   29   33 1   
    52   29   56 1   
    53   30   31 1   
    54   30   32 1   
    55   33   34 1   
    56   33   57 1   
    57   33   58 1   
    58   34   35 1   
    59   34   53 1   
    60   35   36 1   
    61   35   37 1   
@<TRIPOS>SUBSTRUCTURE
     1 051         1 TEMP              0 ****  ****    0 ROOT
