@<TRIPOS>MOLECULE
053
   45    35     1     0     0
SMALL
bcc


@<TRIPOS>ATOM
      1 C1          0.6540    0.2130    2.7080 c1        1 053     -0.066000
      2 C2          2.1330    0.2580    2.6690 c1        1 053     -0.062000
      3 C3          2.8970    0.4110    3.9220 c1        1 053     -0.129833
      4 C4          2.1670    0.4690    5.2540 c1        1 053     -0.129833
      5 N5          0.6970    0.4240    5.2920 n2        1 053     -0.292000
      6 C6         -0.0700    0.2720    4.0410 c1        1 053      0.325000
      7 C7         -0.5960   -1.8520   -2.5430 c1        1 053     -0.036000
      8 C8         -0.1730   -3.1590   -2.6480 c1        1 053     -0.198000
      9 C9          0.5790   -3.5640   -3.7480 c1        1 053      0.094000
     10 N10         0.9000   -2.6670   -4.7230 n1        1 053     -0.209000
     11 C11         0.4800   -1.3590   -4.6220 c1        1 053     -0.129833
     12 C12        -0.2750   -0.9510   -3.5200 c1        1 053     -0.129833
     13 C13        -0.9540    3.5800   -0.0130 c1        1 053     -0.209000
     14 C14        -1.4620    3.1250   -1.2150 c1        1 053     -0.129833
     15 C15        -1.5110    1.7670   -1.4750 c1        1 053     -0.129833
     16 C16        -0.4920    2.6730    0.9370 c1        1 053     -0.020000
     17 C17        -0.5410    1.3030    0.6750 c1        1 053     -0.019500
     18 C18        -1.0440    0.8510   -0.5160 c1        1 053     -0.019500
     19 N19        -0.9570   -0.5250   -0.5200 n1        1 053     -0.145000
     20 C20        -0.4030   -0.9170    0.6620 c1        1 053      0.013000
     21 C21        -0.1430    0.2150    1.4070 c1        1 053     -0.134000
     22 C22        -0.2530   -2.1960    1.3760 c1        1 053      0.375000
     23 O23         0.8300   -2.8070    1.3350 o         1 053     -0.538000
     24 C24        -1.5880   -1.4550   -1.4120 c2        1 053      0.007000
     25 C25        -0.7630    5.0670    0.0250 c3        1 053      0.472000
     26 O26        -1.1880   -2.6240    2.0940 o         1 053     -0.538000
     27 F27        -1.9390    5.6810   -0.2570 f         1 053     -0.182333
     28 F28        -0.3540    5.4310    1.2370 f         1 053     -0.182333
     29 F29         0.1530    5.4230   -0.8790 f         1 053     -0.182333
     30 O30        -1.2690    0.2430    4.0730 o         1 053     -0.391000
     31 N31         1.0880   -4.9280   -3.8160 n3        1 053     -0.323000
     32 H2          2.5990    0.2210    1.8170 ha        1 053      0.201000
     33 H3          3.8830    0.4430    3.8970 ha        1 053      0.133333
     34 H4          2.6740    0.5700    6.0870 ha        1 053      0.133333
     35 HN5         0.2590    0.4260    6.1000 hn        1 053      0.230000
     36 H8         -0.4020   -3.8040   -1.9490 ha        1 053      0.205000
     37 H11         0.7160   -0.7030   -5.3330 ha        1 053      0.133333
     38 H12        -0.5810   -0.0020   -3.4450 ha        1 053      0.133333
     39 H14        -1.8150    3.5150   -2.0200 ha        1 053      0.133333
     40 H15        -2.0690    1.8590   -2.2840 ha        1 053      0.133333
     41 H16        -0.0930    3.1000    1.7300 ha        1 053      0.161000
     42 H24        -1.8530   -2.2720   -0.9050 ha        1 053      0.125000
     43 H24A       -2.3950   -1.0370   -1.8090 ha        1 053      0.125000
     44 HN31        0.7210   -5.5790   -3.2870 hn        1 053      0.197000
     45 HN3A        1.7530   -5.1370   -4.3970 hn        1 053      0.197000
@<TRIPOS>BOND
     1    1    2 1   
     2    1   21 1   
     3    2   32 1   
     4    3    4 1   
     5    3   33 1   
     6    4   34 1   
     7    5    6 1   
     8    5   35 1   
     9    6   30 1   
    10    7    8 1   
    11    7   24 1   
    12    8   36 1   
    13    9   10 1   
    14    9   31 1   
    15   11   12 1   
    16   11   37 1   
    17   12   38 1   
    18   13   16 1   
    19   13   25 1   
    20   14   15 1   
    21   14   39 1   
    22   15   40 1   
    23   16   41 1   
    24   17   18 1   
    25   19   20 1   
    26   20   21 1   
    27   22   23 1   
    28   22   26 1   
    29   24   42 1   
    30   24   43 1   
    31   25   27 1   
    32   25   28 1   
    33   25   29 1   
    34   31   44 1   
    35   31   45 1   
@<TRIPOS>SUBSTRUCTURE
     1 053         1 TEMP              0 ****  ****    0 ROOT
