@<TRIPOS>MOLECULE
053
   45    44     1     0     0
SMALL
bcc


@<TRIPOS>ATOM
      1 C1          1.1490    0.3170    0.2110 c2        1 053     -0.374000
      2 C2          2.0300    0.9910    0.9150 c1        1 053      0.077000
      3 C3          2.4510    3.3420    0.5850 c1        1 053     -0.141000
      4 C4          1.3300    3.3760    0.1590 c1        1 053     -0.190000
      5 N5         -0.3720   -5.0430   -1.7430 n2        1 053     -0.375000
      6 C6          0.2570   -5.6880   -0.9160 c1        1 053      0.313000
      7 C7         -2.0370   -2.2110   -6.8670 c2        1 053     -0.213000
      8 C8         -1.6590   -2.8300   -5.7310 c2        1 053     -0.167000
      9 C9         -1.9450   -4.2630   -5.4460 c2        1 053      0.194000
     10 N10        -1.8890   -5.2560   -6.3310 n2        1 053     -0.221000
     11 C11        -1.6380   -5.0480   -7.6290 c1        1 053     -0.041000
     12 C12        -1.4240   -5.0200   -8.8150 c1        1 053     -0.333000
     13 C13        -0.3400    4.5440   -1.2430 c3        1 053     -0.073000
     14 C14        -1.4750    4.3400   -2.1860 c2        1 053     -0.220000
     15 C15        -1.8930    3.1290   -2.5970 c2        1 053     -0.041000
     16 C16        -0.0280    3.3430   -0.3250 c3        1 053      0.087000
     17 C17        -0.3150    2.0550   -0.9980 c2        1 053     -0.128000
     18 C18        -1.2600    1.9620   -2.0510 c2        1 053     -0.112000
     19 N19        -1.3860    0.6270   -2.4100 na        1 053     -0.118000
     20 C20        -0.5370   -0.1360   -1.6190 c2        1 053     -0.068000
     21 C21         0.1550    0.7320   -0.7300 c2        1 053     -0.035000
     22 O23         0.2390   -2.2950   -0.9400 o         1 053     -0.581000
     23 C25        -0.6200    5.8240   -0.3810 c3        1 053      0.407000
     24 O26        -1.0840   -2.1840   -2.7120 o         1 053     -0.581000
     25 F27        -0.9660    6.9270   -1.1270 f         1 053     -0.175000
     26 F28        -1.6350    5.7080    0.5340 f         1 053     -0.175000
     27 F29         0.4510    6.2660    0.3540 f         1 053     -0.175000
     28 O30         0.7620   -6.5440   -0.2260 o         1 053     -0.287000
     29 N31        -2.3240   -4.5360   -4.1440 n3        1 053     -0.328000
     30 H2          1.1880   -0.8040    0.3290 ha        1 053      0.245000
     31 H3         -0.7190    3.4140    0.5760 hc        1 053      0.124000
     32 H4          3.4380    3.3090    0.9710 ha        1 053      0.230000
     33 HN5        -0.4050   -4.0460   -1.8640 hn        1 053      0.328000
     34 H8         -1.1690   -2.2770   -4.9020 ha        1 053      0.190000
     35 H11        -1.2320   -5.0140   -9.8520 ha        1 053      0.216000
     36 H12        -2.5650   -2.7700   -7.6720 ha        1 053      0.176000
     37 H14        -1.9330    5.2610   -2.5770 ha        1 053      0.135000
     38 H15        -2.7010    3.0100   -3.3340 ha        1 053      0.132000
     39 H16         0.5790    4.7860   -1.8520 hc        1 053      0.132000
     40 H24        -1.0100   -0.3030   -7.0850 ha        1 053      0.074000
     41 H24A       -1.9740    0.2530   -3.1110 hn        1 053      0.261000
     42 HN31       -2.2690   -5.4770   -3.8260 hn        1 053      0.241500
     43 HN3A       -2.0990   -3.8340   -3.4650 hn        1 053      0.241500
     44 C22        -0.4500   -1.6260   -1.7610 c2        1 053      0.390000
     45 C24        -1.9720   -0.8290   -7.0960 c1        1 053     -0.039000
@<TRIPOS>BOND
     1    1    2 1   
     2    1   21 1   
     3    1   30 1   
     4    3    4 1   
     5    3   32 1   
     6    4   16 1   
     7    5    6 1   
     8    5   33 1   
     9    6   28 1   
    10    7    8 1   
    11    7   36 1   
    12    7   45 1   
    13    8    9 1   
    14    8   34 1   
    15    9   10 1   
    16    9   29 1   
    17   10   11 1   
    18   11   12 1   
    19   12   35 1   
    20   13   14 1   
    21   13   16 1   
    22   13   23 1   
    23   13   39 1   
    24   14   15 1   
    25   14   37 1   
    26   15   18 1   
    27   15   38 1   
    28   16   17 1   
    29   16   31 1   
    30   17   18 1   
    31   17   21 1   
    32   18   19 1   
    33   19   20 1   
    34   19   41 1   
    35   20   21 1   
    36   20   44 1   
    37   22   44 1   
    38   23   25 1   
    39   23   26 1   
    40   23   27 1   
    41   24   44 1   
    42   29   42 1   
    43   29   43 1   
    44   40   45 1   
@<TRIPOS>SUBSTRUCTURE
     1 053         1 TEMP              0 ****  ****    0 ROOT
