@<TRIPOS>MOLECULE
053
   45    48     1     0     0
SMALL
bcc


@<TRIPOS>ATOM
      1 C1         -1.0400    2.4030   -0.2260 cc        1 053     -0.085200
      2 C2         -0.3170    3.2880   -0.9840 cd        1 053     -0.062000
      3 C3         -0.8870    4.5190   -1.4250 cd        1 053     -0.219000
      4 C4         -2.1770    4.8260   -1.0820 cc        1 053     -0.034400
      5 N5         -2.9390    3.9590   -0.3340 n         1 053     -0.448100
      6 C6         -2.4290    2.7310    0.1380 c         1 053      0.686700
      7 C7          3.2640   -1.3820    0.5140 ca        1 053     -0.043300
      8 C8          3.9220   -0.4960   -0.3320 ca        1 053     -0.263300
      9 C9          4.8310   -1.0150   -1.3080 ca        1 053      0.615200
     10 N10         5.0550   -2.3630   -1.4430 nb        1 053     -0.735000
     11 C11         4.4050   -3.1790   -0.5980 ca        1 053      0.413200
     12 C12         3.5070   -2.7560    0.3920 ca        1 053     -0.288300
     13 C13        -2.5980   -1.9840    0.1300 ca        1 053     -0.216300
     14 C14        -1.6160   -2.8740    0.6030 ca        1 053     -0.098000
     15 C15        -0.3510   -2.4240    0.9380 ca        1 053     -0.150000
     16 C16        -2.3440   -0.6230   -0.0210 ca        1 053     -0.020000
     17 C17        -1.0800   -0.1340    0.2960 ca        1 053     -0.061800
     18 C18        -0.0720   -1.0560    0.7880 ca        1 053     -0.034200
     19 N19         1.0890   -0.3260    1.0440 na        1 053     -0.053400
     20 C20         0.8710    1.0180    0.6940 cd        1 053     -0.033300
     21 C21        -0.4540    1.1740    0.2420 cc        1 053     -0.122200
     22 O23         2.5170    2.4840   -0.2170 o         1 053     -0.803300
     23 C25        -3.9710   -2.5380   -0.2040 c3        1 053      0.693200
     24 O26         2.3890    2.3010    2.0110 o         1 053     -0.803300
     25 F27        -4.8100   -2.7020    0.8760 f         1 053     -0.253633
     26 F28        -4.7180   -1.7840   -1.0790 f         1 053     -0.253633
     27 F29        -3.9660   -3.7870   -0.7860 f         1 053     -0.253633
     28 O30        -3.2200    2.0420    0.8170 o         1 053     -0.666500
     29 N31         5.5620   -0.1110   -2.0960 nh        1 053     -0.925500
     30 H2          0.7410    3.0670   -1.2370 ha        1 053      0.201000
     31 H3         -0.2820    5.2120   -2.0220 ha        1 053      0.141000
     32 H4         -2.6660    5.7680   -1.3830 h4        1 053      0.131000
     33 HN5        -3.8620    4.2150   -0.0680 hn        1 053      0.316500
     34 H8          3.7290    0.5930   -0.2580 ha        1 053      0.205000
     35 H11         4.6200   -4.2540   -0.7380 h4        1 053      0.004100
     36 H12         3.0020   -3.4830    1.0390 ha        1 053      0.132000
     37 H14        -1.8650   -3.9410    0.7000 ha        1 053      0.127000
     38 H15         0.4180   -3.1170    1.3040 ha        1 053      0.128000
     39 H16        -3.1340    0.0640   -0.3660 ha        1 053      0.161000
     40 H24         2.0690   -1.6820    2.2860 h1        1 053      0.085700
     41 H24A        2.8370   -0.0160    2.1240 h1        1 053      0.085700
     42 HN31        5.1190    0.7780   -2.1850 hn        1 053      0.401800
     43 HN3A        5.9170   -0.4750   -2.9520 hn        1 053      0.401800
     44 C22         2.0050    2.0340    0.8450 c         1 053      0.924800
     45 C24         2.3190   -0.8550    1.5610 c3        1 053      0.073600
@<TRIPOS>BOND
     1    1    2 2   
     2    1    6 1   
     3    1   21 1   
     4    2    3 1   
     5    2   30 1   
     6    3    4 2   
     7    3   31 1   
     8    4    5 1   
     9    4   32 1   
    10    5    6 1   
    11    5   33 1   
    12    6   28 2   
    13    7    8 ar  
    14    7   12 ar  
    15    7   45 1   
    16    8    9 ar  
    17    8   34 1   
    18    9   10 ar  
    19    9   29 1   
    20   10   11 ar  
    21   11   12 ar  
    22   11   35 1   
    23   12   36 1   
    24   13   14 ar  
    25   13   16 ar  
    26   13   23 1   
    27   14   15 ar  
    28   14   37 1   
    29   15   18 ar  
    30   15   38 1   
    31   16   17 ar  
    32   16   39 1   
    33   17   18 ar  
    34   17   21 1   
    35   18   19 1   
    36   19   20 1   
    37   19   45 1   
    38   20   21 2   
    39   20   44 1   
    40   22   44 1   
    41   23   25 1   
    42   23   26 1   
    43   23   27 1   
    44   24   44 1   
    45   29   42 1   
    46   29   43 1   
    47   40   45 1   
    48   41   45 1   
@<TRIPOS>SUBSTRUCTURE
     1 053         1 TEMP              0 ****  ****    0 ROOT
