@<TRIPOS>MOLECULE
053
   45    43     1     0     0
SMALL
bcc


@<TRIPOS>ATOM
      1 C1          0.9690    0.9920   -1.1130 c1        1 053     -0.069000
      2 C2          1.9280    0.6740   -0.4680 c1        1 053     -0.210000
      3 C3          1.5300    0.8050    2.7250 c2        1 053     -0.550000
      4 C4          1.8910    1.1320    3.9290 c1        1 053      0.123000
      5 N5          0.9500   -2.1520    0.3430 n2        1 053     -0.374000
      6 C6          0.6910   -3.3390    0.5040 c1        1 053      0.316000
      7 C7         -2.5930   -4.3790   -6.7750 c2        1 053     -0.222000
      8 C8         -1.7890   -3.7560   -5.8890 c2        1 053     -0.140000
      9 C9         -0.6270   -4.4190   -5.2320 c2        1 053      0.188000
     10 N10         0.2340   -5.2400   -5.8350 n2        1 053     -0.227000
     11 C11         0.0820   -5.6300   -7.1050 c1        1 053     -0.039000
     12 C12         0.0830   -6.0640   -8.2300 c1        1 053     -0.338000
     13 C13        -0.9550    5.1470   -1.8450 c3        1 053     -0.153000
     14 C14        -2.2010    5.0000   -2.6490 c2        1 053     -0.152000
     15 C15        -2.5850    3.8130   -3.1590 c2        1 053     -0.117000
     16 C16        -0.2620    3.9210   -1.3790 c1        1 053     -0.067000
     17 C17        -0.6520    2.7290   -1.9670 c2        1 053     -0.195000
     18 C18        -1.7990    2.6450   -2.8490 c2        1 053      0.002000
     19 N19        -1.9660    1.3450   -3.2320 na        1 053     -0.109000
     20 C20        -0.9650    0.5470   -2.6440 c2        1 053     -0.085000
     21 C21        -0.1420    1.3750   -1.8560 c2        1 053      0.065000
     22 O23        -0.1630   -1.6910   -2.2990 o         1 053     -0.571000
     23 C25        -1.1780    6.1240   -0.6510 c3        1 053      0.450000
     24 O26        -1.7170   -1.3590   -3.8460 o         1 053     -0.571000
     25 F27        -1.7790    7.3090   -1.0230 f         1 053     -0.172333
     26 F28        -1.9770    5.6550    0.3570 f         1 053     -0.172333
     27 F29        -0.0280    6.5360   -0.0310 f         1 053     -0.172333
     28 O30         0.5650   -4.4680    0.9150 o         1 053     -0.270000
     29 N31        -0.4890   -4.1520   -3.8850 n8        1 053     -0.322000
     30 H2          2.7670    0.3740    0.1040 ha        1 053      0.223000
     31 H3          1.3310    1.5290    1.9130 ha        1 053      0.212500
     32 H4          1.3770   -0.2330    2.3780 ha        1 053      0.212500
     33 HN5         0.7430   -1.5820   -0.4530 hn        1 053      0.315000
     34 H8         -1.9980   -2.7250   -5.5360 ha        1 053      0.189000
     35 H11         0.0990   -6.4490   -9.2110 ha        1 053      0.214000
     36 H12        -2.3870   -5.4250   -7.0910 ha        1 053      0.171000
     37 H14        -2.7800    5.9180   -2.8340 ha        1 053      0.137000
     38 H15        -3.4820    3.7070   -3.7870 ha        1 053      0.134000
     39 H16        -0.1780    5.6460   -2.5120 hc        1 053      0.170000
     40 H24        -3.8480   -2.8620   -7.6940 ha        1 053      0.061000
     41 H24A       -2.6560    0.9660   -3.8360 hn        1 053      0.273000
     42 HN31        0.3700   -4.3880   -3.4430 hn        1 053      0.246000
     43 HN3A       -0.9280   -3.3120   -3.5440 hn        1 053      0.246000
     44 C22        -0.9380   -0.9300   -2.9420 c2        1 053      0.394000
     45 C24        -3.8130   -3.8640   -7.2440 c1        1 053     -0.047000
@<TRIPOS>BOND
     1    1    2 1   
     2    1   21 1   
     3    2   30 1   
     4    3    4 1   
     5    3   31 1   
     6    3   32 1   
     7    5    6 1   
     8    5   33 1   
     9    6   28 1   
    10    7    8 1   
    11    7   36 1   
    12    7   45 1   
    13    8    9 1   
    14    8   34 1   
    15    9   10 1   
    16    9   29 1   
    17   10   11 1   
    18   11   12 1   
    19   12   35 1   
    20   13   14 1   
    21   13   16 1   
    22   13   23 1   
    23   13   39 1   
    24   14   15 1   
    25   14   37 1   
    26   15   18 1   
    27   15   38 1   
    28   16   17 1   
    29   17   18 1   
    30   17   21 1   
    31   18   19 1   
    32   19   20 1   
    33   19   41 1   
    34   20   21 1   
    35   20   44 1   
    36   22   44 1   
    37   23   25 1   
    38   23   26 1   
    39   23   27 1   
    40   24   44 1   
    41   29   42 1   
    42   29   43 1   
    43   40   45 1   
@<TRIPOS>SUBSTRUCTURE
     1 053         1 TEMP              0 ****  ****    0 ROOT
