@<TRIPOS>MOLECULE
053
   46    48     1     0     0
SMALL
bcc


@<TRIPOS>ATOM
      1 C1         -0.0170    0.0200    0.6300 c2        1 053     -0.062000
      2 C2          0.9750   -0.7170    1.1690 c2        1 053     -0.157000
      3 C3          0.6490    1.7550    2.9060 c2        1 053     -0.241000
      4 C4          0.7680    2.5450    4.0610 c1        1 053     -0.077000
      5 N5          0.9110    3.1870    5.0230 n1        1 053     -0.046000
      6 C6         -0.9030    0.8410    1.4200 c2        1 053     -0.160000
      7 C7         -0.4050   -2.1660   -5.1570 c2        1 053      0.127000
      8 C8          0.0650   -3.4330   -5.6600 c2        1 053     -0.238000
      9 C9         -0.1450   -3.7140   -7.0040 c2        1 053     -0.044000
     10 N10        -0.7580   -2.9100   -7.9200 n2        1 053     -0.264000
     11 C11        -1.1920   -1.7270   -7.4240 c2        1 053     -0.003000
     12 C12        -1.0490   -1.3180   -6.1060 c2        1 053     -0.267000
     13 C13        -2.0240    3.0130   -2.2820 c2        1 053     -0.305000
     14 C14        -2.1680    2.5800   -3.6070 c1        1 053     -0.086000
     15 C15        -1.6900    1.2640   -4.0210 c3        1 053     -0.150000
     16 C16        -1.4400    2.2430   -1.2920 c2        1 053      0.121000
     17 C17        -0.9660    0.9560   -1.6000 c2        1 053     -0.222000
     18 C18        -1.0610    0.4440   -2.9590 c2        1 053      0.016000
     19 N19        -0.4950   -0.7920   -2.9790 na        1 053      0.015000
     20 C20        -0.0250   -1.1030   -1.6500 c2        1 053     -0.193000
     21 C21        -0.3170   -0.0430   -0.7880 c2        1 053      0.069000
     22 O23         0.4660   -2.8720   -3.0380 os        1 053     -0.199000
     23 O26         1.1550   -3.1770   -0.9410 o         1 053     -0.305000
     24 F27        -3.8830    4.5900   -2.1930 f         1 053     -0.172667
     25 F28        -2.4010    4.7740   -0.6340 f         1 053     -0.172667
     26 F29        -1.9300    5.4250   -2.6390 f         1 053     -0.172667
     27 O30        -0.6030    1.5760    2.4720 os        1 053      0.113000
     28 N31         0.3390   -5.0200   -7.5260 n4        1 053     -0.013000
     29 H2          1.5950   -1.3920    0.5590 ha        1 053      0.143000
     30 H3          1.1900   -0.7160    2.2460 ha        1 053      0.143000
     31 H4          1.5130    1.3710    2.3600 h4        1 053      0.188000
     32 HN5        -1.9860    0.8970    1.2100 h4        1 053      0.197000
     33 H8          0.5670   -4.1200   -4.9650 ha        1 053      0.160000
     34 H11        -1.6900   -1.0760   -8.1680 h4        1 053      0.165000
     35 H12        -1.4370   -0.3400   -5.8030 ha        1 053      0.149000
     36 H14        -0.9590    1.4440   -4.8660 hc        1 053      0.161000
     37 H15        -2.5850    0.7250   -4.4550 hc        1 053      0.161000
     38 H16        -1.3330    2.6210   -0.2580 ha        1 053      0.152000
     39 H24        -2.5270    1.5670   -6.7400 ha        1 053      0.001000
     40 H24A       -2.4690    1.1320   -7.2570 ha        1 053      0.001000
     41 HN31        0.7780   -5.5400   -6.7620 hn        1 053      0.248667
     42 HN3A       -0.4500   -5.5530   -7.9020 hn        1 053      0.248667
     43 C22         0.5850   -2.4230   -1.7190 c2        1 053      0.377000
     44 C24        -0.2000   -1.8740   -3.8260 c2        1 053     -0.143000
     45 H313        1.0200   -4.8590   -8.2740 hn        1 053      0.248667
     46 C25        -2.5440    4.4050   -1.9550 c3        1 053      0.489000
@<TRIPOS>BOND
     1    1    2 1   
     2    1    6 1   
     3    1   21 1   
     4    2   29 1   
     5    2   30 1   
     6    3    4 1   
     7    3   27 1   
     8    3   31 1   
     9    4    5 1   
    10    6   27 1   
    11    6   32 1   
    12    7    8 1   
    13    7   12 1   
    14    7   44 1   
    15    8    9 1   
    16    8   33 1   
    17    9   10 1   
    18    9   28 1   
    19   10   11 1   
    20   11   12 1   
    21   11   34 1   
    22   12   35 1   
    23   13   14 1   
    24   13   16 1   
    25   13   46 1   
    26   14   15 1   
    27   15   18 1   
    28   15   36 1   
    29   15   37 1   
    30   16   17 1   
    31   16   38 1   
    32   17   18 1   
    33   17   21 1   
    34   18   19 1   
    35   19   20 1   
    36   19   44 1   
    37   20   21 1   
    38   20   43 1   
    39   22   43 1   
    40   22   44 1   
    41   23   43 1   
    42   24   46 1   
    43   25   46 1   
    44   26   46 1   
    45   28   41 1   
    46   28   42 1   
    47   28   45 1   
    48   39   40 1   
@<TRIPOS>SUBSTRUCTURE
     1 053         1 TEMP              0 ****  ****    0 ROOT
