@<TRIPOS>MOLECULE
054
   48    52     1     0     0
SMALL
bcc


@<TRIPOS>ATOM
      1 C1         -0.6530    3.6900   -0.2560 ca        1 054     -0.213300
      2 C2         -2.0130    3.5010    0.0590 ca        1 054     -0.096000
      3 C3         -2.4780    2.2850    0.5270 ca        1 054     -0.143000
      4 C4          0.2780    2.6660   -0.1140 ca        1 054     -0.018000
      5 C5         -0.1580    1.4310    0.3580 ca        1 054     -0.063800
      6 C6         -1.5570    1.2340    0.6830 ca        1 054     -0.032200
      7 N7         -1.7250   -0.0730    1.1490 na        1 054     -0.036400
      8 C8         -0.4870   -0.7300    1.1190 cc        1 054     -0.061300
      9 C9          0.4950    0.1690    0.6420 cd        1 054     -0.038600
     10 C10        -0.2340   -2.1620    1.5800 c         1 054      0.940800
     11 O11         0.9660   -2.4700    1.8180 o         1 054     -0.812300
     12 O12        -1.2100   -2.9510    1.6890 o         1 054     -0.812300
     13 C13        -2.9800   -0.6430    1.5580 c3        1 054      0.073600
     14 C14        -3.8600   -1.1070    0.4270 ca        1 054     -0.039300
     15 C15        -0.2170    5.0570   -0.7490 c3        1 054      0.692200
     16 C16        -4.9460   -0.3380   -0.0110 ca        1 054     -0.285300
     17 C17        -5.7270   -0.8420   -1.0600 ca        1 054      0.412200
     18 N18        -5.5120   -2.0130   -1.6810 nb        1 054     -0.732000
     19 C19        -4.4620   -2.7760   -1.2330 ca        1 054      0.605200
     20 C20        -3.6080   -2.3360   -0.1740 ca        1 054     -0.256300
     21 N21         1.8710   -0.1060    0.4980 n         1 054     -0.358600
     22 C22         2.5350   -0.5050    1.7080 c         1 054      0.848500
     23 N23         3.6790   -1.3560    1.6620 n         1 054     -0.407100
     24 C24         2.3460   -0.5010   -0.7770 c         1 054      0.747100
     25 O25         1.7940   -0.1140   -1.8210 o         1 054     -0.608500
     26 O26         2.2260   -0.0130    2.8080 o         1 054     -0.607500
     27 C27         4.1890   -1.8690   -1.8970 cc        1 054     -0.091100
     28 C28         3.5410   -1.3550   -0.7960 cd        1 054     -0.204600
     29 C29         4.1210   -1.8390    0.4440 cd        1 054      0.086600
     30 C30         5.1680   -2.7140    0.1910 cc        1 054     -0.255100
     31 S31         5.4190   -2.8990   -1.4540 ss        1 054      0.020200
     32 F32        -1.0510    5.6290   -1.6830 f         1 054     -0.252300
     33 F33        -0.1360    6.0230    0.2300 f         1 054     -0.252300
     34 F34         1.0190    5.1060   -1.3490 f         1 054     -0.252300
     35 N35        -4.2600   -4.0570   -1.7790 nh        1 054     -0.921500
     36 H2         -2.7110    4.3410   -0.0780 ha        1 054      0.129000
     37 H3         -3.5400    2.1390    0.7630 ha        1 054      0.130000
     38 H4          1.3370    2.8200   -0.3730 ha        1 054      0.153000
     39 H13        -2.7480   -1.5370    2.2170 h1        1 054      0.088200
     40 H13A       -3.5340    0.1350    2.1590 h1        1 054      0.088200
     41 H16        -5.1770    0.6330    0.4410 ha        1 054      0.132000
     42 H17        -6.5860   -0.2650   -1.4470 h4        1 054      0.005100
     43 H20        -2.7580   -2.9510    0.1800 ha        1 054      0.207000
     44 HN23        3.7600   -1.9610    2.4540 hn        1 054      0.338500
     45 H27         3.9190   -1.6430   -2.9290 h4        1 054      0.185000
     46 H30         5.7620   -3.2310    0.9390 h4        1 054      0.172000
     47 HN35       -4.6470   -4.2000   -2.6860 hn        1 054      0.396300
     48 HN3A       -3.3170   -4.3680   -1.6950 hn        1 054      0.396300
@<TRIPOS>BOND
     1    1    2 ar  
     2    1    4 ar  
     3    1   15 1   
     4    2    3 ar  
     5    2   36 1   
     6    3    6 ar  
     7    3   37 1   
     8    4    5 ar  
     9    4   38 1   
    10    5    6 ar  
    11    5    9 1   
    12    6    7 1   
    13    7    8 1   
    14    7   13 1   
    15    8    9 2   
    16    8   10 1   
    17    9   21 1   
    18   10   11 1   
    19   10   12 1   
    20   13   14 1   
    21   13   39 1   
    22   13   40 1   
    23   14   16 ar  
    24   14   20 ar  
    25   15   32 1   
    26   15   33 1   
    27   15   34 1   
    28   16   17 ar  
    29   16   41 1   
    30   17   18 ar  
    31   17   42 1   
    32   18   19 ar  
    33   19   20 ar  
    34   19   35 1   
    35   20   43 1   
    36   21   22 1   
    37   21   24 1   
    38   22   23 1   
    39   22   26 2   
    40   23   29 1   
    41   23   44 1   
    42   24   25 2   
    43   24   28 1   
    44   27   28 2   
    45   27   31 1   
    46   27   45 1   
    47   28   29 1   
    48   29   30 2   
    49   30   31 1   
    50   30   46 1   
    51   35   47 1   
    52   35   48 1   
@<TRIPOS>SUBSTRUCTURE
     1 054         1 TEMP              0 ****  ****    0 ROOT
