@<TRIPOS>MOLECULE
054
   48    52     1     0     0
SMALL
bcc


@<TRIPOS>ATOM
      1 C1          0.1060    0.2710   -0.1970 ca        1 054     -0.213300
      2 C2          1.5090    0.3200   -0.0770 ca        1 054     -0.095000
      3 C3          2.1240    0.2610    1.1610 ca        1 054     -0.143000
      4 C4         -0.7200    0.1660    0.9170 ca        1 054     -0.017000
      5 C5         -0.1310    0.0980    2.1770 ca        1 054     -0.063800
      6 C6          1.3120    0.1480    2.3030 ca        1 054     -0.031200
      7 N7          1.6430    0.0510    3.6570 na        1 054     -0.036400
      8 C8          0.4640   -0.0410    4.4100 cc        1 054     -0.062300
      9 C9         -0.6420   -0.0230    3.5290 cd        1 054     -0.036600
     10 C10         0.3970   -0.1750    5.9270 c         1 054      0.940800
     11 O11        -0.6860   -0.6110    6.4060 o         1 054     -0.813300
     12 O12         1.4000    0.1590    6.6130 o         1 054     -0.813300
     13 C13         2.9830    0.0170    4.1710 c3        1 054      0.074600
     14 C14         3.6580    1.3570    4.2850 ca        1 054     -0.036300
     15 C15        -0.4960    0.3540   -1.5870 c3        1 054      0.692200
     16 C16         4.7340    1.6970    3.4540 ca        1 054     -0.290300
     17 C17         5.3680    2.9280    3.6720 ca        1 054      0.413200
     18 N18         5.0160    3.8150    4.6170 nb        1 054     -0.735000
     19 C19         3.9410    3.4930    5.4090 ca        1 054      0.611200
     20 C20         3.2480    2.2500    5.2700 ca        1 054     -0.255300
     21 N21        -1.9970   -0.1350    3.9010 n         1 054     -0.360600
     22 C22        -2.3240   -1.3220    4.6400 c         1 054      0.848500
     23 N23        -3.4000   -1.3210    5.5770 ns        1 054     -0.406100
     24 C24        -2.7640    1.0510    4.0190 c         1 054      0.747100
     25 O25        -2.5190    2.0500    3.3220 o         1 054     -0.605500
     26 O26        -1.7810   -2.4120    4.3860 o         1 054     -0.607500
     27 C27        -4.7520    2.0370    5.2830 cc        1 054     -0.089100
     28 C28        -3.8790    1.0180    4.9750 cd        1 054     -0.204600
     29 C29        -4.1050   -0.1520    5.8030 cd        1 054      0.085600
     30 C30        -5.1350    0.0730    6.7070 cc        1 054     -0.255100
     31 S31        -5.7770    1.6090    6.5220 ss        1 054      0.019200
     32 F32         0.1600   -0.3850   -2.5460 f         1 054     -0.252300
     33 F33        -1.8000   -0.0690   -1.6940 f         1 054     -0.252300
     34 F34        -0.5230    1.6180   -2.1320 f         1 054     -0.252300
     35 N35         3.4660    4.4330    6.3380 nv        1 054     -0.925500
     36 H2          2.1170    0.4050   -0.9900 ha        1 054      0.129000
     37 H3          3.2170    0.3110    1.2550 ha        1 054      0.131000
     38 H4         -1.8150    0.1390    0.8140 ha        1 054      0.153000
     39 H13         2.9380   -0.4370    5.2120 h1        1 054      0.087200
     40 H13A        3.5980   -0.6490    3.4980 h1        1 054      0.087200
     41 H16         5.0760    1.0230    2.6600 ha        1 054      0.131000
     42 H17         6.2270    3.2340    3.0490 h4        1 054      0.004100
     43 H20         2.4060    1.9750    5.9340 ha        1 054      0.205000
     44 HN23       -3.2470   -1.9240    6.3600 hn        1 054      0.338500
     45 H27        -4.7590    3.0100    4.7890 h4        1 054      0.186000
     46 H30        -5.4950   -0.6300    7.4520 h4        1 054      0.172000
     47 HN35        4.1170    5.1300    6.6210 hn        1 054      0.398800
     48 HN3A        2.9580    4.0220    7.0890 hn        1 054      0.398800
@<TRIPOS>BOND
     1    1    2 ar  
     2    1    4 ar  
     3    1   15 1   
     4    2    3 ar  
     5    2   36 1   
     6    3    6 ar  
     7    3   37 1   
     8    4    5 ar  
     9    4   38 1   
    10    5    6 ar  
    11    5    9 1   
    12    6    7 1   
    13    7    8 1   
    14    7   13 1   
    15    8    9 2   
    16    8   10 1   
    17    9   21 1   
    18   10   11 1   
    19   10   12 1   
    20   13   14 1   
    21   13   39 1   
    22   13   40 1   
    23   14   16 ar  
    24   14   20 ar  
    25   15   32 1   
    26   15   33 1   
    27   15   34 1   
    28   16   17 ar  
    29   16   41 1   
    30   17   18 ar  
    31   17   42 1   
    32   18   19 ar  
    33   19   20 ar  
    34   19   35 1   
    35   20   43 1   
    36   21   22 1   
    37   21   24 1   
    38   22   23 1   
    39   22   26 2   
    40   23   29 1   
    41   23   44 1   
    42   24   25 2   
    43   24   28 1   
    44   27   28 2   
    45   27   31 1   
    46   27   45 1   
    47   28   29 1   
    48   29   30 2   
    49   30   31 1   
    50   30   46 1   
    51   35   47 1   
    52   35   48 1   
@<TRIPOS>SUBSTRUCTURE
     1 054         1 TEMP              0 ****  ****    0 ROOT
