@<TRIPOS>MOLECULE
054
   49    53     1     0     0
SMALL
bcc


@<TRIPOS>ATOM
      1 C1          0.0010   -0.4850   -0.2020 ca        1 054     -0.197300
      2 C2          1.4020   -0.5730   -0.2970 ca        1 054     -0.076000
      3 C3          2.2080   -0.4420    0.8220 ca        1 054     -0.152000
      4 C4         -0.6340   -0.2670    1.0160 ca        1 054     -0.018000
      5 C5          0.1500   -0.1250    2.1570 ca        1 054     -0.072800
      6 C6          1.5890   -0.2150    2.0620 ca        1 054     -0.022200
      7 N7          2.1320   -0.0910    3.3520 na        1 054     -0.057400
      8 C8          1.0720    0.1410    4.2580 cc        1 054     -0.050300
      9 C9         -0.1470    0.1180    3.5630 cd        1 054      0.016400
     10 C10         1.2530    0.3570    5.7360 c         1 054      0.928800
     11 O11         1.9440   -0.4380    6.4230 o         1 054     -0.811800
     12 O12         0.7120    1.3940    6.2600 o         1 054     -0.811800
     13 C13         3.5320    0.1410    3.6040 c3        1 054      0.089600
     14 C14         3.7830    1.5170    4.1700 ca        1 054     -0.065300
     15 C15        -0.8210   -0.6530   -1.4700 c3        1 054      0.691200
     16 C16         3.9450    2.6670    3.4040 ca        1 054     -0.190300
     17 C17         3.8690    3.9230    4.0560 ca        1 054      0.418200
     18 N18         3.5220    4.0810    5.3410 nb        1 054     -0.653000
     19 C19         3.3530    2.9330    6.0610 ca        1 054      0.465200
     20 C20         3.6350    1.6470    5.5600 ca        1 054     -0.184300
     21 N21        -1.4300    0.3170    4.1020 n         1 054     -0.383600
     22 C22        -2.1080   -0.8190    4.6250 c         1 054      0.823500
     23 N23        -3.3420   -0.6480    5.2870 n         1 054     -0.446100
     24 C24        -1.9250    1.6410    4.2410 c         1 054      0.768100
     25 O25        -1.3200    2.6040    3.7460 o         1 054     -0.590500
     26 O26        -1.6750   -1.9810    4.4890 o         1 054     -0.615500
     27 C27        -3.8900    2.9330    5.2440 cc        1 054     -0.097100
     28 C28        -3.1950    1.7750    4.9600 cd        1 054     -0.211600
     29 C29        -3.8750    0.6070    5.4890 cd        1 054      0.082600
     30 C30        -5.0460    0.9670    6.1440 cc        1 054     -0.264100
     31 S31        -5.2760    2.6190    6.0980 ss        1 054      0.093200
     32 F32        -0.2960   -0.0240   -2.5760 f         1 054     -0.241967
     33 F33        -0.9760   -1.9560   -1.8800 f         1 054     -0.241967
     34 F34        -2.1070   -0.1740   -1.3980 f         1 054     -0.241967
     35 N35         2.6650    2.9760    7.3590 n4        1 054     -0.862300
     36 H2          1.8580   -0.7480   -1.2850 ha        1 054      0.144000
     37 H3          3.2990   -0.5260    0.7330 ha        1 054      0.134000
     38 H4         -1.7320   -0.2040    1.0790 ha        1 054      0.159000
     39 H13         3.8790   -0.6340    4.3510 h1        1 054      0.084700
     40 H13A        4.1040    0.0060    2.6440 h1        1 054      0.084700
     41 H16         4.0830    2.6220    2.3140 ha        1 054      0.167000
     42 H17         4.0390    4.8620    3.4950 h4        1 054      0.044100
     43 H20         3.6410    0.7500    6.2100 ha        1 054      0.214000
     44 HN23       -3.7650   -1.4540    5.6870 hn        1 054      0.351500
     45 H27        -3.5630    3.9300    4.9410 h4        1 054      0.192000
     46 H30        -5.7400    0.2860    6.6290 h4        1 054      0.180000
     47 HN35        1.8250    2.2860    7.2530 hn        1 054      0.475800
     48 HN3A        2.3190    3.9120    7.5700 hn        1 054      0.475800
     49 H353        3.2890    2.6580    8.0970 hn        1 054      0.475800
@<TRIPOS>BOND
     1    1    2 ar  
     2    1    4 ar  
     3    1   15 1   
     4    2    3 ar  
     5    2   36 1   
     6    3    6 ar  
     7    3   37 1   
     8    4    5 ar  
     9    4   38 1   
    10    5    6 ar  
    11    5    9 1   
    12    6    7 1   
    13    7    8 1   
    14    7   13 1   
    15    8    9 2   
    16    8   10 1   
    17    9   21 1   
    18   10   11 1   
    19   10   12 1   
    20   13   14 1   
    21   13   39 1   
    22   13   40 1   
    23   14   16 ar  
    24   14   20 ar  
    25   15   32 1   
    26   15   33 1   
    27   15   34 1   
    28   16   17 ar  
    29   16   41 1   
    30   17   18 ar  
    31   17   42 1   
    32   18   19 ar  
    33   19   20 ar  
    34   19   35 1   
    35   20   43 1   
    36   21   22 1   
    37   21   24 1   
    38   22   23 1   
    39   22   26 2   
    40   23   29 1   
    41   23   44 1   
    42   24   25 2   
    43   24   28 1   
    44   27   28 2   
    45   27   31 1   
    46   27   45 1   
    47   28   29 1   
    48   29   30 2   
    49   30   31 1   
    50   30   46 1   
    51   35   47 1   
    52   35   48 1   
    53   35   49 1   
@<TRIPOS>SUBSTRUCTURE
     1 054         1 TEMP              0 ****  ****    0 ROOT
