@<TRIPOS>MOLECULE
054
   48    40     1     0     0
SMALL
bcc


@<TRIPOS>ATOM
      1 C1         -0.0220    0.6160   -3.3730 c1        1 054     -0.206000
      2 C2          1.3350    0.3290   -3.3250 c1        1 054     -0.095000
      3 C3          1.9700    0.1760   -2.0960 c1        1 054     -0.143000
      4 C4         -0.7460    0.7520   -2.1970 c1        1 054     -0.017000
      5 C5         -0.1070    0.5980   -0.9580 c1        1 054     -0.052000
      6 C6          1.2390    0.3130   -0.9070 c1        1 054      0.014000
      7 N7          1.6280    0.3170    0.4220 n1        1 054     -0.128000
      8 C8          0.5270    0.6030    1.1850 c1        1 054     -0.016000
      9 C9         -0.5520    0.7780    0.3330 c1        1 054     -0.051000
     10 C10         0.1420    1.3540    2.4230 c1        1 054      0.391000
     11 O11        -0.9580    1.1160    2.9870 o         1 054     -0.548000
     12 O12         0.9340    2.1940    2.9200 o         1 054     -0.548000
     13 C13         2.8650    0.2190    1.1620 c2        1 054      0.008000
     14 C14         3.3110   -1.2300    1.2120 c2        1 054     -0.029000
     15 C15        -0.8530    1.2140   -4.4930 c3        1 054      0.471000
     16 C16         4.5310   -1.3500    0.6030 c2        1 054     -0.225000
     17 C17         5.3090   -2.4730    0.8290 c1        1 054     -0.052000
     18 N18         4.8610   -3.4560    1.6560 n1        1 054     -0.209000
     19 C19         3.6450   -3.3370    2.2630 c1        1 054      0.090000
     20 C20         2.8640   -2.2150    2.0390 c2        1 054     -0.190000
     21 N21        -1.9610    1.0660    0.4080 n2        1 054     -0.224000
     22 C22        -2.4520    2.4730    0.2110 c2        1 054      0.439000
     23 N23        -3.9000    2.7370    0.0340 n         1 054     -0.260000
     24 C24        -2.9000    0.0020    0.6370 c2        1 054      0.384000
     25 O25        -2.5010   -1.1230    0.8390 o         1 054     -0.330000
     26 O26        -1.6660    3.3980    0.2330 o         1 054     -0.332000
     27 C27        -5.5110   -0.6300    0.6110 c1        1 054     -0.359000
     28 C28        -4.3430    0.2620    0.5210 c2        1 054     -0.184000
     29 C29        -4.8380    1.6780    0.1790 c2        1 054      0.093000
     30 C30        -6.3080    1.6420    0.0630 c1        1 054     -0.525000
     31 S31        -6.7640    0.2060    0.3290 ss        1 054      0.559000
     32 F32        -1.3410    2.3940   -4.1050 f         1 054     -0.181000
     33 F33        -0.0870    1.3840   -5.5720 f         1 054     -0.181000
     34 F34        -1.8630    0.3880   -4.7890 f         1 054     -0.181000
     35 N35         3.1620   -4.3800    3.0830 n2        1 054     -0.323000
     36 H2          1.8420    0.2340   -4.1500 ha        1 054      0.129000
     37 H3          2.9120   -0.0740   -2.0630 DU        1 054      0.163000
     38 H4         -1.7050    0.9550   -2.2320 ha        1 054      0.153000
     39 H13         3.5560    0.7590    0.7170 ha        1 054      0.126500
     40 H13A        2.7270    0.5510    2.0770 ha        1 054      0.126500
     41 H16         4.8510   -0.6460    0.0110 ha        1 054      0.131000
     42 H17         6.1810   -2.5580    0.3950 ha        1 054      0.141000
     43 H20         1.9970   -2.1310    2.4720 ha        1 054      0.205000
     44 HN23       -4.1910    3.5810   -0.1450 hn        1 054      0.252000
     45 H27        -5.7910   -1.5240    0.8850 DU        1 054      0.163000
     46 H30        -7.0470    2.2720   -0.0380 DU        1 054      0.163000
     47 HN35        3.3960   -5.2470    2.9060 hn        1 054      0.194000
     48 HN3A        2.6250   -4.1880    3.7960 hn        1 054      0.194000
@<TRIPOS>BOND
     1    1    4 1   
     2    1   15 1   
     3    2    3 1   
     4    2   36 1   
     5    3    6 1   
     6    4   38 1   
     7    5    6 1   
     8    7    8 1   
     9    8    9 1   
    10   10   11 1   
    11   10   12 1   
    12   13   14 1   
    13   13   39 1   
    14   13   40 1   
    15   14   16 1   
    16   14   20 1   
    17   15   32 1   
    18   15   33 1   
    19   15   34 1   
    20   16   17 1   
    21   16   41 1   
    22   17   42 1   
    23   18   19 1   
    24   19   20 1   
    25   20   43 1   
    26   21   22 1   
    27   21   24 1   
    28   22   23 1   
    29   22   26 1   
    30   23   29 1   
    31   23   44 1   
    32   24   25 1   
    33   24   28 1   
    34   27   28 1   
    35   27   31 1   
    36   28   29 1   
    37   29   30 1   
    38   30   31 1   
    39   35   47 1   
    40   35   48 1   
@<TRIPOS>SUBSTRUCTURE
     1 054         1 TEMP              0 ****  ****    0 ROOT
