@<TRIPOS>MOLECULE
054
   48    52     1     0     0
SMALL
bcc


@<TRIPOS>ATOM
      1 C1          0.1510    0.2010   -0.1900 ca        1 054     -0.213300
      2 C2          1.5540    0.1960   -0.0620 ca        1 054     -0.096000
      3 C3          2.1590    0.1310    1.1800 ca        1 054     -0.143000
      4 C4         -0.6840    0.1430    0.9210 ca        1 054     -0.018000
      5 C5         -0.1040    0.0720    2.1850 ca        1 054     -0.063800
      6 C6          1.3390    0.0670    2.3200 ca        1 054     -0.032200
      7 N7          1.6580   -0.0290    3.6780 na        1 054     -0.036400
      8 C8          0.4710   -0.0700    4.4230 cc        1 054     -0.061300
      9 C9         -0.6280   -0.0130    3.5350 cd        1 054     -0.038600
     10 C10         0.3830   -0.2090    5.9390 c         1 054      0.940800
     11 O11        -0.7290   -0.5820    6.4040 o         1 054     -0.812300
     12 O12         1.3980    0.0580    6.6370 o         1 054     -0.812300
     13 C13         2.9950   -0.0510    4.2050 c3        1 054      0.073600
     14 C14         3.6510    1.3000    4.3150 ca        1 054     -0.039300
     15 C15        -0.4400    0.2600   -1.5860 c3        1 054      0.692200
     16 C16         4.5890    1.7310    3.3690 ca        1 054     -0.285300
     17 C17         5.1670    2.9960    3.5450 ca        1 054      0.412200
     18 N18         4.8870    3.8310    4.5590 nb        1 054     -0.732000
     19 C19         3.9860    3.3960    5.4980 ca        1 054      0.605200
     20 C20         3.3420    2.1240    5.3920 ca        1 054     -0.256300
     21 N21        -1.9890   -0.0620    3.8970 n         1 054     -0.358600
     22 C22        -2.3780   -1.2400    4.6210 c         1 054      0.848500
     23 N23        -3.4670   -1.2000    5.5420 n         1 054     -0.407100
     24 C24        -2.6920    1.1610    4.0320 c         1 054      0.747100
     25 O25        -2.3780    2.1640    3.3680 o         1 054     -0.608500
     26 O26        -1.8790   -2.3500    4.3670 o         1 054     -0.607500
     27 C27        -4.6560    2.2210    5.2740 cc        1 054     -0.091100
     28 C28        -3.8250    1.1670    4.9660 cd        1 054     -0.204600
     29 C29        -4.1220   -0.0040    5.7730 cd        1 054      0.086600
     30 C30        -5.1560    0.2570    6.6600 cc        1 054     -0.255100
     31 S31        -5.7230    1.8230    6.4880 ss        1 054      0.020200
     32 F32         0.1670    1.1600   -2.4340 f         1 054     -0.252300
     33 F33        -0.3730   -0.9230   -2.2900 f         1 054     -0.252300
     34 F34        -1.7700    0.5980   -1.6560 f         1 054     -0.252300
     35 N35         3.7390    4.1890    6.6340 nh        1 054     -0.921500
     36 H2          2.1690    0.2520   -0.9730 ha        1 054      0.129000
     37 H3          3.2530    0.1350    1.2760 ha        1 054      0.130000
     38 H4         -1.7790    0.1590    0.8120 ha        1 054      0.153000
     39 H13         3.6220   -0.7100    3.5370 h1        1 054      0.088200
     40 H13A        2.9430   -0.5050    5.2440 h1        1 054      0.088200
     41 H16         4.8610    1.1080    2.5090 ha        1 054      0.132000
     42 H17         5.9030    3.3830    2.8170 h4        1 054      0.005100
     43 H20         2.6100    1.7790    6.1490 ha        1 054      0.207000
     44 HN23       -3.3600   -1.8230    6.3160 hn        1 054      0.338500
     45 H27        -4.6090    3.2000    4.7950 h4        1 054      0.185000
     46 H30        -5.5630   -0.4400    7.3880 h4        1 054      0.172000
     47 HN35        2.8470    4.0110    7.0430 hn        1 054      0.396300
     48 HN3A        3.9420    5.1590    6.5290 hn        1 054      0.396300
@<TRIPOS>BOND
     1    1    2 ar  
     2    1    4 ar  
     3    1   15 1   
     4    2    3 ar  
     5    2   36 1   
     6    3    6 ar  
     7    3   37 1   
     8    4    5 ar  
     9    4   38 1   
    10    5    6 ar  
    11    5    9 1   
    12    6    7 1   
    13    7    8 1   
    14    7   13 1   
    15    8    9 2   
    16    8   10 1   
    17    9   21 1   
    18   10   11 1   
    19   10   12 1   
    20   13   14 1   
    21   13   39 1   
    22   13   40 1   
    23   14   16 ar  
    24   14   20 ar  
    25   15   32 1   
    26   15   33 1   
    27   15   34 1   
    28   16   17 ar  
    29   16   41 1   
    30   17   18 ar  
    31   17   42 1   
    32   18   19 ar  
    33   19   20 ar  
    34   19   35 1   
    35   20   43 1   
    36   21   22 1   
    37   21   24 1   
    38   22   23 1   
    39   22   26 2   
    40   23   29 1   
    41   23   44 1   
    42   24   25 2   
    43   24   28 1   
    44   27   28 2   
    45   27   31 1   
    46   27   45 1   
    47   28   29 1   
    48   29   30 2   
    49   30   31 1   
    50   30   46 1   
    51   35   47 1   
    52   35   48 1   
@<TRIPOS>SUBSTRUCTURE
     1 054         1 TEMP              0 ****  ****    0 ROOT
