@<TRIPOS>MOLECULE
055
   56    59     1     0     0
SMALL
bcc


@<TRIPOS>ATOM
      1 CL1         1.5050    0.6750    0.1470 cl        1 055     -0.096400
      2 C30         2.4500    0.0340   -1.1170 ca        1 055      0.029400
      3 C29         3.8270   -0.0750   -0.9090 ca        1 055     -0.140000
      4 C28         4.6360   -0.6330   -1.8920 ca        1 055     -0.142000
      5 C27         4.0720   -1.0810   -3.0830 ca        1 055     -0.137000
      6 C26         2.7010   -0.9660   -3.3220 ca        1 055     -0.067300
      7 C31         2.1360   -1.4440   -4.6040 c3        1 055     -0.073800
      8 C25         1.8590   -0.3910   -2.3300 ca        1 055      0.079600
      9 N24         0.4630   -0.3330   -2.5170 n         1 055     -0.459100
     10 C23        -0.1810    0.9140   -2.6740 c         1 055      0.792100
     11 O33         0.4390    2.0010   -2.5890 o         1 055     -0.648100
     12 N22        -1.5790    0.8680   -2.8740 n         1 055     -0.470100
     13 C5         -2.3860    1.9840   -3.1030 ca        1 055      0.131600
     14 C6         -2.0390    3.2760   -2.7090 ca        1 055     -0.180000
     15 C1         -2.9090    4.3700   -2.9250 ca        1 055      0.003000
     16 C7         -2.5430    5.6900   -2.5290 ca        1 055     -0.122000
     17 C8         -3.4000    6.7420   -2.7320 ca        1 055     -0.132000
     18 C9         -4.6630    6.5330   -3.3390 ca        1 055     -0.156000
     19 C2         -4.1730    4.1660   -3.5330 ca        1 055     -0.080000
     20 C10        -5.0410    5.2730   -3.7310 ca        1 055     -0.101000
     21 C3         -4.5270    2.8520   -3.9290 ca        1 055     -0.060000
     22 C4         -3.6700    1.7970   -3.7400 ca        1 055     -0.177600
     23 C11        -4.0960    0.4290   -4.1810 c         1 055      0.646700
     24 O14        -5.0540   -0.1510   -3.6350 o         1 055     -0.591100
     25 N12        -3.4170   -0.1110   -5.2700 n         1 055     -0.508900
     26 C13        -3.1140   -1.5400   -5.2630 c3        1 055     -0.003000
     27 C16        -1.6910   -1.7240   -4.6450 c         1 055      0.876600
     28 O21        -1.6060   -2.2830   -3.5150 o         1 055     -0.833800
     29 O20        -0.6970   -1.1810   -5.2080 o         1 055     -0.833800
     30 C46        -3.2160   -2.1360   -6.6390 ca        1 055     -0.048300
     31 C47        -2.2470   -1.8650   -7.6120 ca        1 055     -0.112000
     32 C48        -2.3560   -2.4280   -8.8830 ca        1 055     -0.148500
     33 C49        -3.4290   -3.2630   -9.1920 ca        1 055     -0.146000
     34 C50        -4.3950   -3.5370   -8.2250 ca        1 055     -0.148500
     35 C51        -4.2920   -2.9740   -6.9540 ca        1 055     -0.112000
     36 H29         4.2670    0.2750    0.0360 ha        1 055      0.132000
     37 H28         5.7190   -0.7210   -1.7260 ha        1 055      0.120000
     38 H27         4.7160   -1.5270   -3.8570 ha        1 055      0.125000
     39 H31         2.9340   -1.8510   -5.2710 hc        1 055      0.065367
     40 H31A        1.3680   -2.2450   -4.4340 hc        1 055      0.065367
     41 H31B        1.6070   -0.6130   -5.1390 hc        1 055      0.065367
     42 HN24        0.0640   -1.1260   -3.0090 hn        1 055      0.382500
     43 HN22       -2.0020   -0.0370   -2.9700 hn        1 055      0.357500
     44 H6         -1.0670    3.4740   -2.2260 ha        1 055      0.178000
     45 H7         -1.5590    5.8410   -2.0610 ha        1 055      0.135000
     46 H8         -3.1180    7.7600   -2.4280 ha        1 055      0.119000
     47 H9         -5.3320    7.3930   -3.4890 ha        1 055      0.119000
     48 H10        -6.0190    5.0970   -4.2030 ha        1 055      0.124000
     49 H3         -5.5100    2.6820   -4.3970 ha        1 055      0.140000
     50 HN12       -2.6470    0.4320   -5.6100 hn        1 055      0.301500
     51 H13        -3.8540   -2.0580   -4.5810 h1        1 055      0.090700
     52 H47        -1.3860   -1.2280   -7.3430 ha        1 055      0.152500
     53 H48        -1.5890   -2.2150   -9.6410 ha        1 055      0.115000
     54 H49        -3.5130   -3.7050  -10.1940 ha        1 055      0.111000
     55 H50        -5.2400   -4.1970   -8.4640 ha        1 055      0.115000
     56 H51        -5.0580   -3.1890   -6.1940 ha        1 055      0.152500
@<TRIPOS>BOND
     1    1    2 1   
     2    2    3 ar  
     3    2    8 ar  
     4    3    4 ar  
     5    3   36 1   
     6    4    5 ar  
     7    4   37 1   
     8    5    6 ar  
     9    5   38 1   
    10    6    7 1   
    11    6    8 ar  
    12    7   39 1   
    13    7   40 1   
    14    7   41 1   
    15    8    9 1   
    16    9   10 1   
    17    9   42 1   
    18   10   11 2   
    19   10   12 1   
    20   12   13 1   
    21   12   43 1   
    22   13   14 ar  
    23   13   22 ar  
    24   14   15 ar  
    25   14   44 1   
    26   15   16 ar  
    27   15   19 ar  
    28   16   17 ar  
    29   16   45 1   
    30   17   18 ar  
    31   17   46 1   
    32   18   20 ar  
    33   18   47 1   
    34   19   20 ar  
    35   19   21 ar  
    36   20   48 1   
    37   21   22 ar  
    38   21   49 1   
    39   22   23 1   
    40   23   24 2   
    41   23   25 1   
    42   25   26 1   
    43   25   50 1   
    44   26   27 1   
    45   26   30 1   
    46   26   51 1   
    47   27   28 1   
    48   27   29 1   
    49   30   31 ar  
    50   30   35 ar  
    51   31   32 ar  
    52   31   52 1   
    53   32   33 ar  
    54   32   53 1   
    55   33   34 ar  
    56   33   54 1   
    57   34   35 ar  
    58   34   55 1   
    59   35   56 1   
@<TRIPOS>SUBSTRUCTURE
     1 055         1 TEMP              0 ****  ****    0 ROOT
