@<TRIPOS>MOLECULE
055
   56    52     1     0     0
SMALL
bcc


@<TRIPOS>ATOM
      1 CL1         0.9780   -1.3820    3.6820 cl        1 055     -0.013000
      2 C30         2.6820   -1.3830    4.1520 c2        1 055     -0.091000
      3 C29         3.0590   -1.8180    5.4270 c2        1 055     -0.124000
      4 C28         4.4160   -1.8960    5.7650 c1        1 055     -0.133000
      5 C27         5.3890   -1.5390    4.8290 c1        1 055     -0.128000
      6 C26         5.0130   -1.1060    3.5610 c1        1 055     -0.033000
      7 C31         6.0770   -0.7080    2.5490 c2        1 055     -0.189000
      8 C25         3.6630   -1.0270    3.2190 c2        1 055      0.074000
      9 N24         3.2860   -0.6450    1.8900 n         1 055     -0.324000
     10 C23         2.1400    0.1560    1.6870 c2        1 055      0.398000
     11 O33         1.4530    0.5310    2.6730 o         1 055     -0.389000
     12 N22         1.7220    0.4970    0.3460 n         1 055     -0.299000
     13 C5          0.5120    1.2680    0.1430 c2        1 055      0.114000
     14 C6          0.6150    2.5020    0.7620 c2        1 055     -0.167000
     15 C1         -0.3430    3.5050    0.5010 c1        1 055     -0.005000
     16 C7         -0.2470    4.7550    1.1480 c2        1 055     -0.124000
     17 C8         -1.1950    5.7320    0.9090 c1        1 055     -0.128000
     18 C9         -2.2510    5.4820    0.0240 c1        1 055     -0.148000
     19 C2         -1.3890    3.2540   -0.3770 c1        1 055     -0.066000
     20 C10        -2.3460    4.2410   -0.6190 c2        1 055     -0.100000
     21 C3         -1.4920    2.0010   -1.0060 c1        1 055     -0.071000
     22 C4         -0.5430    1.0110   -0.7450 c1        1 055     -0.129000
     23 C11        -0.6300   -0.3420   -1.4560 c2        1 055      0.326000
     24 O14         0.1840   -1.2340   -1.1860 o         1 055     -0.441000
     25 N12        -1.7080   -0.6070   -2.3670 n         1 055     -0.310000
     26 C13        -1.7580   -1.8490   -3.0650 c3        1 055     -0.043000
     27 C16        -1.0380   -1.7180   -4.3780 c2        1 055      0.339000
     28 O21        -1.1670   -0.7100   -5.0470 o         1 055     -0.552500
     29 O20        -0.2780   -2.6270   -4.7640 o         1 055     -0.552500
     30 C46        -3.2150   -2.2300   -3.3180 c2        1 055     -0.054000
     31 C47        -3.8010   -3.2430   -2.5810 c2        1 055     -0.124000
     32 C48        -5.1050   -3.6500   -2.8640 c1        1 055     -0.154000
     33 C49        -5.8160   -3.0360   -3.8880 c1        1 055     -0.150000
     34 C50        -5.2250   -2.0140   -4.6300 c1        1 055     -0.150000
     35 C51        -3.9270   -1.6130   -4.3450 c1        1 055     -0.102000
     36 H29         2.3500   -2.1030    6.0970 ha        1 055      0.142000
     37 H28         4.6680   -2.1830    6.6080 ha        1 055      0.130000
     38 H27         6.3690   -1.5940    5.0720 ha        1 055      0.132000
     39 H31         5.9690    0.2210    2.3160 ha        1 055      0.096000
     40 H31A        6.9200   -0.8410    2.9190 ha        1 055      0.096000
     41 H31B        5.9870   -1.2420    1.7690 ha        1 055      0.096000
     42 HN24        3.7480   -0.9820    1.1670 hn        1 055      0.237000
     43 HN22        2.2020    0.1720   -0.3940 hn        1 055      0.260000
     44 H6          1.4110    2.7010    1.3770 ha        1 055      0.171000
     45 H7          0.4610    4.9240    1.7420 ha        1 055      0.132000
     46 H8         -1.1280    6.6480    1.3910 ha        1 055      0.122000
     47 H9         -2.8990    6.1510   -0.1390 ha        1 055      0.124000
     48 H10        -3.0900    4.0640   -1.2440 ha        1 055      0.134000
     49 H3         -2.1630    1.8630   -1.7230 ha        1 055      0.151000
     50 HN12       -2.3990    0.0360   -2.4880 hn        1 055      0.253000
     51 H13        -1.3160   -2.5630   -2.5110 h1        1 055      0.113000
     52 H47        -3.3130   -3.6630   -1.8790 ha        1 055      0.147000
     53 H48        -5.5060   -4.3460   -2.3570 ha        1 055      0.111000
     54 H49        -6.7680   -3.3310   -4.0960 ha        1 055      0.110500
     55 H50        -5.7140   -1.6050   -5.3890 ha        1 055      0.110500
     56 H51        -3.5060   -0.8870   -4.8710 ha        1 055      0.174000
@<TRIPOS>BOND
     1    1    2 1   
     2    2    3 1   
     3    2    8 1   
     4    3    4 1   
     5    3   36 1   
     6    4   37 1   
     7    5    6 1   
     8    5   38 1   
     9    6    8 1   
    10    7   39 1   
    11    7   40 1   
    12    7   41 1   
    13    8    9 1   
    14    9   10 1   
    15    9   42 1   
    16   10   11 1   
    17   10   12 1   
    18   12   13 1   
    19   12   43 1   
    20   13   14 1   
    21   13   22 1   
    22   14   15 1   
    23   14   44 1   
    24   15   16 1   
    25   16   17 1   
    26   16   45 1   
    27   17   46 1   
    28   18   20 1   
    29   18   47 1   
    30   19   20 1   
    31   19   21 1   
    32   20   48 1   
    33   21   49 1   
    34   22   23 1   
    35   23   24 1   
    36   23   25 1   
    37   25   26 1   
    38   25   50 1   
    39   26   27 1   
    40   26   30 1   
    41   26   51 1   
    42   27   28 1   
    43   27   29 1   
    44   30   31 1   
    45   30   35 1   
    46   31   32 1   
    47   31   52 1   
    48   32   53 1   
    49   33   34 1   
    50   33   54 1   
    51   34   55 1   
    52   35   56 1   
@<TRIPOS>SUBSTRUCTURE
     1 055         1 TEMP              0 ****  ****    0 ROOT
