@<TRIPOS>MOLECULE
055
   57    60     1     0     0
SMALL
bcc


@<TRIPOS>ATOM
      1 Cl1         1.2400    1.1320    0.0130 cl        1 055     -0.094400
      2 C30         2.2470    0.2490   -1.0390 ca        1 055      0.037400
      3 C29         3.6010    0.1400   -0.7140 ca        1 055     -0.132000
      4 C28         4.4530   -0.6000   -1.5290 ca        1 055     -0.123000
      5 C27         3.9550   -1.2300   -2.6660 ca        1 055     -0.130000
      6 C26         2.6080   -1.1230   -3.0190 ca        1 055     -0.065300
      7 C31         2.1110   -1.8030   -4.2370 c3        1 055     -0.071800
      8 C25         1.7280   -0.3680   -2.2010 ca        1 055      0.047600
      9 N24         0.3430   -0.3020   -2.4880 ns        1 055     -0.442100
     10 C23        -0.2130    0.9080   -2.9430 c         1 055      0.782100
     11 O33         0.4410    1.9670   -3.0620 o         1 055     -0.618100
     12 N22        -1.6060    0.8890   -3.2550 ns        1 055     -0.499100
     13 C5         -2.3570    2.0600   -3.4010 ca        1 055      0.118600
     14 C6         -1.9880    3.2790   -2.8280 ca        1 055     -0.141000
     15 C1         -2.7730    4.4410   -2.9850 ca        1 055      0.021000
     16 C7         -2.3770    5.6850   -2.4100 ca        1 055     -0.125000
     17 C8         -3.1660    6.7970   -2.5530 ca        1 055     -0.101000
     18 C9         -4.3880    6.7290   -3.2730 ca        1 055     -0.129000
     19 C2         -3.9930    4.3780   -3.7100 ca        1 055     -0.079000
     20 C10        -4.7940    5.5500   -3.8390 ca        1 055     -0.104000
     21 C3         -4.3750    3.1480   -4.2830 ca        1 055     -0.026000
     22 C4         -3.5720    2.0220   -4.1710 ca        1 055     -0.227600
     23 C11        -4.0750    0.8160   -4.8460 c         1 055      0.574700
     24 O14        -5.2300    0.4000   -4.8090 o         1 055     -0.460100
     25 N12        -3.1350    0.0750   -5.7480 ny        1 055     -0.658800
     26 C13        -3.0730   -1.4090   -5.4380 c3        1 055      0.035800
     27 C16        -1.7050   -1.6660   -4.6940 c         1 055      0.911600
     28 O21        -1.7800   -2.1920   -3.5610 o         1 055     -0.782800
     29 O20        -0.6700   -1.2030   -5.2420 o         1 055     -0.782800
     30 C46        -3.2220   -2.2140   -6.6860 ca        1 055     -0.140300
     31 C47        -2.1380   -2.4030   -7.5510 ca        1 055     -0.099500
     32 C48        -2.2930   -3.1750   -8.7020 ca        1 055     -0.139500
     33 C49        -3.5240   -3.7640   -8.9910 ca        1 055     -0.105000
     34 C50        -4.6040   -3.5830   -8.1260 ca        1 055     -0.139500
     35 C51        -4.4570   -2.8090   -6.9770 ca        1 055     -0.099500
     36 H29         3.9900    0.6360    0.1880 ha        1 055      0.144000
     37 H28         5.5180   -0.6860   -1.2710 ha        1 055      0.134000
     38 H27         4.6330   -1.8180   -3.3040 ha        1 055      0.135000
     39 H31         2.9400   -2.3260   -4.7740 hc        1 055      0.061700
     40 H31A        1.3240   -2.5590   -3.9810 hc        1 055      0.061700
     41 H31B        1.6410   -1.0650   -4.9390 hc        1 055      0.061700
     42 HN24       -0.0490   -1.1560   -2.8600 hn        1 055      0.366500
     43 HN22       -2.1150    0.0530   -3.0410 hn        1 055      0.341500
     44 H6         -1.0520    3.3570   -2.2450 ha        1 055      0.189000
     45 H7         -1.4270    5.7270   -1.8560 ha        1 055      0.151000
     46 H8         -2.8630    7.7590   -2.1110 ha        1 055      0.141000
     47 H9         -5.0000    7.6390   -3.3670 ha        1 055      0.140000
     48 H10        -5.7390    5.4840   -4.3990 ha        1 055      0.136000
     49 H3         -5.3290    3.0890   -4.8330 ha        1 055      0.147000
     50 HN12       -3.4530    0.2000   -6.7140 hn        1 055      0.465300
     51 H13        -3.9130   -1.6510   -4.7220 hx        1 055      0.110700
     52 H47        -1.1560   -1.9620   -7.2970 ha        1 055      0.159500
     53 H48        -1.4370   -3.3280   -9.3760 ha        1 055      0.139500
     54 H49        -3.6420   -4.3780   -9.8960 ha        1 055      0.137000
     55 H50        -5.5720   -4.0560   -8.3480 ha        1 055      0.139500
     56 H51        -5.3080   -2.6780   -6.2910 ha        1 055      0.159500
     57 H122       -2.1710    0.4470   -5.6740 hn        1 055      0.465300
@<TRIPOS>BOND
     1    1    2 1   
     2    2    3 ar  
     3    2    8 ar  
     4    3    4 ar  
     5    3   36 1   
     6    4    5 ar  
     7    4   37 1   
     8    5    6 ar  
     9    5   38 1   
    10    6    7 1   
    11    6    8 ar  
    12    7   39 1   
    13    7   40 1   
    14    7   41 1   
    15    8    9 1   
    16    9   10 1   
    17    9   42 1   
    18   10   11 2   
    19   10   12 1   
    20   12   13 1   
    21   12   43 1   
    22   13   14 ar  
    23   13   22 ar  
    24   14   15 ar  
    25   14   44 1   
    26   15   16 ar  
    27   15   19 ar  
    28   16   17 ar  
    29   16   45 1   
    30   17   18 ar  
    31   17   46 1   
    32   18   20 ar  
    33   18   47 1   
    34   19   20 ar  
    35   19   21 ar  
    36   20   48 1   
    37   21   22 ar  
    38   21   49 1   
    39   22   23 1   
    40   23   24 2   
    41   23   25 1   
    42   25   26 1   
    43   25   50 1   
    44   25   57 1   
    45   26   27 1   
    46   26   30 1   
    47   26   51 1   
    48   27   28 1   
    49   27   29 1   
    50   30   31 ar  
    51   30   35 ar  
    52   31   32 ar  
    53   31   52 1   
    54   32   33 ar  
    55   32   53 1   
    56   33   34 ar  
    57   33   54 1   
    58   34   35 ar  
    59   34   55 1   
    60   35   56 1   
@<TRIPOS>SUBSTRUCTURE
     1 055         1 TEMP              0 ****  ****    0 ROOT
