@<TRIPOS>MOLECULE
055
   57    60     1     0     0
SMALL
bcc


@<TRIPOS>ATOM
      1 CL1         1.2140    1.1230    0.0300 cl        1 055     -0.094400
      2 C30         2.2270    0.2400   -1.0160 ca        1 055      0.037400
      3 C29         3.5790    0.1300   -0.6830 ca        1 055     -0.132000
      4 C28         4.4340   -0.6100   -1.4930 ca        1 055     -0.123000
      5 C27         3.9430   -1.2390   -2.6340 ca        1 055     -0.130000
      6 C26         2.5980   -1.1300   -2.9950 ca        1 055     -0.065300
      7 C31         2.1080   -1.8080   -4.2180 c3        1 055     -0.071800
      8 C25         1.7140   -0.3750   -2.1820 ca        1 055      0.047600
      9 N24         0.3310   -0.3070   -2.4780 n         1 055     -0.442100
     10 C23        -0.2200    0.9040   -2.9350 c         1 055      0.782100
     11 O33         0.4360    1.9630   -3.0480 o         1 055     -0.618100
     12 N22        -1.6120    0.8870   -3.2560 n         1 055     -0.499100
     13 C5         -2.3610    2.0600   -3.4040 ca        1 055      0.118600
     14 C6         -1.9940    3.2770   -2.8280 ca        1 055     -0.141000
     15 C1         -2.7770    4.4400   -2.9880 ca        1 055      0.021000
     16 C7         -2.3840    5.6830   -2.4090 ca        1 055     -0.125000
     17 C8         -3.1700    6.7960   -2.5540 ca        1 055     -0.101000
     18 C9         -4.3880    6.7310   -3.2810 ca        1 055     -0.129000
     19 C2         -3.9920    4.3790   -3.7190 ca        1 055     -0.079000
     20 C10        -4.7920    5.5520   -3.8510 ca        1 055     -0.104000
     21 C3         -4.3720    3.1510   -4.2960 ca        1 055     -0.026000
     22 C4         -3.5710    2.0230   -4.1810 ca        1 055     -0.227600
     23 C11        -4.0710    0.8190   -4.8610 c         1 055      0.574700
     24 O14        -5.2270    0.4040   -4.8310 o         1 055     -0.460100
     25 N12        -3.1260    0.0800   -5.7600 n4        1 055     -0.658800
     26 C13        -3.0670   -1.4060   -5.4510 c3        1 055      0.035800
     27 C16        -1.7040   -1.6650   -4.7000 c         1 055      0.911600
     28 O21        -1.7860   -2.1930   -3.5680 o         1 055     -0.782800
     29 O20        -0.6650   -1.2010   -5.2410 o         1 055     -0.782800
     30 C46        -3.2090   -2.2080   -6.7020 ca        1 055     -0.140300
     31 C47        -2.1200   -2.3950   -7.5620 ca        1 055     -0.099500
     32 C48        -2.2690   -3.1660   -8.7150 ca        1 055     -0.139500
     33 C49        -3.4980   -3.7540   -9.0110 ca        1 055     -0.105000
     34 C50        -4.5830   -3.5740   -8.1520 ca        1 055     -0.139500
     35 C51        -4.4420   -2.8030   -7.0010 ca        1 055     -0.099500
     36 H29         3.9620    0.6240    0.2220 ha        1 055      0.144000
     37 H28         5.4980   -0.6990   -1.2280 ha        1 055      0.134000
     38 H27         4.6240   -1.8270   -3.2680 ha        1 055      0.135000
     39 H31         1.6430   -1.0690   -4.9210 hc        1 055      0.061700
     40 H31A        2.9400   -2.3300   -4.7490 hc        1 055      0.061700
     41 H31B        1.3200   -2.5640   -3.9670 hc        1 055      0.061700
     42 HN24       -0.0590   -1.1600   -2.8540 hn        1 055      0.366500
     43 HN22       -2.1230    0.0520   -3.0460 hn        1 055      0.341500
     44 H6         -1.0610    3.3530   -2.2380 ha        1 055      0.189000
     45 H7         -1.4360    5.7230   -1.8490 ha        1 055      0.151000
     46 H8         -2.8690    7.7570   -2.1090 ha        1 055      0.141000
     47 H9         -4.9990    7.6410   -3.3780 ha        1 055      0.140000
     48 H10        -5.7340    5.4870   -4.4170 ha        1 055      0.136000
     49 H3         -5.3240    3.0930   -4.8520 ha        1 055      0.147000
     50 HN12       -3.4380    0.2060   -6.7270 hn        1 055      0.465300
     51 H13        -3.9110   -1.6480   -4.7410 hx        1 055      0.110700
     52 H47        -1.1400   -1.9550   -7.3010 ha        1 055      0.159500
     53 H48        -1.4090   -3.3160   -9.3840 ha        1 055      0.139500
     54 H49        -3.6110   -4.3660   -9.9190 ha        1 055      0.137000
     55 H50        -5.5500   -4.0470   -8.3800 ha        1 055      0.139500
     56 H51        -5.2970   -2.6720   -6.3200 ha        1 055      0.159500
     57 H122       -2.1620    0.4510   -5.6790 hn        1 055      0.465300
@<TRIPOS>BOND
     1    1    2 1   
     2    2    3 ar  
     3    2    8 ar  
     4    3    4 ar  
     5    3   36 1   
     6    4    5 ar  
     7    4   37 1   
     8    5    6 ar  
     9    5   38 1   
    10    6    7 1   
    11    6    8 ar  
    12    7   39 1   
    13    7   40 1   
    14    7   41 1   
    15    8    9 1   
    16    9   10 1   
    17    9   42 1   
    18   10   11 2   
    19   10   12 1   
    20   12   13 1   
    21   12   43 1   
    22   13   14 ar  
    23   13   22 ar  
    24   14   15 ar  
    25   14   44 1   
    26   15   16 ar  
    27   15   19 ar  
    28   16   17 ar  
    29   16   45 1   
    30   17   18 ar  
    31   17   46 1   
    32   18   20 ar  
    33   18   47 1   
    34   19   20 ar  
    35   19   21 ar  
    36   20   48 1   
    37   21   22 ar  
    38   21   49 1   
    39   22   23 1   
    40   23   24 2   
    41   23   25 1   
    42   25   26 1   
    43   25   50 1   
    44   25   57 1   
    45   26   27 1   
    46   26   30 1   
    47   26   51 1   
    48   27   28 1   
    49   27   29 1   
    50   30   31 ar  
    51   30   35 ar  
    52   31   32 ar  
    53   31   52 1   
    54   32   33 ar  
    55   32   53 1   
    56   33   34 ar  
    57   33   54 1   
    58   34   35 ar  
    59   34   55 1   
    60   35   56 1   
@<TRIPOS>SUBSTRUCTURE
     1 055         1 TEMP              0 ****  ****    0 ROOT
