@<TRIPOS>MOLECULE
055
   56    59     1     0     0
SMALL
bcc


@<TRIPOS>ATOM
      1 CL1        -5.0450    0.3290    1.0140 cl        1 055     -0.096400
      2 C30        -4.6410    1.4780   -0.1770 ca        1 055      0.029400
      3 C29        -5.6890    2.1180   -0.8440 ca        1 055     -0.140000
      4 C28        -5.4140    3.0950   -1.7940 ca        1 055     -0.142000
      5 C27        -4.0940    3.4330   -2.0790 ca        1 055     -0.137000
      6 C26        -3.0300    2.7950   -1.4390 ca        1 055     -0.067300
      7 C31        -1.6380    3.1730   -1.7740 c3        1 055     -0.073800
      8 C25        -3.2920    1.7870   -0.4700 ca        1 055      0.079600
      9 N24        -2.2380    1.1820    0.2420 n         1 055     -0.459100
     10 C23        -1.9380   -0.1830    0.0430 c         1 055      0.792100
     11 O33        -2.6240   -0.9150   -0.7100 o         1 055     -0.648100
     12 N22        -0.8520   -0.6950    0.7890 n         1 055     -0.470100
     13 C5         -0.3650   -1.9990    0.6940 ca        1 055      0.131600
     14 C6         -1.1310   -3.0720    0.2380 ca        1 055     -0.180000
     15 C1         -0.6090   -4.3860    0.1990 ca        1 055      0.003000
     16 C7         -1.3930   -5.4760   -0.2780 ca        1 055     -0.122000
     17 C8         -0.8800   -6.7480   -0.3000 ca        1 055     -0.132000
     18 C9          0.4400   -6.9990    0.1510 ca        1 055     -0.156000
     19 C2          0.7120   -4.6410    0.6460 ca        1 055     -0.080000
     20 C10         1.2180   -5.9680    0.6130 ca        1 055     -0.101000
     21 C3          1.4880   -3.5510    1.1140 ca        1 055     -0.060000
     22 C4          0.9860   -2.2740    1.1280 ca        1 055     -0.177600
     23 C11         1.8530   -1.1590    1.6290 c         1 055      0.646700
     24 O14         2.2120   -1.1130    2.8220 o         1 055     -0.591100
     25 N12         2.2880   -0.2370    0.6820 n         1 055     -0.508900
     26 C13         2.3580    1.1720    1.0610 c3        1 055     -0.003000
     27 C16         1.0000    1.8410    0.6740 c         1 055      0.876600
     28 O21         0.2400    2.2180    1.6100 o         1 055     -0.833800
     29 O20         0.6360    1.8450   -0.5380 o         1 055     -0.833800
     30 C46         3.5310    1.8610    0.4230 ca        1 055     -0.048300
     31 C47         3.5320    2.1590   -0.9450 ca        1 055     -0.112000
     32 C48         4.6270    2.8000   -1.5210 ca        1 055     -0.148500
     33 C49         5.7290    3.1490   -0.7390 ca        1 055     -0.146000
     34 C50         5.7310    2.8570    0.6240 ca        1 055     -0.148500
     35 C51         4.6380    2.2120    1.2040 ca        1 055     -0.112000
     36 H29        -6.7300    1.8510   -0.6110 ha        1 055      0.132000
     37 H28        -6.2390    3.6000   -2.3160 ha        1 055      0.120000
     38 H27        -3.8810    4.2110   -2.8280 ha        1 055      0.125000
     39 H31        -1.0920    3.5490   -0.8680 hc        1 055      0.065367
     40 H31A       -1.0620    2.2820   -2.1390 hc        1 055      0.065367
     41 H31B       -1.6120    3.9650   -2.5600 hc        1 055      0.065367
     42 HN24       -1.4640    1.7990    0.4670 hn        1 055      0.382500
     43 HN22       -0.3250   -0.0430    1.3420 hn        1 055      0.357500
     44 H6         -2.1660   -2.9160   -0.1120 ha        1 055      0.178000
     45 H7         -2.4160   -5.2700   -0.6280 ha        1 055      0.135000
     46 H8         -1.4850   -7.5900   -0.6680 ha        1 055      0.119000
     47 H9          0.8260   -8.0270    0.1230 ha        1 055      0.119000
     48 H10         2.2450   -6.1480    0.9660 ha        1 055      0.124000
     49 H3          2.5140   -3.7390    1.4700 ha        1 055      0.140000
     50 HN12        1.9130   -0.3570   -0.2400 hn        1 055      0.301500
     51 H13         2.4620    1.2330    2.1860 h1        1 055      0.090700
     52 H47         2.6400    1.9050   -1.5460 ha        1 055      0.152500
     53 H48         4.6200    3.0350   -2.5940 ha        1 055      0.115000
     54 H49         6.5900    3.6550   -1.1950 ha        1 055      0.111000
     55 H50         6.5950    3.1330    1.2440 ha        1 055      0.115000
     56 H51         4.6450    1.9790    2.2790 ha        1 055      0.152500
@<TRIPOS>BOND
     1    1    2 1   
     2    2    3 ar  
     3    2    8 ar  
     4    3    4 ar  
     5    3   36 1   
     6    4    5 ar  
     7    4   37 1   
     8    5    6 ar  
     9    5   38 1   
    10    6    7 1   
    11    6    8 ar  
    12    7   39 1   
    13    7   40 1   
    14    7   41 1   
    15    8    9 1   
    16    9   10 1   
    17    9   42 1   
    18   10   11 2   
    19   10   12 1   
    20   12   13 1   
    21   12   43 1   
    22   13   14 ar  
    23   13   22 ar  
    24   14   15 ar  
    25   14   44 1   
    26   15   16 ar  
    27   15   19 ar  
    28   16   17 ar  
    29   16   45 1   
    30   17   18 ar  
    31   17   46 1   
    32   18   20 ar  
    33   18   47 1   
    34   19   20 ar  
    35   19   21 ar  
    36   20   48 1   
    37   21   22 ar  
    38   21   49 1   
    39   22   23 1   
    40   23   24 2   
    41   23   25 1   
    42   25   26 1   
    43   25   50 1   
    44   26   27 1   
    45   26   30 1   
    46   26   51 1   
    47   27   28 1   
    48   27   29 1   
    49   30   31 ar  
    50   30   35 ar  
    51   31   32 ar  
    52   31   52 1   
    53   32   33 ar  
    54   32   53 1   
    55   33   34 ar  
    56   33   54 1   
    57   34   35 ar  
    58   34   55 1   
    59   35   56 1   
@<TRIPOS>SUBSTRUCTURE
     1 055         1 TEMP              0 ****  ****    0 ROOT
