@<TRIPOS>MOLECULE
056
   31    32     1     0     0
SMALL
bcc


@<TRIPOS>ATOM
      1 O17        -0.3570    0.3500   -1.3510 o         1 056     -0.829300
      2 C16         0.8260    0.4820   -0.9280 c         1 056      0.908200
      3 O18         1.1280    0.9020    0.2250 o         1 056     -0.829300
      4 C12         1.9630    0.1060   -1.8680 ca        1 056     -0.129600
      5 C11         3.2910    0.2630   -1.4620 ca        1 056     -0.082000
      6 C10         4.3440   -0.0960   -2.3130 ca        1 056     -0.129300
      7 C15         4.0590   -0.6120   -3.5840 ca        1 056     -0.135000
      8 C14         2.7360   -0.7620   -3.9940 ca        1 056     -0.167000
      9 C13         1.6920   -0.4060   -3.1400 ca        1 056     -0.094000
     10 S8          6.4270    1.4990   -2.6270 ss        1 056     -0.303200
     11 C6         10.5950    4.3130   -2.4450 ca        1 056     -0.128000
     12 C9          5.7440    0.0410   -1.8620 c3        1 056      0.069000
     13 C1         10.0050    3.0810   -2.1430 ca        1 056      0.024400
     14 Cl1        11.0440    1.7640   -1.8360 cl        1 056     -0.099400
     15 C2          8.6100    2.9380   -2.0910 ca        1 056     -0.043300
     16 C7          7.9660    1.6470   -1.7600 c3        1 056      0.012000
     17 C3          7.8150    4.0690   -2.3380 ca        1 056     -0.102000
     18 C4          8.3860    5.3010   -2.6370 ca        1 056     -0.121000
     19 C5          9.7790    5.4180   -2.6910 ca        1 056      0.017400
     20 Cl2        10.4900    6.9200   -3.0570 cl        1 056     -0.104400
     21 H6         11.6910    4.4090   -2.4860 ha        1 056      0.153000
     22 H4          7.7440    6.1730   -2.8300 ha        1 056      0.151000
     23 H3          6.7140    3.9650   -2.2990 ha        1 056      0.181000
     24 H71C        8.6280    0.7850   -2.0280 h1        1 056      0.073700
     25 H72C        7.7840    1.5950   -0.6540 h1        1 056      0.073700
     26 H91C        5.8000    0.1410   -0.7500 h1        1 056      0.055700
     27 H92C        6.3520   -0.8470   -2.1630 h1        1 056      0.055700
     28 H15         4.8810   -0.8940   -4.2560 ha        1 056      0.110000
     29 H11         3.4820    0.6700   -0.4560 ha        1 056      0.153000
     30 H14         2.5180   -1.1630   -4.9930 ha        1 056      0.107000
     31 H13         0.6380   -0.5180   -3.4430 ha        1 056      0.152000
@<TRIPOS>BOND
     1    1    2 1   
     2    2    3 1   
     3    2    4 1   
     4    4    5 ar  
     5    4    9 ar  
     6    5    6 ar  
     7    5   29 1   
     8    6    7 ar  
     9    6   12 1   
    10    7    8 ar  
    11    7   28 1   
    12    8    9 ar  
    13    8   30 1   
    14    9   31 1   
    15   10   12 1   
    16   10   16 1   
    17   11   13 ar  
    18   11   19 ar  
    19   11   21 1   
    20   12   26 1   
    21   12   27 1   
    22   13   14 1   
    23   13   15 ar  
    24   15   16 1   
    25   15   17 ar  
    26   16   24 1   
    27   16   25 1   
    28   17   18 ar  
    29   17   23 1   
    30   18   19 ar  
    31   18   22 1   
    32   19   20 1   
@<TRIPOS>SUBSTRUCTURE
     1 056         1 TEMP              0 ****  ****    0 ROOT
