@<TRIPOS>MOLECULE
056
   31    32     1     0     0
SMALL
bcc


@<TRIPOS>ATOM
      1 O17        -6.5460   -0.1480    2.0190 o         1 056     -0.829300
      2 C16        -5.5230   -0.5910    1.4260 c         1 056      0.908200
      3 O18        -5.1410   -1.7950    1.4660 o         1 056     -0.829300
      4 C12        -4.6980    0.3890    0.6030 ca        1 056     -0.129600
      5 C11        -3.5390   -0.0420   -0.0480 ca        1 056     -0.082000
      6 C10        -2.7820    0.8480   -0.8200 ca        1 056     -0.129300
      7 C15        -3.1920    2.1830   -0.9360 ca        1 056     -0.135000
      8 C14        -4.3430    2.6160   -0.2810 ca        1 056     -0.167000
      9 C13        -5.0940    1.7240    0.4840 ca        1 056     -0.094000
     10 S8         -0.1490    0.9110   -0.6110 ss        1 056     -0.303200
     11 C6          4.8440    0.2820   -0.5930 ca        1 056     -0.128000
     12 C9         -1.5770    0.3750   -1.5320 c3        1 056      0.069000
     13 C1          3.6570    0.1750   -1.3260 ca        1 056      0.024400
     14 CL1         3.7850    0.0660   -3.0220 cl        1 056     -0.099400
     15 C2          2.4090    0.1510   -0.6850 ca        1 056     -0.043300
     16 C7          1.1420    0.0230   -1.4400 c3        1 056      0.012000
     17 C3          2.3780    0.2270    0.7170 ca        1 056     -0.102000
     18 C4          3.5500    0.3330    1.4590 ca        1 056     -0.121000
     19 C5          4.7820    0.3610    0.7980 ca        1 056      0.017400
     20 CL2         6.2230    0.4920    1.6960 cl        1 056     -0.104400
     21 H6          5.8150    0.3030   -1.1110 ha        1 056      0.153000
     22 H4          3.5020    0.3940    2.5570 ha        1 056      0.151000
     23 H3          1.3980    0.2100    1.2300 ha        1 056      0.181000
     24 H71C        0.8650   -1.0610   -1.5200 h1        1 056      0.073700
     25 H72C        1.2520    0.4150   -2.4820 h1        1 056      0.073700
     26 H91C       -1.5720   -0.7400   -1.6170 h1        1 056      0.055700
     27 H92C       -1.5260    0.8030   -2.5640 h1        1 056      0.055700
     28 H15        -2.6020    2.8860   -1.5400 ha        1 056      0.109000
     29 H11        -3.2430   -1.0990    0.0620 ha        1 056      0.153000
     30 H14        -4.6580    3.6650   -0.3720 ha        1 056      0.107000
     31 H13        -6.0080    2.0460    1.0080 ha        1 056      0.152000
@<TRIPOS>BOND
     1    1    2 1   
     2    2    3 1   
     3    2    4 1   
     4    4    5 ar  
     5    4    9 ar  
     6    5    6 ar  
     7    5   29 1   
     8    6    7 ar  
     9    6   12 1   
    10    7    8 ar  
    11    7   28 1   
    12    8    9 ar  
    13    8   30 1   
    14    9   31 1   
    15   10   12 1   
    16   10   16 1   
    17   11   13 ar  
    18   11   19 ar  
    19   11   21 1   
    20   12   26 1   
    21   12   27 1   
    22   13   14 1   
    23   13   15 ar  
    24   15   16 1   
    25   15   17 ar  
    26   16   24 1   
    27   16   25 1   
    28   17   18 ar  
    29   17   23 1   
    30   18   19 ar  
    31   18   22 1   
    32   19   20 1   
@<TRIPOS>SUBSTRUCTURE
     1 056         1 TEMP              0 ****  ****    0 ROOT
