@<TRIPOS>MOLECULE
056
   31    24     1     0     0
SMALL
bcc


@<TRIPOS>ATOM
      1 O17        -0.8640    5.1990    0.4480 o         1 056     -0.564000
      2 C16        -0.4430    4.3650    1.2930 c1        1 056      0.357000
      3 O18         0.6720    4.5430    1.8510 o         1 056     -0.564000
      4 C12        -1.2920    3.1680    1.6620 c1        1 056     -0.085000
      5 C11        -1.1920    1.9950    0.9290 c1        1 056     -0.082000
      6 C10        -1.9910    0.9080    1.2480 c1        1 056     -0.122000
      7 C15        -2.8900    0.9950    2.3000 c2        1 056     -0.135000
      8 C14        -2.9900    2.1670    3.0320 c1        1 056     -0.167000
      9 C13        -2.1910    3.2540    2.7130 c1        1 056     -0.111000
     10 S8         -0.2750   -0.8630    0.1800 ss        1 056      0.061000
     11 C6          3.4190   -1.3680   -2.3240 c1        1 056     -0.111000
     12 C9         -1.9550   -0.3340    0.3850 c2        1 056     -0.199000
     13 C1          2.0990   -1.1340   -1.9720 c1        1 056     -0.054000
     14 CL1         1.4310    0.4690   -2.1200 cl        1 056     -0.021000
     15 C2          1.2960   -2.1840   -1.5560 c1        1 056     -0.036000
     16 C7         -0.1600   -1.9370   -1.2270 c3        1 056     -0.256000
     17 C3          1.8120   -3.4680   -1.4920 c1        1 056     -0.111500
     18 C4          3.1320   -3.7030   -1.8440 c1        1 056     -0.111500
     19 C5          3.9360   -2.6530   -2.2600 c1        1 056     -0.085000
     20 CL2         5.6040   -2.9440   -2.6770 cl        1 056     -0.026000
     21 H6          3.9890   -0.6260   -2.6030 ha        1 056      0.152500
     22 H4          3.4960   -4.6070   -1.7990 ha        1 056      0.166000
     23 H3          1.2410   -4.2110   -1.2160 ha        1 056      0.166000
     24 H71C       -0.6010   -1.5190   -1.9920 h1        1 056      0.113000
     25 H72C       -0.5980   -2.7890   -1.0230 h1        1 056      0.113000
     26 H91C       -2.4710   -1.0460    0.8160 h4        1 056      0.095000
     27 H92C       -2.3430   -0.1350   -0.4900 h4        1 056      0.095000
     28 H15        -3.4310    0.2200    2.5430 ha        1 056      0.109000
     29 H11        -0.5380    1.9250    0.2080 ha        1 056      0.153000
     30 H14        -3.6230    2.2280    3.7720 ha        1 056      0.107000
     31 H13        -2.2790    4.0880    3.2130 ha        1 056      0.152500
@<TRIPOS>BOND
     1    1    2 1   
     2    2    3 1   
     3    4    9 1   
     4    5    6 1   
     5    5   29 1   
     6    6    7 1   
     7    7    8 1   
     8    7   28 1   
     9    8   30 1   
    10    9   31 1   
    11   10   12 1   
    12   10   16 1   
    13   11   19 1   
    14   11   21 1   
    15   12   26 1   
    16   12   27 1   
    17   13   14 1   
    18   13   15 1   
    19   15   16 1   
    20   16   24 1   
    21   16   25 1   
    22   17   18 1   
    23   17   23 1   
    24   18   22 1   
@<TRIPOS>SUBSTRUCTURE
     1 056         1 TEMP              0 ****  ****    0 ROOT
