@<TRIPOS>MOLECULE
056
   31    32     1     0     0
SMALL
bcc


@<TRIPOS>ATOM
      1 O17        -0.3370    0.3550   -1.2380 o         1 056     -0.829300
      2 C16         0.8540    0.4860   -0.8370 c         1 056      0.908200
      3 O18         1.1780    0.9070    0.3090 o         1 056     -0.829300
      4 C12         1.9730    0.1080   -1.7980 ca        1 056     -0.129600
      5 C11         3.3080    0.2630   -1.4170 ca        1 056     -0.082000
      6 C10         4.3450   -0.0970   -2.2870 ca        1 056     -0.129300
      7 C15         4.0350   -0.6140   -3.5530 ca        1 056     -0.135000
      8 C14         2.7040   -0.7630   -3.9370 ca        1 056     -0.167000
      9 C13         1.6770   -0.4050   -3.0640 ca        1 056     -0.094000
     10 S8          6.4220    1.4960   -2.6400 ss        1 056     -0.303200
     11 C6         10.5890    4.3160   -2.5270 ca        1 056     -0.128000
     12 C9          5.7530    0.0390   -1.8630 c3        1 056      0.069000
     13 C1         10.0070    3.0810   -2.2190 ca        1 056      0.024400
     14 CL1        11.0530    1.7650   -1.9370 cl        1 056     -0.099400
     15 C2          8.6130    2.9370   -2.1400 ca        1 056     -0.043300
     16 C7          7.9770    1.6440   -1.8010 c3        1 056      0.012000
     17 C3          7.8120    4.0670   -2.3670 ca        1 056     -0.102000
     18 C4          8.3760    5.3010   -2.6730 ca        1 056     -0.121000
     19 C5          9.7670    5.4200   -2.7530 ca        1 056      0.017400
     20 CL2        10.4690    6.9250   -3.1280 cl        1 056     -0.104400
     21 H6         11.6840    4.4130   -2.5890 ha        1 056      0.153000
     22 H4          7.7290    6.1740   -2.8500 ha        1 056      0.151000
     23 H3          6.7120    3.9620   -2.3080 ha        1 056      0.181000
     24 H71C        8.6340    0.7840   -2.0840 h1        1 056      0.073700
     25 H72C        7.8150    1.5880   -0.6930 h1        1 056      0.073700
     26 H91C        5.8300    0.1380   -0.7520 h1        1 056      0.055700
     27 H92C        6.3540   -0.8500   -2.1760 h1        1 056      0.055700
     28 H15         4.8440   -0.8980   -4.2400 ha        1 056      0.109000
     29 H11         3.5180    0.6720   -0.4150 ha        1 056      0.153000
     30 H14         2.4670   -1.1650   -4.9320 ha        1 056      0.107000
     31 H13         0.6180   -0.5160   -3.3480 ha        1 056      0.152000
@<TRIPOS>BOND
     1    1    2 1   
     2    2    3 1   
     3    2    4 1   
     4    4    5 ar  
     5    4    9 ar  
     6    5    6 ar  
     7    5   29 1   
     8    6    7 ar  
     9    6   12 1   
    10    7    8 ar  
    11    7   28 1   
    12    8    9 ar  
    13    8   30 1   
    14    9   31 1   
    15   10   12 1   
    16   10   16 1   
    17   11   13 ar  
    18   11   19 ar  
    19   11   21 1   
    20   12   26 1   
    21   12   27 1   
    22   13   14 1   
    23   13   15 ar  
    24   15   16 1   
    25   15   17 ar  
    26   16   24 1   
    27   16   25 1   
    28   17   18 ar  
    29   17   23 1   
    30   18   19 ar  
    31   18   22 1   
    32   19   20 1   
@<TRIPOS>SUBSTRUCTURE
     1 056         1 TEMP              0 ****  ****    0 ROOT
