@<TRIPOS>MOLECULE
056
   31    32     1     0     0
SMALL
bcc


@<TRIPOS>ATOM
      1 O17        -0.3600    0.3560   -1.3880 o         1 056     -0.829300
      2 C16         0.8210    0.4860   -0.9590 c         1 056      0.908200
      3 O18         1.1170    0.9070    0.1950 o         1 056     -0.829300
      4 C12         1.9630    0.1070   -1.8920 ca        1 056     -0.129600
      5 C11         3.2880    0.2630   -1.4790 ca        1 056     -0.082000
      6 C10         4.3460   -0.0970   -2.3240 ca        1 056     -0.129300
      7 C15         4.0670   -0.6150   -3.5960 ca        1 056     -0.135000
      8 C14         2.7460   -0.7640   -4.0120 ca        1 056     -0.167000
      9 C13         1.6980   -0.4060   -3.1650 ca        1 056     -0.094000
     10 S8          6.4310    1.4960   -2.6270 ss        1 056     -0.303200
     11 C6         10.5940    4.3160   -2.4160 ca        1 056     -0.128000
     12 C9          5.7430    0.0390   -1.8650 c3        1 056      0.069000
     13 C1         10.0040    3.0820   -2.1200 ca        1 056      0.024400
     14 CL1        11.0430    1.7660   -1.8120 cl        1 056     -0.099400
     15 C2          8.6080    2.9380   -2.0750 ca        1 056     -0.043300
     16 C7          7.9640    1.6450   -1.7500 c3        1 056      0.012000
     17 C3          7.8140    4.0680   -2.3220 ca        1 056     -0.102000
     18 C4          8.3850    5.3010   -2.6160 ca        1 056     -0.121000
     19 C5          9.7780    5.4200   -2.6630 ca        1 056      0.017400
     20 CL2        10.4890    6.9240   -3.0220 cl        1 056     -0.104400
     21 H6         11.6900    4.4120   -2.4510 ha        1 056      0.153000
     22 H4          7.7430    6.1740   -2.8100 ha        1 056      0.151000
     23 H3          6.7120    3.9620   -2.2890 ha        1 056      0.181000
     24 H71C        7.7760    1.5900   -0.6460 h1        1 056      0.073700
     25 H72C        8.6290    0.7840   -2.0160 h1        1 056      0.073700
     26 H91C        5.7930    0.1390   -0.7530 h1        1 056      0.055700
     27 H92C        6.3520   -0.8500   -2.1630 h1        1 056      0.055700
     28 H15         4.8920   -0.8990   -4.2630 ha        1 056      0.109000
     29 H11         3.4740    0.6730   -0.4720 ha        1 056      0.153000
     30 H14         2.5330   -1.1670   -5.0120 ha        1 056      0.107000
     31 H13         0.6460   -0.5170   -3.4740 ha        1 056      0.152000
@<TRIPOS>BOND
     1    1    2 1   
     2    2    3 1   
     3    2    4 1   
     4    4    5 ar  
     5    4    9 ar  
     6    5    6 ar  
     7    5   29 1   
     8    6    7 ar  
     9    6   12 1   
    10    7    8 ar  
    11    7   28 1   
    12    8    9 ar  
    13    8   30 1   
    14    9   31 1   
    15   10   12 1   
    16   10   16 1   
    17   11   13 ar  
    18   11   19 ar  
    19   11   21 1   
    20   12   26 1   
    21   12   27 1   
    22   13   14 1   
    23   13   15 ar  
    24   15   16 1   
    25   15   17 ar  
    26   16   24 1   
    27   16   25 1   
    28   17   18 ar  
    29   17   23 1   
    30   18   19 ar  
    31   18   22 1   
    32   19   20 1   
@<TRIPOS>SUBSTRUCTURE
     1 056         1 TEMP              0 ****  ****    0 ROOT
