@<TRIPOS>MOLECULE
057
   49    52     1     0     0
SMALL
bcc


@<TRIPOS>ATOM
      1 O21         2.3760   -1.4050   -1.2720 o         1 057     -0.603100
      2 C20         2.6790   -0.3740   -0.6380 c         1 057      0.678700
      3 N22         3.9100   -0.2090   -0.0320 n         1 057     -0.568900
      4 C23         4.9180   -1.2650    0.0430 c3        1 057      0.128400
      5 C26         4.4110   -2.5020    0.8000 c3        1 057     -0.106600
      6 C27         5.3810   -1.7090   -1.3520 c3        1 057     -0.106600
      7 C24         6.1600   -0.7110    0.8040 c3        1 057      0.119400
      8 O25         7.1120   -1.7590    0.8700 oh        1 057     -0.591800
      9 C15         1.7120    0.7590   -0.5110 ca        1 057     -0.168600
     10 C16         2.1410    2.0970   -0.6180 ca        1 057     -0.091000
     11 C18         1.2470    3.1500   -0.5130 ca        1 057     -0.147000
     12 C13        -0.1070    2.8480   -0.3010 ca        1 057     -0.029200
     13 N11        -1.2150    3.6880   -0.1300 na        1 057     -0.070400
     14 C19        -1.2080    5.1100   -0.2340 c3        1 057      0.027600
     15 C12        -2.3490    2.8890    0.0350 cc        1 057     -0.073100
     16 C17         0.3690    0.4430   -0.3160 ca        1 057     -0.035000
     17 C14        -0.5620    1.4750   -0.2120 ca        1 057     -0.089800
     18 C10        -1.9960    1.5350   -0.0030 cd        1 057     -0.090200
     19 C9         -2.9210    0.4500    0.1500 cd        1 057      0.028900
     20 N5         -2.7120   -0.8170   -0.4200 na        1 057     -0.278100
     21 C8         -4.1380    0.4660    0.8460 cc        1 057     -0.182200
     22 C7         -4.7290   -0.8350    0.7090 ca        1 057     -0.195100
     23 C3         -5.9020   -1.4500    1.1540 ca        1 057     -0.051000
     24 C2         -6.1210   -2.7710    0.7960 ca        1 057     -0.277300
     25 C6         -3.8090   -1.6270   -0.1020 ca        1 057      0.426800
     26 N4         -4.0220   -2.9310   -0.4570 nb        1 057     -0.667000
     27 C1         -5.1630   -3.4550    0.0010 ca        1 057      0.410200
     28 HN22        4.0180    0.5510    0.5970 hn        1 057      0.304500
     29 H26         3.5430   -2.9520    0.2610 hc        1 057      0.052533
     30 H26A        5.2380   -3.2500    0.8570 hc        1 057      0.052533
     31 H26B        4.1000   -2.2330    1.8370 hc        1 057      0.052533
     32 H27         5.7800   -0.8440   -1.9330 hc        1 057      0.052533
     33 H27A        6.1930   -2.4660   -1.2310 hc        1 057      0.052533
     34 H27B        4.5310   -2.1660   -1.9150 hc        1 057      0.052533
     35 H24         6.5940    0.1660    0.2550 h1        1 057      0.023700
     36 H24A        5.8740   -0.3980    1.8450 h1        1 057      0.023700
     37 HO25        7.8900   -1.3900    1.3040 ho        1 057      0.403000
     38 H16         3.2030    2.3170   -0.8060 ha        1 057      0.138000
     39 H18         1.5860    4.1910   -0.5980 ha        1 057      0.137000
     40 H19        -1.2140    5.4270   -1.3120 h1        1 057      0.054033
     41 H19A       -2.1170    5.5280    0.2740 h1        1 057      0.054033
     42 H19B       -0.2860    5.5200    0.2590 h1        1 057      0.054033
     43 H12        -3.3360    3.3360    0.1750 h4        1 057      0.176000
     44 H17         0.0670   -0.6130   -0.2450 ha        1 057      0.155000
     45 HN5        -1.9520   -1.0720   -0.9970 hn        1 057      0.315700
     46 H8         -4.5520    1.3050    1.3970 ha        1 057      0.154000
     47 H3         -6.6240   -0.8960    1.7700 ha        1 057      0.136000
     48 H2         -7.0250   -3.3020    1.1190 ha        1 057      0.139000
     49 H1         -5.3400   -4.5090   -0.2850 h4        1 057      0.020100
@<TRIPOS>BOND
     1    1    2 2   
     2    2    3 1   
     3    2    9 1   
     4    3    4 1   
     5    3   28 1   
     6    4    5 1   
     7    4    6 1   
     8    4    7 1   
     9    5   29 1   
    10    5   30 1   
    11    5   31 1   
    12    6   32 1   
    13    6   33 1   
    14    6   34 1   
    15    7    8 1   
    16    7   35 1   
    17    7   36 1   
    18    8   37 1   
    19    9   10 ar  
    20    9   16 ar  
    21   10   11 ar  
    22   10   38 1   
    23   11   12 ar  
    24   11   39 1   
    25   12   13 1   
    26   12   17 ar  
    27   13   14 1   
    28   13   15 1   
    29   14   40 1   
    30   14   41 1   
    31   14   42 1   
    32   15   18 2   
    33   15   43 1   
    34   16   17 ar  
    35   16   44 1   
    36   17   18 1   
    37   18   19 1   
    38   19   20 1   
    39   19   21 2   
    40   20   25 1   
    41   20   45 1   
    42   21   22 1   
    43   21   46 1   
    44   22   23 ar  
    45   22   25 ar  
    46   23   24 ar  
    47   23   47 1   
    48   24   27 ar  
    49   24   48 1   
    50   25   26 ar  
    51   26   27 ar  
    52   27   49 1   
@<TRIPOS>SUBSTRUCTURE
     1 057         1 TEMP              0 ****  ****    0 ROOT
