@<TRIPOS>MOLECULE
057
   50    53     1     0     0
SMALL
bcc


@<TRIPOS>ATOM
      1 O21         0.4600   -2.1660   -0.0130 o         1 057     -0.436100
      2 C20         1.4640   -1.4660   -0.0690 c         1 057      0.586700
      3 N22         2.0270   -1.0310    1.2760 n4        1 057     -0.686800
      4 C23         1.1180   -0.0570    2.0230 c3        1 057      0.154200
      5 C26         0.6350    1.0500    1.0890 c3        1 057     -0.122600
      6 C27        -0.0760   -0.7960    2.6230 c3        1 057     -0.122600
      7 C24         1.9460    0.5810    3.1780 c3        1 057      0.117400
      8 O25         1.0640    1.4720    3.8290 oh        1 057     -0.581800
      9 C15         2.1790   -1.0000   -1.2510 ca        1 057     -0.247600
     10 C16         3.5890   -0.8780   -1.2840 ca        1 057     -0.097000
     11 C18         4.2460   -0.4540   -2.4200 ca        1 057     -0.121000
     12 C13         3.4780   -0.1380   -3.5600 ca        1 057     -0.002200
     13 N11         3.8520    0.3230   -4.8150 na        1 057     -0.042400
     14 C19         5.1840    0.6170   -5.2450 c3        1 057      0.012600
     15 C12         2.6960    0.4730   -5.5940 cc        1 057     -0.070100
     16 C17         1.4000   -0.7220   -2.3850 ca        1 057      0.021000
     17 C14         2.0310   -0.2880   -3.5420 ca        1 057     -0.103800
     18 C10         1.5650    0.1100   -4.8560 cd        1 057     -0.052200
     19 C9          0.2110    0.1540   -5.3270 cd        1 057     -0.029100
     20 N5         -0.7740   -0.7560   -4.8810 na        1 057     -0.283100
     21 C8         -0.3490    1.0790   -6.2130 cc        1 057     -0.130200
     22 C7         -1.7310    0.7220   -6.3900 ca        1 057     -0.207100
     23 C3         -2.8050    1.2310   -7.1270 ca        1 057     -0.040000
     24 C2         -4.0210    0.5730   -7.0390 ca        1 057     -0.266300
     25 C6         -1.9640   -0.4600   -5.5710 ca        1 057      0.430800
     26 N4         -3.1620   -1.1130   -5.4830 nb        1 057     -0.670000
     27 C1         -4.1450   -0.5790   -6.2160 ca        1 057      0.427200
     28 HN22        2.9330   -0.5780    1.1320 hn        1 057      0.449300
     29 H26         1.4890    1.5970    0.6240 hc        1 057      0.081533
     30 H26A        0.0440    1.7800    1.7030 hc        1 057      0.081533
     31 H26B       -0.0270    0.6390    0.2880 hc        1 057      0.081533
     32 H27        -0.6790   -0.0510    3.2050 hc        1 057      0.081533
     33 H27A       -0.7220   -1.2390    1.8250 hc        1 057      0.081533
     34 H27B        0.2520   -1.6030    3.3220 hc        1 057      0.081533
     35 H24         2.2990   -0.2120    3.8910 h1        1 057      0.041700
     36 H24A        2.8270    1.1450    2.7660 h1        1 057      0.041700
     37 HO25        1.5400    1.8360    4.5890 ho        1 057      0.438000
     38 H16         4.1970   -1.1660   -0.4120 ha        1 057      0.123000
     39 H18         5.3430   -0.3710   -2.4430 ha        1 057      0.159000
     40 H19         5.8890   -0.1700   -4.8630 h1        1 057      0.069700
     41 H19A        5.2210    0.6340   -6.3670 h1        1 057      0.069700
     42 H19B        5.5050    1.6190   -4.8500 h1        1 057      0.069700
     43 H12         2.7590    0.8270   -6.6280 h4        1 057      0.196000
     44 H17         0.3040   -0.8390   -2.3470 ha        1 057      0.170000
     45 HN5        -0.5690   -1.6430   -4.4970 hn        1 057      0.300700
     46 H8          0.1570    1.9220   -6.6760 ha        1 057      0.161000
     47 H3         -2.6800    2.1260   -7.7540 ha        1 057      0.147000
     48 H2         -4.8970    0.9260   -7.5990 ha        1 057      0.153000
     49 H1         -5.1150   -1.1080   -6.1520 h4        1 057      0.031100
     50 H222        2.1500   -1.8590    1.8680 hn        1 057      0.449300
@<TRIPOS>BOND
     1    1    2 2   
     2    2    3 1   
     3    2    9 1   
     4    3    4 1   
     5    3   28 1   
     6    3   50 1   
     7    4    5 1   
     8    4    6 1   
     9    4    7 1   
    10    5   29 1   
    11    5   30 1   
    12    5   31 1   
    13    6   32 1   
    14    6   33 1   
    15    6   34 1   
    16    7    8 1   
    17    7   35 1   
    18    7   36 1   
    19    8   37 1   
    20    9   10 ar  
    21    9   16 ar  
    22   10   11 ar  
    23   10   38 1   
    24   11   12 ar  
    25   11   39 1   
    26   12   13 1   
    27   12   17 ar  
    28   13   14 1   
    29   13   15 1   
    30   14   40 1   
    31   14   41 1   
    32   14   42 1   
    33   15   18 2   
    34   15   43 1   
    35   16   17 ar  
    36   16   44 1   
    37   17   18 1   
    38   18   19 1   
    39   19   20 1   
    40   19   21 2   
    41   20   25 1   
    42   20   45 1   
    43   21   22 1   
    44   21   46 1   
    45   22   23 ar  
    46   22   25 ar  
    47   23   24 ar  
    48   23   47 1   
    49   24   27 ar  
    50   24   48 1   
    51   25   26 ar  
    52   26   27 ar  
    53   27   49 1   
@<TRIPOS>SUBSTRUCTURE
     1 057         1 TEMP              0 ****  ****    0 ROOT
