@<TRIPOS>MOLECULE
057
   50    53     1     0     0
SMALL
bcc


@<TRIPOS>ATOM
      1 O21         0.4730   -2.1760   -0.0180 o         1 057     -0.436100
      2 C20         1.4750   -1.4750   -0.0760 c         1 057      0.586700
      3 N22         2.0420   -1.0400    1.2680 n4        1 057     -0.686800
      4 C23         1.1330   -0.0670    2.0170 c3        1 057      0.154200
      5 C26         0.6470    1.0400    1.0860 c3        1 057     -0.122600
      6 C27        -0.0590   -0.8080    2.6190 c3        1 057     -0.122600
      7 C24         1.9640    0.5700    3.1710 c3        1 057      0.117400
      8 O25         1.0820    1.4600    3.8250 oh        1 057     -0.581800
      9 C15         2.1850   -1.0060   -1.2600 ca        1 057     -0.247600
     10 C16         3.5950   -0.8830   -1.2980 ca        1 057     -0.097000
     11 C18         4.2480   -0.4550   -2.4360 ca        1 057     -0.121000
     12 C13         3.4760   -0.1390   -3.5720 ca        1 057     -0.002200
     13 N11         3.8450    0.3240   -4.8280 na        1 057     -0.042400
     14 C19         5.1750    0.6200   -5.2610 c3        1 057      0.012600
     15 C12         2.6860    0.4740   -5.6030 cc        1 057     -0.070100
     16 C17         1.4030   -0.7270   -2.3910 ca        1 057      0.021000
     17 C14         2.0290   -0.2900   -3.5490 ca        1 057     -0.103800
     18 C10         1.5580    0.1080   -4.8610 cd        1 057     -0.052200
     19 C9          0.2030    0.1520   -5.3280 cd        1 057     -0.029100
     20 N5         -0.7800   -0.7600   -4.8800 na        1 057     -0.283100
     21 C8         -0.3610    1.0780   -6.2110 cc        1 057     -0.130200
     22 C7         -1.7440    0.7190   -6.3840 ca        1 057     -0.207100
     23 C3         -2.8200    1.2280   -7.1170 ca        1 057     -0.040000
     24 C2         -4.0350    0.5680   -7.0270 ca        1 057     -0.266300
     25 C6         -1.9730   -0.4640   -5.5670 ca        1 057      0.430800
     26 N4         -3.1700   -1.1190   -5.4760 nb        1 057     -0.670000
     27 C1         -4.1550   -0.5850   -6.2060 ca        1 057      0.427200
     28 HN22        2.9460   -0.5850    1.1210 hn        1 057      0.449300
     29 H26        -0.0170    0.6300    0.2860 hc        1 057      0.081533
     30 H26A        0.0570    1.7690    1.7020 hc        1 057      0.081533
     31 H26B        1.5000    1.5890    0.6190 hc        1 057      0.081533
     32 H27        -0.6610   -0.0640    3.2040 hc        1 057      0.081533
     33 H27A        0.2720   -1.6150    3.3170 hc        1 057      0.081533
     34 H27B       -0.7070   -1.2500    1.8230 hc        1 057      0.081533
     35 H24         2.3180   -0.2230    3.8820 h1        1 057      0.041700
     36 H24A        2.8430    1.1360    2.7580 h1        1 057      0.041700
     37 HO25        1.5580    1.8220    4.5850 ho        1 057      0.438000
     38 H16         4.2060   -1.1700   -0.4280 ha        1 057      0.123000
     39 H18         5.3450   -0.3710   -2.4620 ha        1 057      0.159000
     40 H19         5.8820   -0.1670   -4.8840 h1        1 057      0.069700
     41 H19A        5.2080    0.6400   -6.3830 h1        1 057      0.069700
     42 H19B        5.4960    1.6230   -4.8660 h1        1 057      0.069700
     43 H12         2.7450    0.8300   -6.6360 h4        1 057      0.196000
     44 H17         0.3060   -0.8450   -2.3500 ha        1 057      0.170000
     45 HN5        -0.5730   -1.6470   -4.4980 hn        1 057      0.300700
     46 H8          0.1420    1.9220   -6.6740 ha        1 057      0.161000
     47 H3         -2.6980    2.1240   -7.7430 ha        1 057      0.147000
     48 H2         -4.9140    0.9210   -7.5840 ha        1 057      0.153000
     49 H1         -5.1240   -1.1150   -6.1390 h4        1 057      0.031100
     50 H222        2.1670   -1.8680    1.8580 hn        1 057      0.449300
@<TRIPOS>BOND
     1    1    2 2   
     2    2    3 1   
     3    2    9 1   
     4    3    4 1   
     5    3   28 1   
     6    3   50 1   
     7    4    5 1   
     8    4    6 1   
     9    4    7 1   
    10    5   29 1   
    11    5   30 1   
    12    5   31 1   
    13    6   32 1   
    14    6   33 1   
    15    6   34 1   
    16    7    8 1   
    17    7   35 1   
    18    7   36 1   
    19    8   37 1   
    20    9   10 ar  
    21    9   16 ar  
    22   10   11 ar  
    23   10   38 1   
    24   11   12 ar  
    25   11   39 1   
    26   12   13 1   
    27   12   17 ar  
    28   13   14 1   
    29   13   15 1   
    30   14   40 1   
    31   14   41 1   
    32   14   42 1   
    33   15   18 2   
    34   15   43 1   
    35   16   17 ar  
    36   16   44 1   
    37   17   18 1   
    38   18   19 1   
    39   19   20 1   
    40   19   21 2   
    41   20   25 1   
    42   20   45 1   
    43   21   22 1   
    44   21   46 1   
    45   22   23 ar  
    46   22   25 ar  
    47   23   24 ar  
    48   23   47 1   
    49   24   27 ar  
    50   24   48 1   
    51   25   26 ar  
    52   26   27 ar  
    53   27   49 1   
@<TRIPOS>SUBSTRUCTURE
     1 057         1 TEMP              0 ****  ****    0 ROOT
