@<TRIPOS>MOLECULE
057
   50    53     1     0     0
SMALL
bcc


@<TRIPOS>ATOM
      1 O21         0.4470   -2.1420    0.0100 o         1 057     -0.436100
      2 C20         1.4570   -1.4520   -0.0560 c         1 057      0.586700
      3 N22         2.0270   -1.0050    1.2820 ny        1 057     -0.686800
      4 C23         1.1270   -0.0130    2.0180 c3        1 057      0.154200
      5 C26         0.6530    1.0870    1.0720 c3        1 057     -0.122600
      6 C27        -0.0730   -0.7340    2.6290 c3        1 057     -0.122600
      7 C24         1.9630    0.6310    3.1640 c3        1 057      0.117400
      8 O25         1.0890    1.5380    3.8050 oh        1 057     -0.581800
      9 C15         2.1730   -1.0060   -1.2450 ca        1 057     -0.247600
     10 C16         3.5850   -0.8990   -1.2830 ca        1 057     -0.097000
     11 C18         4.2430   -0.4930   -2.4250 ca        1 057     -0.121000
     12 C13         3.4760   -0.1830   -3.5670 ca        1 057     -0.002200
     13 N11         3.8520    0.2590   -4.8280 na        1 057     -0.042400
     14 C19         5.1850    0.5350   -5.2640 c3        1 057      0.012600
     15 C12         2.6950    0.4110   -5.6070 cc        1 057     -0.070100
     16 C17         1.3950   -0.7340   -2.3810 ca        1 057      0.021000
     17 C14         2.0270   -0.3190   -3.5440 ca        1 057     -0.103800
     18 C10         1.5620    0.0670   -4.8620 cd        1 057     -0.052200
     19 C9          0.2080    0.1200   -5.3300 cd        1 057     -0.029100
     20 N5         -0.7850   -0.7760   -4.8720 na        1 057     -0.283100
     21 C8         -0.3450    1.0400   -6.2260 cc        1 057     -0.130200
     22 C7         -1.7310    0.6930   -6.3960 ca        1 057     -0.207100
     23 C3         -2.8010    1.2050   -7.1370 ca        1 057     -0.040000
     24 C2         -4.0230    0.5580   -7.0400 ca        1 057     -0.266300
     25 C6         -1.9730   -0.4770   -5.5640 ca        1 057      0.430800
     26 N4         -3.1780   -1.1180   -5.4660 nb        1 057     -0.670000
     27 C1         -4.1560   -0.5830   -6.2040 ca        1 057      0.427200
     28 HN22        2.9360   -0.5610    1.1300 hn        1 057      0.449300
     29 H26        -0.0140    0.6720    0.2770 hc        1 057      0.081533
     30 H26A        0.0690    1.8290    1.6770 hc        1 057      0.081533
     31 H26B        1.5110    1.6210    0.5990 hc        1 057      0.081533
     32 H27        -0.6680    0.0230    3.2030 hc        1 057      0.081533
     33 H27A        0.2490   -1.5350    3.3370 hc        1 057      0.081533
     34 H27B       -0.7240   -1.1800    1.8380 hc        1 057      0.081533
     35 H24         2.3090   -0.1560    3.8860 h1        1 057      0.041700
     36 H24A        2.8480    1.1820    2.7450 h1        1 057      0.041700
     37 HO25        1.5690    1.9050    4.5610 ho        1 057      0.438000
     38 H16         4.1920   -1.1810   -0.4090 ha        1 057      0.123000
     39 H18         5.3410   -0.4210   -2.4520 ha        1 057      0.159000
     40 H19         5.8830   -0.2550   -4.8750 h1        1 057      0.069700
     41 H19A        5.2200    0.5380   -6.3860 h1        1 057      0.069700
     42 H19B        5.5170    1.5390   -4.8820 h1        1 057      0.069700
     43 H12         2.7590    0.7520   -6.6440 h4        1 057      0.196000
     44 H17         0.2970   -0.8400   -2.3400 ha        1 057      0.170000
     45 HN5        -0.5880   -1.6600   -4.4790 hn        1 057      0.300700
     46 H8          0.1680    1.8730   -6.6990 ha        1 057      0.161000
     47 H3         -2.6680    2.0910   -7.7740 ha        1 057      0.147000
     48 H2         -4.8970    0.9140   -7.6030 ha        1 057      0.153000
     49 H1         -5.1310   -1.1010   -6.1320 h4        1 057      0.031100
     50 H222        2.1430   -1.8260    1.8840 hn        1 057      0.449300
@<TRIPOS>BOND
     1    1    2 2   
     2    2    3 1   
     3    2    9 1   
     4    3    4 1   
     5    3   28 1   
     6    3   50 1   
     7    4    5 1   
     8    4    6 1   
     9    4    7 1   
    10    5   29 1   
    11    5   30 1   
    12    5   31 1   
    13    6   32 1   
    14    6   33 1   
    15    6   34 1   
    16    7    8 1   
    17    7   35 1   
    18    7   36 1   
    19    8   37 1   
    20    9   10 ar  
    21    9   16 ar  
    22   10   11 ar  
    23   10   38 1   
    24   11   12 ar  
    25   11   39 1   
    26   12   13 1   
    27   12   17 ar  
    28   13   14 1   
    29   13   15 1   
    30   14   40 1   
    31   14   41 1   
    32   14   42 1   
    33   15   18 2   
    34   15   43 1   
    35   16   17 ar  
    36   16   44 1   
    37   17   18 1   
    38   18   19 1   
    39   19   20 1   
    40   19   21 2   
    41   20   25 1   
    42   20   45 1   
    43   21   22 1   
    44   21   46 1   
    45   22   23 ar  
    46   22   25 ar  
    47   23   24 ar  
    48   23   47 1   
    49   24   27 ar  
    50   24   48 1   
    51   25   26 ar  
    52   26   27 ar  
    53   27   49 1   
@<TRIPOS>SUBSTRUCTURE
     1 057         1 TEMP              0 ****  ****    0 ROOT
