@<TRIPOS>MOLECULE
057
   49    40     1     0     0
SMALL
bcc


@<TRIPOS>ATOM
      1 O21        -0.5000    1.1450    2.5400 o         1 057     -0.364000
      2 C20         0.4110    0.4290    2.4560 c1        1 057      0.352000
      3 N22         0.9070   -0.3120    3.6770 n2        1 057     -0.378000
      4 C23         0.1480   -0.2410    4.9550 c3        1 057      0.091000
      5 C26         0.2110    1.1120    5.4830 c3        1 057     -0.224500
      6 C27        -1.3550   -0.6380    4.6920 c3        1 057     -0.224500
      7 C24         0.7870   -1.2450    6.0000 c3        1 057     -0.031000
      8 O25         0.1510   -1.1030    7.2350 oh        1 057     -0.319000
      9 C15         1.2030    0.3580    1.1640 c2        1 057     -0.148000
     10 C16         2.6240    0.3490    1.0620 c1        1 057     -0.091000
     11 C18         3.2170    0.2240   -0.1620 c1        1 057     -0.147000
     12 C13         2.3820    0.1000   -1.3770 c1        1 057      0.016000
     13 N11         2.7020    0.0760   -2.7100 n1        1 057     -0.162000
     14 C19         4.0040    0.0430   -3.3640 c2        1 057     -0.071000
     15 C12         1.5310    0.0710   -3.4310 c1        1 057     -0.046000
     16 C17         0.4030    0.2380   -0.0080 c2        1 057     -0.035000
     17 C14         1.0160    0.1100   -1.2730 c1        1 057     -0.078000
     18 C10         0.4910    0.0930   -2.5430 c1        1 057     -0.102000
     19 C9         -0.7640    0.1720   -3.2150 c2        1 057      0.056000
     20 N5         -1.3000    1.3370   -3.7200 n2        1 057     -0.192000
     21 C8         -1.5940   -0.9270   -3.6490 c1        1 057     -0.194000
     22 C7         -2.6040   -0.4190   -4.3980 c1        1 057     -0.118000
     23 C3         -3.7100   -1.0270   -4.9930 c1        1 057     -0.131500
     24 C2         -4.6580   -0.2500   -5.6470 c1        1 057     -0.131500
     25 C6         -2.4470    0.9990   -4.4600 c1        1 057      0.035000
     26 N4         -3.3940    1.7710   -5.1140 n1        1 057     -0.141000
     27 C1         -4.4960    1.1690   -5.7070 c1        1 057     -0.055000
     28 HN22        1.5570   -0.8310    3.6100 hn        1 057      0.218000
     29 H26        -0.1030    1.1090    6.4840 hc        1 057      0.091833
     30 H26A        1.1590    1.4530    5.4290 hc        1 057      0.091833
     31 H26B       -0.3480    1.6680    4.9820 hc        1 057      0.091833
     32 H27        -1.8290   -0.7480    5.5530 hc        1 057      0.091833
     33 H27A       -1.3830   -1.4590    4.2080 hc        1 057      0.091833
     34 H27B       -1.7780    0.0470    4.1830 hc        1 057      0.091833
     35 H24         1.7730   -1.0390    6.1040 h1        1 057      0.063000
     36 H24A        0.6630   -2.2760    5.6430 h1        1 057      0.063000
     37 HO25        0.4660   -1.7760    7.8360 ho        1 057      0.202000
     38 H16         3.2070    0.3630    1.9200 ha        1 057      0.138000
     39 H18         4.2850    0.2210   -0.2430 ha        1 057      0.137000
     40 H19         3.9000   -0.3320   -4.3510 ha        1 057      0.093333
     41 H19A        4.5970   -0.5210   -2.8730 ha        1 057      0.093333
     42 H19B        4.3740    0.9680   -3.3960 ha        1 057      0.093333
     43 H12         1.4570   -0.0860   -4.3760 DU        1 057      0.198667
     44 H17        -0.6110    0.2100    0.0690 ha        1 057      0.155000
     45 HN5        -1.0020    2.1620   -3.5620 DU        1 057      0.198667
     46 H8         -1.3850   -1.8590   -3.5550 DU        1 057      0.198667
     47 H3         -3.8070   -1.9170   -4.9550 ha        1 057      0.137500
     48 H2         -5.4400   -0.6740   -6.0650 ha        1 057      0.137500
     49 H1         -5.1170    1.6820   -6.1370 ha        1 057      0.157000
@<TRIPOS>BOND
     1    1    2 1   
     2    2    9 1   
     3    3    4 1   
     4    3   28 1   
     5    4    5 1   
     6    4    6 1   
     7    4    7 1   
     8    5   29 1   
     9    5   30 1   
    10    5   31 1   
    11    6   32 1   
    12    6   33 1   
    13    6   34 1   
    14    7    8 1   
    15    7   35 1   
    16    7   36 1   
    17    8   37 1   
    18    9   10 1   
    19    9   16 1   
    20   10   38 1   
    21   11   12 1   
    22   11   39 1   
    23   13   15 1   
    24   14   40 1   
    25   14   41 1   
    26   14   42 1   
    27   15   18 1   
    28   16   17 1   
    29   16   44 1   
    30   18   19 1   
    31   19   20 1   
    32   19   21 1   
    33   20   25 1   
    34   21   22 1   
    35   22   25 1   
    36   23   24 1   
    37   23   47 1   
    38   24   48 1   
    39   26   27 1   
    40   27   49 1   
@<TRIPOS>SUBSTRUCTURE
     1 057         1 TEMP              0 ****  ****    0 ROOT
