@<TRIPOS>MOLECULE
058
   41    44     1     0     0
SMALL
bcc


@<TRIPOS>ATOM
      1 C1          1.3080    3.2800    0.1520 ca        1 058     -0.011600
      2 F1          3.7190   -0.0010    1.1450 f         1 058     -0.149900
      3 N1         -1.1150   -0.0100    0.8470 na        1 058     -0.055400
      4 O1         -0.9840   -2.9650    1.7510 o         1 058     -0.800300
      5 CL1         2.3640    4.5920   -0.1570 cl        1 058     -0.149400
      6 C2         -0.0100    3.5610    0.5520 ca        1 058     -0.139000
      7 O2         -0.8780   -3.1130   -0.4830 o         1 058     -0.800300
      8 C3         -0.9020    2.5300    0.8110 ca        1 058     -0.133000
      9 C4          1.7770    1.9790   -0.0000 ca        1 058     -0.085000
     10 C5         -0.2350   -1.0550    0.5330 cc        1 058     -0.017300
     11 C6          1.0210   -0.5220    0.1830 cd        1 058     -0.148400
     12 C7          0.9060    0.9210    0.2530 ca        1 058     -0.048800
     13 C8         -0.4550    1.2100    0.6620 ca        1 058     -0.056200
     14 C9         -2.4790   -0.1740    1.2630 c3        1 058      0.078600
     15 C10        -0.7200   -2.5070    0.6110 c         1 058      0.924800
     16 C11         2.1820   -1.2760   -0.2210 ca        1 058      0.001200
     17 C12         2.0290   -2.3500   -1.1160 ca        1 058     -0.097000
     18 C13         3.1220   -3.0880   -1.5550 ca        1 058     -0.150000
     19 C14         4.4070   -2.7770   -1.1100 ca        1 058     -0.133000
     20 C15         4.5940   -1.7350   -0.2100 ca        1 058     -0.184000
     21 C16         3.4880   -0.9890    0.2440 ca        1 058      0.108900
     22 C17        -3.4950   -0.0970    0.1560 ca        1 058     -0.106300
     23 C18        -4.4620    0.9120    0.1590 ca        1 058     -0.111500
     24 C19        -5.4330    0.9550   -0.8410 ca        1 058     -0.142500
     25 C20        -5.4350   -0.0050   -1.8520 ca        1 058     -0.138000
     26 C21        -4.4660   -1.0090   -1.8610 ca        1 058     -0.142500
     27 C22        -3.4960   -1.0600   -0.8610 ca        1 058     -0.111500
     28 H2         -0.3380    4.6040    0.6600 ha        1 058      0.126000
     29 H3         -1.9350    2.7430    1.1160 ha        1 058      0.126000
     30 H4          2.8160    1.7760   -0.3010 ha        1 058      0.147000
     31 H9         -2.5590   -1.1950    1.7530 h1        1 058      0.081700
     32 H9A        -2.7060    0.6170    2.0340 h1        1 058      0.081700
     33 H12         1.0040   -2.6190   -1.4420 ha        1 058      0.195000
     34 H13         2.9690   -3.9250   -2.2510 ha        1 058      0.124000
     35 H14         5.2710   -3.3580   -1.4610 ha        1 058      0.115000
     36 H15         5.5960   -1.4870    0.1640 ha        1 058      0.126000
     37 H18        -4.4570    1.6760    0.9500 ha        1 058      0.158000
     38 H19        -6.1920    1.7490   -0.8340 ha        1 058      0.122000
     39 H20        -6.1990    0.0300   -2.6420 ha        1 058      0.115000
     40 H21        -4.4630   -1.7660   -2.6590 ha        1 058      0.122000
     41 H22        -2.7230   -1.8560   -0.8640 ha        1 058      0.158000
@<TRIPOS>BOND
     1    1    5 1   
     2    1    6 ar  
     3    1    9 ar  
     4    2   21 1   
     5    3   10 1   
     6    3   13 1   
     7    3   14 1   
     8    4   15 1   
     9    6    8 ar  
    10    6   28 1   
    11    7   15 1   
    12    8   13 ar  
    13    8   29 1   
    14    9   12 ar  
    15    9   30 1   
    16   10   11 2   
    17   10   15 1   
    18   11   12 1   
    19   11   16 1   
    20   12   13 ar  
    21   14   22 1   
    22   14   31 1   
    23   14   32 1   
    24   16   17 ar  
    25   16   21 ar  
    26   17   18 ar  
    27   17   33 1   
    28   18   19 ar  
    29   18   34 1   
    30   19   20 ar  
    31   19   35 1   
    32   20   21 ar  
    33   20   36 1   
    34   22   23 ar  
    35   22   27 ar  
    36   23   24 ar  
    37   23   37 1   
    38   24   25 ar  
    39   24   38 1   
    40   25   26 ar  
    41   25   39 1   
    42   26   27 ar  
    43   26   40 1   
    44   27   41 1   
@<TRIPOS>SUBSTRUCTURE
     1 058         1 TEMP              0 ****  ****    0 ROOT
