@<TRIPOS>MOLECULE
058
   41    44     1     0     0
SMALL
bcc


@<TRIPOS>ATOM
      1 C1         -0.0100   -0.1860    0.0480 ca        1 058     -0.011600
      2 F1         -2.4950   -1.9860    2.9010 f         1 058     -0.149900
      3 N1          1.7980    0.0820    3.7680 na        1 058     -0.055400
      4 O1          1.4210   -0.7920    6.7110 o         1 058     -0.800300
      5 CL1        -0.8240   -0.2960   -1.4550 cl        1 058     -0.149400
      6 C2          1.3910   -0.0700    0.0440 ca        1 058     -0.139000
      7 O2          0.4860    1.2440    6.6630 o         1 058     -0.800300
      8 C3          2.0930    0.0250    1.2370 ca        1 058     -0.133000
      9 C4         -0.7500   -0.2120    1.2260 ca        1 058     -0.085000
     10 C5          0.6760    0.0520    4.6080 cc        1 058     -0.017300
     11 C6         -0.4890   -0.0890    3.8290 cd        1 058     -0.148400
     12 C7         -0.0740   -0.1190    2.4410 ca        1 058     -0.048800
     13 C8          1.3710    0.0040    2.4370 ca        1 058     -0.056200
     14 C9          3.1580    0.2020    4.2090 c3        1 058      0.078600
     15 C10         0.8580    0.1670    6.1250 c         1 058      0.924800
     16 C11        -1.8430   -0.1420    4.3250 ca        1 058      0.001200
     17 C12        -2.2390    0.7510    5.3370 ca        1 058     -0.097000
     18 C13        -3.5410    0.7570    5.8270 ca        1 058     -0.150000
     19 C14        -4.4880   -0.1330    5.3230 ca        1 058     -0.133000
     20 C15        -4.1260   -1.0430    4.3380 ca        1 058     -0.184000
     21 C16        -2.8070   -1.0590    3.8420 ca        1 058      0.108900
     22 C17         3.6980    1.6060    4.2330 ca        1 058     -0.106300
     23 C18         4.7800    1.9570    3.4200 ca        1 058     -0.111500
     24 C19         5.3100    3.2450    3.4770 ca        1 058     -0.142500
     25 C20         4.7560    4.1900    4.3400 ca        1 058     -0.138000
     26 C21         3.6720    3.8440    5.1470 ca        1 058     -0.142500
     27 C22         3.1400    2.5560    5.0980 ca        1 058     -0.111500
     28 H2          1.9350   -0.0530   -0.9110 ha        1 058      0.126000
     29 H3          3.1870    0.1230    1.2390 ha        1 058      0.126000
     30 H4         -1.8450   -0.3160    1.2120 ha        1 058      0.147000
     31 H9          3.2070   -0.2180    5.2630 h1        1 058      0.081700
     32 H9A         3.8010   -0.4340    3.5350 h1        1 058      0.081700
     33 H12        -1.4770    1.4360    5.7620 ha        1 058      0.195000
     34 H13        -3.8180    1.4650    6.6220 ha        1 058      0.124000
     35 H14        -5.5170   -0.1250    5.7080 ha        1 058      0.115000
     36 H15        -4.8540   -1.7630    3.9410 ha        1 058      0.126000
     37 H18         5.2130    1.2160    2.7320 ha        1 058      0.158000
     38 H19         6.1620    3.5160    2.8380 ha        1 058      0.122000
     39 H20         5.1720    5.2060    4.3830 ha        1 058      0.115000
     40 H21         3.2300    4.5870    5.8260 ha        1 058      0.122000
     41 H22         2.2770    2.2760    5.7370 ha        1 058      0.158000
@<TRIPOS>BOND
     1    1    5 1   
     2    1    6 ar  
     3    1    9 ar  
     4    2   21 1   
     5    3   10 1   
     6    3   13 1   
     7    3   14 1   
     8    4   15 1   
     9    6    8 ar  
    10    6   28 1   
    11    7   15 1   
    12    8   13 ar  
    13    8   29 1   
    14    9   12 ar  
    15    9   30 1   
    16   10   11 2   
    17   10   15 1   
    18   11   12 1   
    19   11   16 1   
    20   12   13 ar  
    21   14   22 1   
    22   14   31 1   
    23   14   32 1   
    24   16   17 ar  
    25   16   21 ar  
    26   17   18 ar  
    27   17   33 1   
    28   18   19 ar  
    29   18   34 1   
    30   19   20 ar  
    31   19   35 1   
    32   20   21 ar  
    33   20   36 1   
    34   22   23 ar  
    35   22   27 ar  
    36   23   24 ar  
    37   23   37 1   
    38   24   25 ar  
    39   24   38 1   
    40   25   26 ar  
    41   25   39 1   
    42   26   27 ar  
    43   26   40 1   
    44   27   41 1   
@<TRIPOS>SUBSTRUCTURE
     1 058         1 TEMP              0 ****  ****    0 ROOT
