@<TRIPOS>MOLECULE
058
   41    44     1     0     0
SMALL
bcc


@<TRIPOS>ATOM
      1 C1         -0.0330   -0.1770    0.0500 ca        1 058     -0.011600
      2 F1         -2.5030   -1.9800    2.9160 f         1 058     -0.149900
      3 N1          1.7970    0.0810    3.7600 na        1 058     -0.055400
      4 O1          1.4370   -0.7990    6.7030 o         1 058     -0.800300
      5 Cl1        -0.8570   -0.2830   -1.4470 cl        1 058     -0.149400
      6 C2          1.3680   -0.0630    0.0380 ca        1 058     -0.139000
      7 O2          0.5040    1.2380    6.6660 o         1 058     -0.800300
      8 C3          2.0770    0.0290    1.2270 ca        1 058     -0.133000
      9 C4         -0.7660   -0.2050    1.2330 ca        1 058     -0.085000
     10 C5          0.6810    0.0510    4.6070 cc        1 058     -0.017300
     11 C6         -0.4900   -0.0880    3.8350 cd        1 058     -0.148400
     12 C7         -0.0830   -0.1160    2.4440 ca        1 058     -0.048800
     13 C8          1.3620    0.0060    2.4320 ca        1 058     -0.056200
     14 C9          3.1600    0.1990    4.1940 c3        1 058      0.078600
     15 C10         0.8720    0.1610    6.1230 c         1 058      0.924800
     16 C11        -1.8400   -0.1400    4.3400 ca        1 058      0.001200
     17 C12        -2.2300    0.7510    5.3550 ca        1 058     -0.097000
     18 C13        -3.5280    0.7580    5.8540 ca        1 058     -0.150000
     19 C14        -4.4790   -0.1310    5.3530 ca        1 058     -0.133000
     20 C15        -4.1250   -1.0390    4.3640 ca        1 058     -0.184000
     21 C16        -2.8080   -1.0550    3.8600 ca        1 058      0.108900
     22 C17         3.7020    1.6020    4.2170 ca        1 058     -0.106300
     23 C18         4.7790    1.9530    3.3980 ca        1 058     -0.111500
     24 C19         5.3110    3.2410    3.4550 ca        1 058     -0.142500
     25 C20         4.7630    4.1840    4.3240 ca        1 058     -0.138000
     26 C21         3.6830    3.8380    5.1360 ca        1 058     -0.142500
     27 C22         3.1510    2.5500    5.0870 ca        1 058     -0.111500
     28 H2          1.9050   -0.0450   -0.9200 ha        1 058      0.126000
     29 H3          3.1710    0.1260    1.2230 ha        1 058      0.126000
     30 H4         -1.8620   -0.3080    1.2260 ha        1 058      0.147000
     31 H9          3.2150   -0.2240    5.2460 h1        1 058      0.081700
     32 H9A         3.7980   -0.4370    3.5140 h1        1 058      0.081700
     33 H12        -1.4640    1.4340    5.7770 ha        1 058      0.195000
     34 H13        -3.8000    1.4640    6.6510 ha        1 058      0.124000
     35 H14        -5.5060   -0.1220    5.7440 ha        1 058      0.115000
     36 H15        -4.8560   -1.7580    3.9700 ha        1 058      0.126000
     37 H18         5.2070    1.2140    2.7050 ha        1 058      0.158000
     38 H19         6.1590    3.5120    2.8110 ha        1 058      0.122000
     39 H20         5.1810    5.2000    4.3660 ha        1 058      0.115000
     40 H21         3.2470    4.5800    5.8190 ha        1 058      0.122000
     41 H22         2.2910    2.2700    5.7310 ha        1 058      0.158000
@<TRIPOS>BOND
     1    1    5 1   
     2    1    6 ar  
     3    1    9 ar  
     4    2   21 1   
     5    3   10 1   
     6    3   13 1   
     7    3   14 1   
     8    4   15 1   
     9    6    8 ar  
    10    6   28 1   
    11    7   15 1   
    12    8   13 ar  
    13    8   29 1   
    14    9   12 ar  
    15    9   30 1   
    16   10   11 2   
    17   10   15 1   
    18   11   12 1   
    19   11   16 1   
    20   12   13 ar  
    21   14   22 1   
    22   14   31 1   
    23   14   32 1   
    24   16   17 ar  
    25   16   21 ar  
    26   17   18 ar  
    27   17   33 1   
    28   18   19 ar  
    29   18   34 1   
    30   19   20 ar  
    31   19   35 1   
    32   20   21 ar  
    33   20   36 1   
    34   22   23 ar  
    35   22   27 ar  
    36   23   24 ar  
    37   23   37 1   
    38   24   25 ar  
    39   24   38 1   
    40   25   26 ar  
    41   25   39 1   
    42   26   27 ar  
    43   26   40 1   
    44   27   41 1   
@<TRIPOS>SUBSTRUCTURE
     1 058         1 TEMP              0 ****  ****    0 ROOT
