@<TRIPOS>MOLECULE
058
   41    34     1     0     0
SMALL
bcc


@<TRIPOS>ATOM
      1 C1         -0.7410   -0.6390   -3.7100 c1        1 058     -0.090000
      2 F1         -3.0320   -3.2540    0.4610 f         1 058     -0.115000
      3 N1          1.0790   -0.6970    0.0360 n2        1 058     -0.147000
      4 O1         -0.6120   -0.0530    3.0470 o         1 058     -0.535000
      5 CL1        -1.4970   -0.3900   -5.2760 cl        1 058     -0.071000
      6 C2          0.6490   -0.5870   -3.7130 c1        1 058     -0.143833
      7 O2          0.1590   -2.0790    2.8400 o         1 058     -0.535000
      8 C3          1.3470   -0.5960   -2.5120 c1        1 058     -0.143833
      9 C4         -1.4360   -0.7030   -2.4980 c1        1 058     -0.085000
     10 C5         -0.0290   -0.7720    0.8470 c1        1 058      0.009000
     11 C6         -1.1520   -0.7820    0.0380 c1        1 058     -0.104500
     12 C7         -0.7300   -0.7130   -1.2820 c1        1 058     -0.104500
     13 C8          0.6440   -0.6600   -1.2850 c1        1 058      0.009000
     14 C9          2.4550   -0.7320    0.4720 c2        1 058      0.012000
     15 C10        -0.1820   -0.9830    2.3220 c1        1 058      0.375000
     16 C11        -2.6180   -0.7700    0.4060 c1        1 058      0.013000
     17 C12        -3.2330    0.4210    0.7650 c2        1 058     -0.097000
     18 C13        -4.5710    0.4270    1.1260 c1        1 058     -0.150000
     19 C14        -5.2950   -0.7560    1.1280 c1        1 058     -0.143833
     20 C15        -4.6780   -1.9480    0.7680 c1        1 058     -0.143833
     21 C16        -3.3430   -1.9550    0.4080 c1        1 058      0.074000
     22 C17         2.9630    0.6870    0.6580 c2        1 058     -0.099000
     23 C18         3.6390    1.3230   -0.3750 c2        1 058     -0.126000
     24 C19         4.1790    2.5860   -0.1770 c1        1 058     -0.149000
     25 C20         4.0440    3.2130    1.0520 c1        1 058     -0.143833
     26 C21         3.3690    2.5790    2.0830 c1        1 058     -0.143833
     27 C22         2.8280    1.3120    1.8850 c1        1 058     -0.097000
     28 H2          1.1280   -0.6360   -4.5480 ha        1 058      0.122833
     29 H3          2.3230   -0.5590   -2.5140 ha        1 058      0.122833
     30 H4         -2.4150   -0.7830   -2.4970 ha        1 058      0.147000
     31 H9          2.5170   -1.2120    1.3180 ha        1 058      0.121000
     32 H9A         3.0020   -1.1900   -0.2060 ha        1 058      0.121000
     33 H12        -2.7280    1.2440    0.7670 ha        1 058      0.195000
     34 H13        -5.0040    1.2650    1.3790 ha        1 058      0.124000
     35 H14        -6.2340   -0.7520    1.3810 ha        1 058      0.122833
     36 H15        -5.1750   -2.7840    0.8070 ha        1 058      0.122833
     37 H18         3.7350    0.8810   -1.2410 ha        1 058      0.119000
     38 H19         4.6460    3.0250   -0.8900 ha        1 058      0.115000
     39 H20         4.3520    4.1390    1.1650 ha        1 058      0.122833
     40 H21         3.2740    3.0230    2.9510 ha        1 058      0.122833
     41 H22         2.3750    0.8580    2.6150 ha        1 058      0.197000
@<TRIPOS>BOND
     1    1    5 1   
     2    1    9 1   
     3    2   21 1   
     4    3   10 1   
     5    3   13 1   
     6    4   15 1   
     7    6    8 1   
     8    6   28 1   
     9    7   15 1   
    10    8   29 1   
    11    9   30 1   
    12   10   11 1   
    13   11   12 1   
    14   12   13 1   
    15   14   22 1   
    16   14   31 1   
    17   14   32 1   
    18   16   17 1   
    19   16   21 1   
    20   17   18 1   
    21   17   33 1   
    22   18   34 1   
    23   19   20 1   
    24   19   35 1   
    25   20   36 1   
    26   22   23 1   
    27   22   27 1   
    28   23   24 1   
    29   23   37 1   
    30   24   38 1   
    31   25   26 1   
    32   25   39 1   
    33   26   40 1   
    34   27   41 1   
@<TRIPOS>SUBSTRUCTURE
     1 058         1 TEMP              0 ****  ****    0 ROOT
