@<TRIPOS>MOLECULE
058
   41    44     1     0     0
SMALL
bcc


@<TRIPOS>ATOM
      1 C1         -0.0260   -0.1830    0.0510 ca        1 058     -0.011600
      2 F1         -2.5040   -1.9790    2.9140 f         1 058     -0.149900
      3 N1          1.7970    0.0800    3.7630 na        1 058     -0.055400
      4 O1          1.4300   -0.7950    6.7070 o         1 058     -0.800300
      5 CL1        -0.8470   -0.2920   -1.4490 cl        1 058     -0.149400
      6 C2          1.3750   -0.0710    0.0410 ca        1 058     -0.139000
      7 O2          0.4990    1.2440    6.6650 o         1 058     -0.800300
      8 C3          2.0820    0.0230    1.2310 ca        1 058     -0.133000
      9 C4         -0.7620   -0.2080    1.2320 ca        1 058     -0.085000
     10 C5          0.6780    0.0520    4.6080 cc        1 058     -0.017300
     11 C6         -0.4910   -0.0870    3.8340 cd        1 058     -0.148400
     12 C7         -0.0810   -0.1170    2.4440 ca        1 058     -0.048800
     13 C8          1.3650    0.0030    2.4350 ca        1 058     -0.056200
     14 C9          3.1590    0.1970    4.2000 c3        1 058      0.078600
     15 C10         0.8670    0.1650    6.1250 c         1 058      0.924800
     16 C11        -1.8420   -0.1370    4.3360 ca        1 058      0.001200
     17 C12        -2.2330    0.7570    5.3490 ca        1 058     -0.097000
     18 C13        -3.5320    0.7660    5.8450 ca        1 058     -0.150000
     19 C14        -4.4830   -0.1220    5.3430 ca        1 058     -0.133000
     20 C15        -4.1280   -1.0330    4.3560 ca        1 058     -0.184000
     21 C16        -2.8100   -1.0520    3.8560 ca        1 058      0.108900
     22 C17         3.7020    1.6000    4.2210 ca        1 058     -0.106300
     23 C18         4.7800    1.9490    3.4040 ca        1 058     -0.111500
     24 C19         5.3130    3.2370    3.4590 ca        1 058     -0.142500
     25 C20         4.7650    4.1820    4.3250 ca        1 058     -0.138000
     26 C21         3.6830    3.8370    5.1370 ca        1 058     -0.142500
     27 C22         3.1500    2.5500    5.0890 ca        1 058     -0.111500
     28 H2          1.9140   -0.0550   -0.9160 ha        1 058      0.126000
     29 H3          3.1750    0.1190    1.2300 ha        1 058      0.126000
     30 H4         -1.8570   -0.3100    1.2220 ha        1 058      0.147000
     31 H9          3.7980   -0.4400    3.5220 h1        1 058      0.081700
     32 H9A         3.2110   -0.2240    5.2530 h1        1 058      0.081700
     33 H12        -1.4670    1.4400    5.7710 ha        1 058      0.195000
     34 H13        -3.8050    1.4740    6.6400 ha        1 058      0.124000
     35 H14        -5.5110   -0.1120    5.7320 ha        1 058      0.115000
     36 H15        -4.8590   -1.7510    3.9620 ha        1 058      0.126000
     37 H18         5.2090    1.2080    2.7130 ha        1 058      0.158000
     38 H19         6.1620    3.5060    2.8160 ha        1 058      0.122000
     39 H20         5.1830    5.1970    4.3670 ha        1 058      0.115000
     40 H21         3.2460    4.5810    5.8180 ha        1 058      0.122000
     41 H22         2.2890    2.2720    5.7320 ha        1 058      0.158000
@<TRIPOS>BOND
     1    1    5 1   
     2    1    6 ar  
     3    1    9 ar  
     4    2   21 1   
     5    3   10 1   
     6    3   13 1   
     7    3   14 1   
     8    4   15 1   
     9    6    8 ar  
    10    6   28 1   
    11    7   15 1   
    12    8   13 ar  
    13    8   29 1   
    14    9   12 ar  
    15    9   30 1   
    16   10   11 2   
    17   10   15 1   
    18   11   12 1   
    19   11   16 1   
    20   12   13 ar  
    21   14   22 1   
    22   14   31 1   
    23   14   32 1   
    24   16   17 ar  
    25   16   21 ar  
    26   17   18 ar  
    27   17   33 1   
    28   18   19 ar  
    29   18   34 1   
    30   19   20 ar  
    31   19   35 1   
    32   20   21 ar  
    33   20   36 1   
    34   22   23 ar  
    35   22   27 ar  
    36   23   24 ar  
    37   23   37 1   
    38   24   25 ar  
    39   24   38 1   
    40   25   26 ar  
    41   25   39 1   
    42   26   27 ar  
    43   26   40 1   
    44   27   41 1   
@<TRIPOS>SUBSTRUCTURE
     1 058         1 TEMP              0 ****  ****    0 ROOT
