@<TRIPOS>MOLECULE
059
   63    64     1     0     0
SMALL
bcc


@<TRIPOS>ATOM
      1 C36         0.6530   -1.0140    0.1030 ca        1 059     -0.132000
      2 C37         1.9630   -1.4190   -0.1520 ca        1 059     -0.138500
      3 C38         2.4490   -2.6030    0.4010 ca        1 059     -0.134000
      4 C39         1.6210   -3.3810    1.2110 ca        1 059     -0.138500
      5 C40         0.3120   -2.9800    1.4710 ca        1 059     -0.132000
      6 C35        -0.1800   -1.7910    0.9150 ca        1 059     -0.074300
      7 C34        -1.5720   -1.3500    1.2100 c3        1 059      0.005900
      8 C33        -2.6030   -2.3540    0.7380 c3        1 059     -0.319600
      9 S32        -4.1790   -2.0510    1.3630 s6        1 059      1.433900
     10 O32        -5.0070   -1.7410    0.2560 o         1 059     -0.658800
     11 O33        -4.1040   -1.0790    2.3850 o         1 059     -0.658800
     12 N31        -4.6480   -3.4920    1.9540 n3        1 059     -0.889100
     13 C27        -4.6060   -3.8170    3.3510 c3        1 059     -0.036700
     14 C28        -5.9310   -4.2090    4.0230 c3        1 059     -0.065700
     15 C30        -6.4130   -3.1010    4.9430 c3        1 059     -0.094100
     16 C29        -7.0530   -4.5820    3.0760 c3        1 059     -0.094100
     17 P24        -3.4350   -5.0050    3.6690 p5        1 059      1.286400
     18 O25        -3.2130   -5.2020    5.1330 o         1 059     -0.907500
     19 O26        -2.0940   -4.6120    3.1010 o         1 059     -0.907500
     20 C15        -3.9820   -6.4460    2.9550 c3        1 059     -0.358600
     21 C1         -2.9260   -7.1570    2.1210 c3        1 059     -0.061400
     22 C2         -3.5930   -8.0800    1.1290 c         1 059      0.628100
     23 O14        -4.3270   -9.0400    1.3670 o         1 059     -0.496000
     24 O13        -3.4070   -7.8670   -0.2090 oh        1 059     -0.582100
     25 C3         -1.9480   -7.9130    2.9800 ca        1 059     -0.088300
     26 C8         -0.8180   -7.1880    3.3830 ca        1 059     -0.094000
     27 C4         -2.2170   -9.1430    3.5870 ca        1 059     -0.079000
     28 C5         -1.4270   -9.5710    4.6590 ca        1 059     -0.130000
     29 C6         -0.4760   -8.7180    5.2220 ca        1 059     -0.094000
     30 C7         -0.2100   -7.4940    4.6040 ca        1 059     -0.163300
     31 C9          0.4850   -6.3600    5.2880 c3        1 059      0.186100
     32 N10        -0.4850   -5.2390    5.4780 n4        1 059     -0.882600
     33 H36         0.2740   -0.0800   -0.3380 ha        1 059      0.155000
     34 H37         2.6110   -0.8030   -0.7910 ha        1 059      0.123000
     35 H38         3.4810   -2.9230    0.1970 ha        1 059      0.127000
     36 H39         2.0020   -4.3180    1.6410 ha        1 059      0.123000
     37 H40        -0.3500   -3.5980    2.1080 ha        1 059      0.155000
     38 H341       -1.7730   -0.3540    0.7300 hc        1 059      0.062700
     39 H342       -1.6750   -1.2080    2.3230 hc        1 059      0.062700
     40 H331       -2.2110   -3.3770    1.0030 h1        1 059      0.130200
     41 H332       -2.6350   -2.3340   -0.3850 h1        1 059      0.130200
     42 HN31       -2.8110   -7.1180   -0.3500 ho        1 059      0.427000
     43 H27        -4.2520   -2.8770    3.8920 h1        1 059      0.115700
     44 H28        -5.7050   -5.1120    4.6680 hc        1 059      0.058700
     45 H301       -5.6540   -2.8940    5.7360 hc        1 059      0.040033
     46 H302       -6.5910   -2.1620    4.3670 hc        1 059      0.040033
     47 H303       -7.3670   -3.4020    5.4390 hc        1 059      0.040033
     48 H291       -7.3760   -3.7030    2.4680 hc        1 059      0.040033
     49 H292       -6.7610   -5.4090    2.3860 hc        1 059      0.040033
     50 H293       -7.9350   -4.9310    3.6690 hc        1 059      0.040033
     51 H151       -4.3300   -7.1430    3.7630 hc        1 059      0.096200
     52 H152       -4.8780   -6.2760    2.3060 hc        1 059      0.096200
     53 H1         -2.3600   -6.3480    1.5660 hc        1 059      0.093700
     54 H8         -0.5090   -6.2900    2.8150 ha        1 059      0.173000
     55 H4         -3.0710   -9.7510    3.2410 ha        1 059      0.172000
     56 H5         -1.6090  -10.5590    5.1080 ha        1 059      0.144000
     57 H6          0.0350   -8.9980    6.1540 ha        1 059      0.135000
     58 H91         0.8770   -6.6720    6.2960 hx        1 059      0.083200
     59 H92         1.3390   -5.9750    4.6620 hx        1 059      0.083200
     60 H101       -0.0240   -4.4300    5.8780 hn        1 059      0.479133
     61 H102       -1.2790   -5.5260    6.0790 hn        1 059      0.479133
     62 H312       -5.2590   -4.0660    1.4190 hn        1 059      0.444800
     63 H103       -0.9570   -4.9650    4.5550 hn        1 059      0.479133
@<TRIPOS>BOND
     1    1    2 ar  
     2    1    6 ar  
     3    1   33 1   
     4    2    3 ar  
     5    2   34 1   
     6    3    4 ar  
     7    3   35 1   
     8    4    5 ar  
     9    4   36 1   
    10    5    6 ar  
    11    5   37 1   
    12    6    7 1   
    13    7    8 1   
    14    7   38 1   
    15    7   39 1   
    16    8    9 1   
    17    8   40 1   
    18    8   41 1   
    19    9   10 2   
    20    9   11 2   
    21    9   12 1   
    22   12   13 1   
    23   12   62 1   
    24   13   14 1   
    25   13   17 1   
    26   13   43 1   
    27   14   15 1   
    28   14   16 1   
    29   14   44 1   
    30   15   45 1   
    31   15   46 1   
    32   15   47 1   
    33   16   48 1   
    34   16   49 1   
    35   16   50 1   
    36   17   18 1   
    37   17   19 1   
    38   17   20 1   
    39   20   21 1   
    40   20   51 1   
    41   20   52 1   
    42   21   22 1   
    43   21   25 1   
    44   21   53 1   
    45   22   23 2   
    46   22   24 1   
    47   24   42 1   
    48   25   26 ar  
    49   25   27 ar  
    50   26   30 ar  
    51   26   54 1   
    52   27   28 ar  
    53   27   55 1   
    54   28   29 ar  
    55   28   56 1   
    56   29   30 ar  
    57   29   57 1   
    58   30   31 1   
    59   31   32 1   
    60   31   58 1   
    61   31   59 1   
    62   32   60 1   
    63   32   61 1   
    64   32   63 1   
@<TRIPOS>SUBSTRUCTURE
     1 059         1 TEMP              0 ****  ****    0 ROOT
