@<TRIPOS>MOLECULE
059
   63    64     1     0     0
SMALL
bcc


@<TRIPOS>ATOM
      1 C36         0.1390   -0.8930   -0.6330 ca        1 059     -0.124500
      2 C37         1.4170   -1.1300   -1.1380 ca        1 059     -0.132000
      3 C38         2.3750   -1.7660   -0.3500 ca        1 059     -0.133000
      4 C39         2.0520   -2.1650    0.9480 ca        1 059     -0.132000
      5 C40         0.7760   -1.9290    1.4550 ca        1 059     -0.124500
      6 C35        -0.1900   -1.2910    0.6680 ca        1 059     -0.071300
      7 C34        -1.5470   -1.0250    1.2180 c3        1 059     -0.010100
      8 C33        -2.3210   -2.3040    1.4600 c3        1 059     -0.321600
      9 S32        -3.8930   -1.9660    2.0620 s6        1 059      1.442900
     10 O32        -4.6210   -1.3320    1.0280 o         1 059     -0.660300
     11 O33        -3.7800   -1.2530    3.2760 o         1 059     -0.660300
     12 N31        -4.5210   -3.4480    2.2930 n7        1 059     -0.890100
     13 C27        -4.6760   -4.0380    3.5920 c3        1 059     -0.037700
     14 C28        -6.0690   -4.5650    3.9680 c3        1 059     -0.065700
     15 C30        -6.7390   -3.6400    4.9700 c3        1 059     -0.094100
     16 C29        -7.0160   -4.7930    2.8070 c3        1 059     -0.094100
     17 P24        -3.5190   -5.2530    3.8600 p5        1 059      1.282400
     18 O25        -3.5370   -5.7550    5.2670 o         1 059     -0.905500
     19 O26        -2.1270   -4.7190    3.6300 o         1 059     -0.905500
     20 C15        -3.8610   -6.5190    2.7810 c3        1 059     -0.356600
     21 C1         -2.6440   -7.0210    2.0170 c3        1 059     -0.061400
     22 C2         -3.0850   -7.7240    0.7550 c         1 059      0.628100
     23 O14        -3.7960   -8.7250    0.6590 o         1 059     -0.497000
     24 O13        -2.6880   -7.2290   -0.4560 oh        1 059     -0.583100
     25 C3         -1.7840   -7.9230    2.8610 ca        1 059     -0.088300
     26 C8         -0.7770   -7.2790    3.5910 ca        1 059     -0.093000
     27 C4         -2.0870   -9.2570    3.1500 ca        1 059     -0.080000
     28 C5         -1.4660   -9.8850    4.2340 ca        1 059     -0.131000
     29 C6         -0.6680   -9.1520    5.1150 ca        1 059     -0.095000
     30 C7         -0.3660   -7.8220    4.8120 ca        1 059     -0.163300
     31 C9          0.1440   -6.8430    5.8210 c3        1 059      0.186100
     32 N10        -0.9010   -5.8020    6.0600 nz        1 059     -0.884600
     33 H36        -0.6140   -0.3900   -1.2590 ha        1 059      0.136000
     34 H37         1.6670   -0.8140   -2.1610 ha        1 059      0.128500
     35 H38         3.3820   -1.9510   -0.7490 ha        1 059      0.129000
     36 H39         2.8070   -2.6650    1.5720 ha        1 059      0.128500
     37 H40         0.5200   -2.2460    2.4780 ha        1 059      0.136000
     38 H341       -2.1270   -0.3710    0.5090 hc        1 059      0.065700
     39 H342       -1.4470   -0.4660    2.1900 hc        1 059      0.065700
     40 H331       -2.3620   -2.8820    0.5010 h1        1 059      0.131700
     41 H332       -1.7270   -2.9500    2.1720 h1        1 059      0.131700
     42 HN31       -5.1010   -3.8450    1.5880 hn        1 059      0.444800
     43 H27        -4.4410   -3.2190    4.3510 h1        1 059      0.115700
     44 H28        -5.9030   -5.5590    4.4830 hc        1 059      0.062700
     45 H301       -6.8800   -2.6230    4.5330 hc        1 059      0.039533
     46 H302       -7.7390   -4.0460    5.2570 hc        1 059      0.039533
     47 H303       -6.1180   -3.5500    5.8940 hc        1 059      0.039533
     48 H291       -7.2950   -3.8280    2.3190 hc        1 059      0.039533
     49 H292       -7.9540   -5.2690    3.1850 hc        1 059      0.039533
     50 H293       -6.5770   -5.4720    2.0370 hc        1 059      0.039533
     51 H151       -4.6420   -6.2290    2.0330 hc        1 059      0.095700
     52 H152       -4.3040   -7.3770    3.3540 hc        1 059      0.095700
     53 H1         -2.0370   -6.1020    1.7470 hc        1 059      0.094700
     54 H8         -0.4240   -6.2780    3.2780 ha        1 059      0.174000
     55 H4         -2.8380   -9.7930    2.5460 ha        1 059      0.171000
     56 H5         -1.6680  -10.9480    4.4360 ha        1 059      0.144000
     57 H6         -0.3050   -9.6110    6.0460 ha        1 059      0.135000
     58 H91         0.3780   -7.3500    6.7980 hx        1 059      0.082700
     59 H92         1.0690   -6.3220    5.4430 hx        1 059      0.082700
     60 H101       -0.5580   -5.0880    6.6910 hn        1 059      0.479467
     61 H102       -1.7700   -6.2220    6.4410 hn        1 059      0.479467
     62 H312       -2.1170   -6.4580   -0.3340 ho        1 059      0.428000
     63 H103       -1.2250   -5.3490    5.1430 hn        1 059      0.479467
@<TRIPOS>BOND
     1    1    2 ar  
     2    1    6 ar  
     3    1   33 1   
     4    2    3 ar  
     5    2   34 1   
     6    3    4 ar  
     7    3   35 1   
     8    4    5 ar  
     9    4   36 1   
    10    5    6 ar  
    11    5   37 1   
    12    6    7 1   
    13    7    8 1   
    14    7   38 1   
    15    7   39 1   
    16    8    9 1   
    17    8   40 1   
    18    8   41 1   
    19    9   10 2   
    20    9   11 2   
    21    9   12 1   
    22   12   13 1   
    23   12   42 1   
    24   13   14 1   
    25   13   17 1   
    26   13   43 1   
    27   14   15 1   
    28   14   16 1   
    29   14   44 1   
    30   15   45 1   
    31   15   46 1   
    32   15   47 1   
    33   16   48 1   
    34   16   49 1   
    35   16   50 1   
    36   17   18 1   
    37   17   19 1   
    38   17   20 1   
    39   20   21 1   
    40   20   51 1   
    41   20   52 1   
    42   21   22 1   
    43   21   25 1   
    44   21   53 1   
    45   22   23 2   
    46   22   24 1   
    47   24   62 1   
    48   25   26 ar  
    49   25   27 ar  
    50   26   30 ar  
    51   26   54 1   
    52   27   28 ar  
    53   27   55 1   
    54   28   29 ar  
    55   28   56 1   
    56   29   30 ar  
    57   29   57 1   
    58   30   31 1   
    59   31   32 1   
    60   31   58 1   
    61   31   59 1   
    62   32   60 1   
    63   32   61 1   
    64   32   63 1   
@<TRIPOS>SUBSTRUCTURE
     1 059         1 TEMP              0 ****  ****    0 ROOT
