@<TRIPOS>MOLECULE
059
   62    57     1     0     0
SMALL
bcc


@<TRIPOS>ATOM
      1 C36        -1.8030    5.7880   -3.1540 c1        1 059     -0.125000
      2 C37        -2.5870    6.3050   -4.1720 c1        1 059     -0.135667
      3 C38        -1.9930    6.9630   -5.2370 c1        1 059     -0.135667
      4 C39        -0.6180    7.1050   -5.2830 c1        1 059     -0.135667
      5 C40         0.1680    6.5880   -4.2630 c1        1 059     -0.135667
      6 C35        -0.4250    5.9300   -3.1990 c1        1 059     -0.061000
      7 C34         0.4280    5.4310   -2.0460 c3        1 059     -0.098000
      8 C33         0.7840    3.9730   -2.2730 c3        1 059     -0.853000
      9 S32         0.8360    3.1240   -0.7080 s4        1 059      2.029800
     10 O32         2.1540    3.1570   -0.1400 o         1 059     -0.543900
     11 O33         0.0850    3.8280    0.2920 o         1 059     -0.543900
     12 N31         0.2970    1.5710   -0.8810 n2        1 059     -0.866000
     13 C27         0.3140    0.6830    0.2340 c3        1 059     -0.637000
     14 C28        -1.0900    0.4900    0.7430 c3        1 059     -0.117000
     15 C30        -1.3250    1.3950    1.9310 c3        1 059     -0.209500
     16 C29        -2.0740    0.8310   -0.3520 c3        1 059     -0.209500
     17 P24         0.9960   -0.9190   -0.2780 p5        1 059      2.813000
     18 O25         2.5190   -0.7490   -0.6420 oh        1 059     -0.828000
     19 O26         0.2580   -1.4140   -1.4620 o         1 059     -1.150000
     20 C15         0.8270   -2.1150    1.0890 c3        1 059     -0.948000
     21 C1          1.3920   -3.4560    0.6620 c3        1 059     -0.137000
     22 C2          0.5140   -4.0530   -0.4110 c2        1 059      0.341000
     23 O14        -0.7400   -3.9270   -0.3440 o         1 059     -0.552000
     24 O13         1.0340   -4.6490   -1.3860 o         1 059     -0.552000
     25 C3          1.4360   -4.3880    1.8560 c2        1 059     -0.026000
     26 C8          0.3370   -5.1780    2.1590 c2        1 059     -0.099000
     27 C4          2.5910   -4.4900    2.6120 c1        1 059     -0.134000
     28 C5          2.6500   -5.3820    3.6720 c1        1 059     -0.135667
     29 C6          1.5530   -6.1710    3.9750 c1        1 059     -0.135667
     30 C7          0.3970   -6.0690    3.2190 c1        1 059     -0.139000
     31 C9         -0.8140   -6.9080    3.5720 c3        1 059     -0.052000
     32 N10        -1.1540   -6.6980    4.9390 n3        1 059     -0.336000
     33 H36        -2.2230    5.3600   -2.3850 ha        1 059      0.135000
     34 H37        -3.5510    6.1860   -4.1510 ha        1 059      0.123667
     35 H38        -2.5450    7.3430   -5.9430 ha        1 059      0.123667
     36 H39        -0.1990    7.5570   -6.0390 ha        1 059      0.123667
     37 H40         1.1330    6.7180   -4.2780 ha        1 059      0.123667
     38 H341        1.2450    5.9610   -1.9930 hc        1 059      0.106500
     39 H342       -0.0720    5.5180   -1.2090 hc        1 059      0.106500
     40 H331        1.6620    3.9150   -2.7060 h1        1 059      0.145500
     41 H332        0.1090    3.5590   -2.8470 h1        1 059      0.145500
     42 HN31        0.0200    1.2720   -1.7000 hn        1 059      0.270000
     43 H27         0.8680    1.0620    0.9430 h1        1 059      0.151000
     44 H28        -1.2140   -0.4420    1.0130 hc        1 059      0.100000
     45 H301       -1.3690    2.3280    1.6280 hc        1 059      0.077333
     46 H302       -2.1710    1.1520    2.3650 hc        1 059      0.077333
     47 H303       -0.5900    1.2930    2.5680 hc        1 059      0.077333
     48 H291       -2.7000    0.0880   -0.4710 hc        1 059      0.077333
     49 H292       -1.5910    0.9880   -1.1890 hc        1 059      0.077333
     50 H293       -2.5680    1.6370   -0.1070 hc        1 059      0.077333
     51 HO25        2.6720   -1.0950   -1.4530 ho        1 059      0.270000
     52 H151       -0.1220   -2.2180    1.3170 hc        1 059      0.173500
     53 H152        1.3160   -1.7890    1.8700 hc        1 059      0.173500
     54 H1          2.2940   -3.3320    0.3130 hc        1 059      0.094000
     55 H8         -0.4630   -5.1380    1.5980 ha        1 059      0.178000
     56 H4          3.3630   -3.9350    2.3980 ha        1 059      0.138000
     57 H5          3.4640   -5.4540    4.2050 ha        1 059      0.123667
     58 H6          1.5940   -6.7950    4.7230 ha        1 059      0.123667
     59 H91        -0.6090   -7.8510    3.4290 h1        1 059      0.096500
     60 H92        -1.5700   -6.6470    3.0030 h1        1 059      0.096500
     61 H101       -1.9940   -6.3390    4.9930 hn        1 059      0.132500
     62 H102       -1.1350   -7.4970    5.3830 hn        1 059      0.132500
@<TRIPOS>BOND
     1    1    6 1   
     2    1   33 1   
     3    2    3 1   
     4    2   34 1   
     5    3   35 1   
     6    4    5 1   
     7    4   36 1   
     8    5   37 1   
     9    6    7 1   
    10    7    8 1   
    11    7   38 1   
    12    7   39 1   
    13    8    9 1   
    14    8   40 1   
    15    8   41 1   
    16    9   10 1   
    17    9   11 1   
    18   12   13 1   
    19   12   42 1   
    20   13   14 1   
    21   13   17 1   
    22   13   43 1   
    23   14   15 1   
    24   14   16 1   
    25   14   44 1   
    26   15   45 1   
    27   15   46 1   
    28   15   47 1   
    29   16   48 1   
    30   16   49 1   
    31   16   50 1   
    32   17   18 1   
    33   17   19 1   
    34   17   20 1   
    35   18   51 1   
    36   20   21 1   
    37   20   52 1   
    38   20   53 1   
    39   21   22 1   
    40   21   25 1   
    41   21   54 1   
    42   22   23 1   
    43   22   24 1   
    44   25   26 1   
    45   25   27 1   
    46   26   30 1   
    47   26   55 1   
    48   27   56 1   
    49   28   29 1   
    50   28   57 1   
    51   29   58 1   
    52   30   31 1   
    53   31   32 1   
    54   31   59 1   
    55   31   60 1   
    56   32   61 1   
    57   32   62 1   
@<TRIPOS>SUBSTRUCTURE
     1 059         1 TEMP              0 ****  ****    0 ROOT
