@<TRIPOS>MOLECULE
059
   62    63     1     0     0
SMALL
bcc


@<TRIPOS>ATOM
      1 C36        -6.3610   -2.5510    0.4450 ca        1 059     -0.124500
      2 C37        -6.6770   -3.9090    0.4580 ca        1 059     -0.132000
      3 C38        -5.9250   -4.8100   -0.2940 ca        1 059     -0.138000
      4 C39        -4.8530   -4.3500   -1.0600 ca        1 059     -0.132000
      5 C40        -4.5350   -2.9940   -1.0750 ca        1 059     -0.124500
      6 C35        -5.2880   -2.0830   -0.3220 ca        1 059     -0.068300
      7 C34        -4.9550   -0.6330   -0.3510 c3        1 059     -0.009100
      8 C33        -3.6370   -0.3390    0.3310 c3        1 059     -0.313600
      9 S32        -3.2600    1.3500    0.2620 s6        1 059      1.456900
     10 O32        -3.3980    1.7720   -1.0790 o         1 059     -0.662800
     11 O33        -4.0930    1.9930    1.2080 o         1 059     -0.662800
     12 N31        -1.7350    1.3740    0.7590 n3        1 059     -0.904100
     13 C27        -0.5980    1.5470   -0.1050 c3        1 059     -0.049700
     14 C28         0.1300    2.9040    0.0000 c3        1 059     -0.078700
     15 C30         0.0000    3.6750   -1.3000 c3        1 059     -0.094100
     16 C29        -0.3140    3.7720    1.1590 c3        1 059     -0.094100
     17 P24         0.4980    0.3090    0.2420 p5        1 059      1.498100
     18 O25        -0.3860   -1.0340   -0.0520 oh        1 059     -0.814400
     19 O26         0.8090    0.1610    1.6640 o         1 059     -0.880300
     20 C15         1.6190    0.2690   -0.9270 c3        1 059     -0.454600
     21 C1          2.9620    0.8000   -0.4490 c3        1 059     -0.156400
     22 C2          3.2400    2.2130   -1.0740 c         1 059      0.912600
     23 O14         2.8820    2.4040   -2.2710 o         1 059     -0.817300
     24 O13         3.7580    3.0760   -0.3220 o         1 059     -0.817300
     25 C3          4.0670   -0.1320   -0.8140 ca        1 059     -0.028300
     26 C8          4.6940   -0.9110    0.1660 ca        1 059     -0.122000
     27 C4          4.4890   -0.2350   -2.1470 ca        1 059     -0.111000
     28 C5          5.5120   -1.1160   -2.4920 ca        1 059     -0.142000
     29 C6          6.1260   -1.8970   -1.5140 ca        1 059     -0.149000
     30 C7          5.7210   -1.7930   -0.1800 ca        1 059     -0.147300
     31 C9          6.4010   -2.6210    0.8730 c3        1 059      0.194100
     32 N10         6.2320   -4.0520    0.7620 n3        1 059     -0.902800
     33 H36        -6.9560   -1.8440    1.0420 ha        1 059      0.136500
     34 H37        -7.5210   -4.2680    1.0640 ha        1 059      0.126500
     35 H38        -6.1730   -5.8810   -0.2820 ha        1 059      0.124000
     36 H39        -4.2560   -5.0590   -1.6520 ha        1 059      0.126500
     37 H40        -3.6880   -2.6310   -1.6780 ha        1 059      0.136500
     38 H341       -4.9000   -0.2890   -1.4220 hc        1 059      0.064700
     39 H342       -5.7690   -0.0430    0.1520 hc        1 059      0.064700
     40 H331       -3.6950   -0.6910    1.3940 h1        1 059      0.118200
     41 H332       -2.8360   -0.9680   -0.1480 h1        1 059      0.118200
     42 HN31       -1.4810    1.4340    1.7220 hn        1 059      0.469800
     43 H27        -0.9750    1.4640   -1.1720 h1        1 059      0.114700
     44 H28         1.2340    2.6920    0.1510 hc        1 059      0.089700
     45 H301       -1.0670    3.7470   -1.6190 hc        1 059      0.043367
     46 H302        0.4070    4.7070   -1.1720 hc        1 059      0.043367
     47 H303        0.6020    3.1740   -2.1020 hc        1 059      0.043367
     48 H291       -0.1890    3.2460    2.1360 hc        1 059      0.043367
     49 H292        0.3200    4.6930    1.1850 hc        1 059      0.043367
     50 H293       -1.3790    4.0870    1.0470 hc        1 059      0.043367
     51 HO25       -0.4950   -1.5970    0.7090 ho        1 059      0.458000
     52 H151        1.7520   -0.7740   -1.3250 hc        1 059      0.131700
     53 H152        1.3610    0.8700   -1.8530 hc        1 059      0.131700
     54 H1          2.9370    0.9250    0.6710 hc        1 059      0.070700
     55 H8          4.3810   -0.8180    1.2170 ha        1 059      0.137000
     56 H4          4.0120    0.4170   -2.9010 ha        1 059      0.175000
     57 H5          5.8430   -1.1870   -3.5380 ha        1 059      0.117000
     58 H6          6.9390   -2.5850   -1.7880 ha        1 059      0.110000
     59 H91         7.5080   -2.4080    0.8330 h1        1 059      0.052700
     60 H92         6.0330   -2.3090    1.8920 h1        1 059      0.052700
     61 H101        5.2690   -4.3000    0.8890 hn        1 059      0.338800
     62 H102        6.5130   -4.3640   -0.1480 hn        1 059      0.338800
@<TRIPOS>BOND
     1    1    2 ar  
     2    1    6 ar  
     3    1   33 1   
     4    2    3 ar  
     5    2   34 1   
     6    3    4 ar  
     7    3   35 1   
     8    4    5 ar  
     9    4   36 1   
    10    5    6 ar  
    11    5   37 1   
    12    6    7 1   
    13    7    8 1   
    14    7   38 1   
    15    7   39 1   
    16    8    9 1   
    17    8   40 1   
    18    8   41 1   
    19    9   10 2   
    20    9   11 2   
    21    9   12 1   
    22   12   13 1   
    23   12   42 1   
    24   13   14 1   
    25   13   17 1   
    26   13   43 1   
    27   14   15 1   
    28   14   16 1   
    29   14   44 1   
    30   15   45 1   
    31   15   46 1   
    32   15   47 1   
    33   16   48 1   
    34   16   49 1   
    35   16   50 1   
    36   17   18 1   
    37   17   19 2   
    38   17   20 1   
    39   18   51 1   
    40   20   21 1   
    41   20   52 1   
    42   20   53 1   
    43   21   22 1   
    44   21   25 1   
    45   21   54 1   
    46   22   23 1   
    47   22   24 1   
    48   25   26 ar  
    49   25   27 ar  
    50   26   30 ar  
    51   26   55 1   
    52   27   28 ar  
    53   27   56 1   
    54   28   29 ar  
    55   28   57 1   
    56   29   30 ar  
    57   29   58 1   
    58   30   31 1   
    59   31   32 1   
    60   31   59 1   
    61   31   60 1   
    62   32   61 1   
    63   32   62 1   
@<TRIPOS>SUBSTRUCTURE
     1 059         1 TEMP              0 ****  ****    0 ROOT
