@<TRIPOS>MOLECULE
059
   64    65     1     0     0
SMALL
bcc


@<TRIPOS>ATOM
      1 C36         0.3850   -0.7180   -0.0940 ca        1 059     -0.115500
      2 C37         1.7700   -0.6580    0.0570 ca        1 059     -0.125000
      3 C38         2.3300   -0.4550    1.3180 ca        1 059     -0.114000
      4 C39         1.5020   -0.3100    2.4320 ca        1 059     -0.125000
      5 C40         0.1170   -0.3680    2.2860 ca        1 059     -0.115500
      6 C35        -0.4480   -0.5710    1.0210 ca        1 059     -0.103300
      7 C34        -1.9260   -0.6060    0.8640 c3        1 059      0.000900
      8 C33        -2.5020   -1.9190    1.3890 c3        1 059     -0.402600
      9 S32        -4.1450   -1.9660    1.1950 s6        1 059      1.392900
     10 O32        -4.5490   -1.9280   -0.1330 o         1 059     -0.582300
     11 O33        -4.8810   -1.2490    2.1220 o         1 059     -0.582300
     12 N31        -4.4860   -3.7560    1.5960 n4        1 059     -0.697900
     13 C27        -5.2220   -4.0240    2.8380 c3        1 059     -0.154700
     14 C28        -6.2760   -5.1370    2.7720 c3        1 059     -0.062700
     15 C30        -7.6600   -4.5480    2.5640 c3        1 059     -0.118100
     16 C29        -6.0270   -6.1970    1.7150 c3        1 059     -0.118100
     17 P24        -4.1500   -4.2660    4.1440 p5        1 059      1.501100
     18 O25        -5.0460   -4.0330    5.4430 oh        1 059     -0.798400
     19 O26        -3.1570   -3.1920    4.0290 o         1 059     -0.894300
     20 C15        -3.6370   -5.8110    4.2070 c3        1 059     -0.435600
     21 C1         -2.2540   -5.9510    3.5860 c3        1 059     -0.140400
     22 C2         -2.3540   -6.5910    2.1630 c         1 059      0.945600
     23 O14        -2.6930   -5.8200    1.2130 o         1 059     -0.839300
     24 O13        -2.1170   -7.8160    1.9760 o         1 059     -0.839300
     25 C3         -1.3260   -6.7650    4.4200 ca        1 059     -0.070300
     26 C8         -1.5280   -8.1490    4.4400 ca        1 059     -0.072000
     27 C4         -0.1690   -6.2410    5.0050 ca        1 059     -0.081000
     28 C5          0.8050   -7.1020    5.5200 ca        1 059     -0.127000
     29 C6          0.6920   -8.4820    5.3470 ca        1 059     -0.089000
     30 C7         -0.4670   -9.0010    4.7640 ca        1 059     -0.187300
     31 C9         -0.5720  -10.4010    4.2620 c3        1 059      0.185100
     32 N10        -0.7140  -10.3520    2.7630 n4        1 059     -0.860600
     33 H36        -0.0510   -0.8720   -1.0920 ha        1 059      0.136500
     34 H37         2.4210   -0.7680   -0.8240 ha        1 059      0.141000
     35 H38         3.4230   -0.4030    1.4330 ha        1 059      0.141000
     36 H39         1.9420   -0.1430    3.4260 ha        1 059      0.141000
     37 H40        -0.5340   -0.2490    3.1650 ha        1 059      0.136500
     38 H341       -2.1990   -0.4890   -0.2210 hc        1 059      0.070200
     39 H342       -2.3780    0.2510    1.4350 hc        1 059      0.070200
     40 H331       -2.1760   -2.0100    2.4780 h1        1 059      0.190200
     41 H332       -1.9420   -2.7560    0.8760 h1        1 059      0.190200
     42 HN31       -5.0120   -4.1480    0.8050 hn        1 059      0.480800
     43 H27        -5.8060   -3.0710    3.0770 hx        1 059      0.152700
     44 H28        -6.2700   -5.6300    3.7900 hc        1 059      0.061700
     45 H301       -7.7080   -3.9800    1.6040 hc        1 059      0.059533
     46 H302       -7.9300   -3.8600    3.4020 hc        1 059      0.059533
     47 H303       -8.4180   -5.3690    2.5250 hc        1 059      0.059533
     48 H291       -6.3590   -5.8420    0.7080 hc        1 059      0.059533
     49 H292       -4.9520   -6.5020    1.6410 hc        1 059      0.059533
     50 H293       -6.6300   -7.1060    1.9630 hc        1 059      0.059533
     51 HO25       -4.9310   -3.2130    5.9230 ho        1 059      0.503000
     52 H151       -3.5880   -6.1700    5.2750 hc        1 059      0.132700
     53 H152       -4.3140   -6.5610    3.7130 hc        1 059      0.132700
     54 H1         -1.8030   -4.9230    3.4490 hc        1 059      0.092700
     55 H8         -2.4950   -8.5540    4.0970 ha        1 059      0.148000
     56 H4         -0.0100   -5.1510    5.0390 ha        1 059      0.156000
     57 H5          1.6940   -6.6860    6.0180 ha        1 059      0.155000
     58 H6          1.5120   -9.1480    5.6560 ha        1 059      0.144000
     59 H91         0.3420  -11.0080    4.5140 hx        1 059      0.101200
     60 H92        -1.4870  -10.9160    4.6710 hx        1 059      0.101200
     61 H101        0.1700  -10.0620    2.3380 hn        1 059      0.469467
     62 H102       -0.9830  -11.2640    2.3970 hn        1 059      0.469467
     63 H312       -3.5930   -4.3110    1.6210 hn        1 059      0.480800
     64 H103       -1.4280   -9.6380    2.4970 hn        1 059      0.469467
@<TRIPOS>BOND
     1    1    2 ar  
     2    1    6 ar  
     3    1   33 1   
     4    2    3 ar  
     5    2   34 1   
     6    3    4 ar  
     7    3   35 1   
     8    4    5 ar  
     9    4   36 1   
    10    5    6 ar  
    11    5   37 1   
    12    6    7 1   
    13    7    8 1   
    14    7   38 1   
    15    7   39 1   
    16    8    9 1   
    17    8   40 1   
    18    8   41 1   
    19    9   10 2   
    20    9   11 2   
    21    9   12 1   
    22   12   13 1   
    23   12   42 1   
    24   12   63 1   
    25   13   14 1   
    26   13   17 1   
    27   13   43 1   
    28   14   15 1   
    29   14   16 1   
    30   14   44 1   
    31   15   45 1   
    32   15   46 1   
    33   15   47 1   
    34   16   48 1   
    35   16   49 1   
    36   16   50 1   
    37   17   18 1   
    38   17   19 2   
    39   17   20 1   
    40   18   51 1   
    41   20   21 1   
    42   20   52 1   
    43   20   53 1   
    44   21   22 1   
    45   21   25 1   
    46   21   54 1   
    47   22   23 1   
    48   22   24 1   
    49   25   26 ar  
    50   25   27 ar  
    51   26   30 ar  
    52   26   55 1   
    53   27   28 ar  
    54   27   56 1   
    55   28   29 ar  
    56   28   57 1   
    57   29   30 ar  
    58   29   58 1   
    59   30   31 1   
    60   31   32 1   
    61   31   59 1   
    62   31   60 1   
    63   32   61 1   
    64   32   62 1   
    65   32   64 1   
@<TRIPOS>SUBSTRUCTURE
     1 059         1 TEMP              0 ****  ****    0 ROOT
