@<TRIPOS>MOLECULE
05B
   51    56     1     0     0
SMALL
bcc


@<TRIPOS>ATOM
      1 C1         -4.6750   -0.0340   -0.0920 c3        1 05B      0.008300
      2 C2         -5.2280   -1.4330   -0.4900 c3        1 05B      0.107000
      3 N3         -4.6120   -2.5560    0.1570 n         1 05B     -0.576900
      4 C4         -3.2280   -2.6400    0.3220 c         1 05B      0.739100
      5 N5         -7.0760    1.6440    0.1720 n3        1 05B     -0.824200
      6 C6         -5.0930    0.9810   -1.1570 c3        1 05B     -0.072900
      7 C7         -5.2170    0.4030    1.2720 c3        1 05B     -0.072900
      8 C8         -6.7070    0.7380    1.2400 c3        1 05B      0.162300
      9 C9         -6.5990    1.2350   -1.1330 c3        1 05B      0.162300
     10 O10        -2.7040   -3.7340    0.6080 o         1 05B     -0.633500
     11 C11        -3.1870   -0.1490   -0.0050 cc        1 05B     -0.045600
     12 C12        -2.5070   -1.3780    0.1930 cd        1 05B     -0.229600
     13 C13        -1.1110   -1.0970    0.2550 cd        1 05B     -0.041000
     14 C14        -0.9700    0.2990    0.1010 cc        1 05B     -0.229800
     15 N15        -2.2520    0.8630   -0.0520 na        1 05B     -0.144100
     16 C16         0.2600    1.0790    0.0920 ca        1 05B      0.542800
     17 C17         0.2350    2.4890    0.2080 ca        1 05B     -0.387600
     18 C18         1.4760    3.1530    0.1940 ca        1 05B      0.441200
     19 N19         2.6490    2.5100    0.0810 nb        1 05B     -0.697000
     20 C20         2.5850    1.1390   -0.0210 cp        1 05B      0.716500
     21 N21         1.4350    0.3990   -0.0210 nb        1 05B     -0.691000
     22 C22         3.8710    0.4010   -0.1420 cp        1 05B     -0.147500
     23 C23         3.9530   -0.7130   -0.9830 ca        1 05B     -0.084000
     24 C24         5.1460   -1.4430   -1.1320 ca        1 05B     -0.126000
     25 C25         4.9840    0.8530    0.6040 ca        1 05B     -0.069000
     26 C26         6.1470    0.1290    0.4530 ca        1 05B      0.039100
     27 C27         6.2310   -1.0020   -0.4020 ca        1 05B      0.074100
     28 O28         7.5180   -1.5230   -0.3510 os        1 05B     -0.332900
     29 C29         8.2690   -0.6930    0.5670 c3        1 05B      0.321200
     30 O30         7.3830    0.3390    1.0580 os        1 05B     -0.332900
     31 H2         -6.3290   -1.4550   -0.2450 h1        1 05B      0.041700
     32 H2A        -5.1240   -1.5320   -1.6120 h1        1 05B      0.041700
     33 HN3        -5.1230   -3.4090    0.1520 hn        1 05B      0.317500
     34 HN5        -8.0710    1.7680    0.1520 hn        1 05B      0.368800
     35 H6         -4.5630    1.9520   -0.9770 hc        1 05B      0.056950
     36 H6A        -4.8040    0.6150   -2.1750 hc        1 05B      0.056950
     37 H7         -5.0520   -0.4150    2.0200 hc        1 05B      0.056950
     38 H7A        -4.6440    1.3040    1.6130 hc        1 05B      0.056950
     39 H8         -6.9760    1.2450    2.2110 h1        1 05B      0.032950
     40 H8A        -7.2920   -0.2290    1.1970 h1        1 05B      0.032950
     41 H9         -7.1210    0.3050   -1.5090 h1        1 05B      0.032950
     42 H9A        -6.8350    2.0690   -1.8540 h1        1 05B      0.032950
     43 H13        -0.3070   -1.8180    0.3970 ha        1 05B      0.188000
     44 HN15       -2.4410    1.8220   -0.1890 hn        1 05B      0.302700
     45 H17        -0.6930    3.0580    0.3190 ha        1 05B      0.144000
     46 H18         1.5330    4.2540    0.2770 h4        1 05B      0.029100
     47 H23         3.0680   -1.0440   -1.5500 ha        1 05B      0.156000
     48 H24         5.2040   -2.3170   -1.7930 ha        1 05B      0.159000
     49 H25         4.9290    1.7290    1.2630 ha        1 05B      0.170000
     50 H29         8.5960   -1.3240    1.4300 h2        1 05B      0.073200
     51 H29A        9.1060   -0.2090    0.0060 h2        1 05B      0.073200
@<TRIPOS>BOND
     1    1    2 1   
     2    1    6 1   
     3    1    7 1   
     4    1   11 1   
     5    2    3 1   
     6    2   31 1   
     7    2   32 1   
     8    3    4 1   
     9    3   33 1   
    10    4   10 2   
    11    4   12 1   
    12    5    8 1   
    13    5    9 1   
    14    5   34 1   
    15    6    9 1   
    16    6   35 1   
    17    6   36 1   
    18    7    8 1   
    19    7   37 1   
    20    7   38 1   
    21    8   39 1   
    22    8   40 1   
    23    9   41 1   
    24    9   42 1   
    25   11   12 2   
    26   11   15 1   
    27   12   13 1   
    28   13   14 2   
    29   13   43 1   
    30   14   15 1   
    31   14   16 1   
    32   15   44 1   
    33   16   17 ar  
    34   16   21 ar  
    35   17   18 ar  
    36   17   45 1   
    37   18   19 ar  
    38   18   46 1   
    39   19   20 ar  
    40   20   21 ar  
    41   20   22 1   
    42   22   23 ar  
    43   22   25 ar  
    44   23   24 ar  
    45   23   47 1   
    46   24   27 ar  
    47   24   48 1   
    48   25   26 ar  
    49   25   49 1   
    50   26   27 ar  
    51   26   30 1   
    52   27   28 1   
    53   28   29 1   
    54   29   30 1   
    55   29   50 1   
    56   29   51 1   
@<TRIPOS>SUBSTRUCTURE
     1 05B         1 TEMP              0 ****  ****    0 ROOT
