@<TRIPOS>MOLECULE
05B
   51    56     1     0     0
SMALL
bcc


@<TRIPOS>ATOM
      1 C1         -0.0770    0.0290    0.0220 c3        1 05B      0.008300
      2 C2         -0.8840    1.1200    0.7840 c3        1 05B      0.107000
      3 N3         -2.3040    1.1100    0.5710 n         1 05B     -0.576900
      4 C4         -2.8540    0.9360   -0.7000 c         1 05B      0.739100
      5 N5          1.8850   -0.9270    1.9950 n3        1 05B     -0.824200
      6 C6          1.3960    0.4410   -0.0120 c3        1 05B     -0.072900
      7 C7         -0.2110   -1.3320    0.7100 c3        1 05B     -0.072900
      8 C8          0.5150   -1.3960    2.0520 c3        1 05B      0.162300
      9 C9          2.0330    0.3740    1.3760 c3        1 05B      0.162300
     10 O10        -4.0490    1.2240   -0.9010 o         1 05B     -0.633500
     11 C11        -0.6460   -0.0680   -1.3560 cc        1 05B     -0.045600
     12 C12        -1.9560    0.3570   -1.6940 cd        1 05B     -0.229600
     13 C13        -2.1590    0.0830   -3.0790 cd        1 05B     -0.042000
     14 C14        -0.9700   -0.5120   -3.5530 cc        1 05B     -0.229800
     15 N15        -0.0570   -0.6010   -2.4840 na        1 05B     -0.144100
     16 C16        -0.6760   -0.9740   -4.9030 ca        1 05B      0.542800
     17 C17         0.4390   -1.8020   -5.1690 ca        1 05B     -0.387600
     18 C18         0.6350   -2.2000   -6.5030 ca        1 05B      0.441200
     19 N19        -0.1800   -1.8330   -7.5050 nb        1 05B     -0.697000
     20 C20        -1.2440   -1.0320   -7.1600 cp        1 05B      0.716500
     21 N21        -1.5230   -0.5860   -5.8970 nb        1 05B     -0.691000
     22 C22        -2.1670   -0.6130   -8.2500 cp        1 05B     -0.147500
     23 C23        -2.7040    0.6780   -8.2450 ca        1 05B     -0.084000
     24 C24        -3.5780    1.1210   -9.2530 ca        1 05B     -0.126000
     25 C25        -2.4760   -1.5420   -9.2700 ca        1 05B     -0.069000
     26 C26        -3.3370   -1.0990  -10.2510 ca        1 05B      0.039100
     27 C27        -3.8810    0.2120  -10.2460 ca        1 05B      0.074100
     28 O28        -4.7080    0.3710  -11.3510 os        1 05B     -0.332900
     29 C29        -4.6840   -0.8820  -12.0750 c3        1 05B      0.321200
     30 O30        -3.8140   -1.7900  -11.3620 os        1 05B     -0.332900
     31 H2         -0.7000    0.9830    1.8880 h1        1 05B      0.041700
     32 H2A        -0.4590    2.1250    0.4870 h1        1 05B      0.041700
     33 HN3        -2.8590    1.5810    1.2480 hn        1 05B      0.317500
     34 HN5         2.2850   -0.9190    2.9140 hn        1 05B      0.368800
     35 H6          1.9600   -0.2410   -0.6990 hc        1 05B      0.056950
     36 H6A         1.4960    1.4850   -0.4060 hc        1 05B      0.056950
     37 H7         -1.2940   -1.5620    0.8800 hc        1 05B      0.056950
     38 H7A         0.2060   -2.1210    0.0290 hc        1 05B      0.056950
     39 H8          0.5480   -2.4720    2.3860 h1        1 05B      0.032950
     40 H8A        -0.0950   -0.8290    2.8170 h1        1 05B      0.032950
     41 H9          1.5940    1.2030    2.0070 h1        1 05B      0.032950
     42 H9A         3.1370    0.5750    1.2750 h1        1 05B      0.032950
     43 H13        -3.0580    0.2870   -3.6580 ha        1 05B      0.188000
     44 HN15        0.8580   -0.9660   -2.5420 hn        1 05B      0.302700
     45 H17         1.1230   -2.1440   -4.3860 ha        1 05B      0.144000
     46 H18         1.4880   -2.8460   -6.7860 h4        1 05B      0.029100
     47 H23        -2.4470    1.3800   -7.4350 ha        1 05B      0.156000
     48 H24        -3.9960    2.1350   -9.2430 ha        1 05B      0.159000
     49 H25        -2.0560   -2.5570   -9.2830 ha        1 05B      0.170000
     50 H29        -5.7180   -1.3080  -12.0820 h2        1 05B      0.073200
     51 H29A       -4.2550   -0.6990  -13.0900 h2        1 05B      0.073200
@<TRIPOS>BOND
     1    1    2 1   
     2    1    6 1   
     3    1    7 1   
     4    1   11 1   
     5    2    3 1   
     6    2   31 1   
     7    2   32 1   
     8    3    4 1   
     9    3   33 1   
    10    4   10 2   
    11    4   12 1   
    12    5    8 1   
    13    5    9 1   
    14    5   34 1   
    15    6    9 1   
    16    6   35 1   
    17    6   36 1   
    18    7    8 1   
    19    7   37 1   
    20    7   38 1   
    21    8   39 1   
    22    8   40 1   
    23    9   41 1   
    24    9   42 1   
    25   11   12 2   
    26   11   15 1   
    27   12   13 1   
    28   13   14 2   
    29   13   43 1   
    30   14   15 1   
    31   14   16 1   
    32   15   44 1   
    33   16   17 ar  
    34   16   21 ar  
    35   17   18 ar  
    36   17   45 1   
    37   18   19 ar  
    38   18   46 1   
    39   19   20 ar  
    40   20   21 ar  
    41   20   22 1   
    42   22   23 ar  
    43   22   25 ar  
    44   23   24 ar  
    45   23   47 1   
    46   24   27 ar  
    47   24   48 1   
    48   25   26 ar  
    49   25   49 1   
    50   26   27 ar  
    51   26   30 1   
    52   27   28 1   
    53   28   29 1   
    54   29   30 1   
    55   29   50 1   
    56   29   51 1   
@<TRIPOS>SUBSTRUCTURE
     1 05B         1 TEMP              0 ****  ****    0 ROOT
