@<TRIPOS>MOLECULE
05B
   51    56     1     0     0
SMALL
bcc


@<TRIPOS>ATOM
      1 C1         -0.0740    0.0340    0.0210 c3        1 05B      0.008300
      2 C2         -0.8760    1.1300    0.7810 c3        1 05B      0.107000
      3 N3         -2.2950    1.1270    0.5670 n         1 05B     -0.576900
      4 C4         -2.8460    0.9550   -0.7040 c         1 05B      0.739100
      5 N5          1.8810   -0.9300    1.9970 n3        1 05B     -0.824200
      6 C6          1.4010    0.4380   -0.0120 c3        1 05B     -0.072900
      7 C7         -0.2160   -1.3260    0.7100 c3        1 05B     -0.072900
      8 C8          0.5080   -1.3910    2.0530 c3        1 05B      0.162300
      9 C9          2.0360    0.3690    1.3760 c3        1 05B      0.162300
     10 O10        -4.0390    1.2490   -0.9070 o         1 05B     -0.633500
     11 C11        -0.6420   -0.0620   -1.3580 cc        1 05B     -0.045600
     12 C12        -1.9500    0.3690   -1.6980 cd        1 05B     -0.229600
     13 C13        -2.1530    0.0940   -3.0810 cd        1 05B     -0.041000
     14 C14        -0.9670   -0.5070   -3.5540 cc        1 05B     -0.229800
     15 N15        -0.0560   -0.5990   -2.4840 na        1 05B     -0.144100
     16 C16        -0.6750   -0.9730   -4.9030 ca        1 05B      0.542800
     17 C17         0.4400   -1.8020   -5.1680 ca        1 05B     -0.387600
     18 C18         0.6350   -2.2030   -6.5020 ca        1 05B      0.441200
     19 N19        -0.1820   -1.8380   -7.5040 nb        1 05B     -0.697000
     20 C20        -1.2460   -1.0350   -7.1600 cp        1 05B      0.716500
     21 N21        -1.5230   -0.5870   -5.8980 nb        1 05B     -0.691000
     22 C22        -2.1690   -0.6190   -8.2490 cp        1 05B     -0.147500
     23 C23        -2.7060    0.6720   -8.2460 ca        1 05B     -0.084000
     24 C24        -3.5820    1.1130   -9.2540 ca        1 05B     -0.126000
     25 C25        -2.4800   -1.5510   -9.2660 ca        1 05B     -0.069000
     26 C26        -3.3420   -1.1100  -10.2470 ca        1 05B      0.039100
     27 C27        -3.8860    0.2020  -10.2450 ca        1 05B      0.074100
     28 O28        -4.7140    0.3580  -11.3500 os        1 05B     -0.332900
     29 C29        -4.6920   -0.8970  -12.0700 c3        1 05B      0.321200
     30 O30        -3.8210   -1.8040  -11.3560 os        1 05B     -0.332900
     31 H2         -0.4450    2.1330    0.4830 h1        1 05B      0.041700
     32 H2A        -0.6930    0.9930    1.8850 h1        1 05B      0.041700
     33 HN3        -2.8490    1.6020    1.2420 hn        1 05B      0.317500
     34 HN5         2.2810   -0.9230    2.9160 hn        1 05B      0.368800
     35 H6          1.5070    1.4810   -0.4070 hc        1 05B      0.056950
     36 H6A         1.9620   -0.2490   -0.6980 hc        1 05B      0.056950
     37 H7         -1.3010   -1.5500    0.8800 hc        1 05B      0.056950
     38 H7A         0.1970   -2.1180    0.0310 hc        1 05B      0.056950
     39 H8          0.5350   -2.4680    2.3890 h1        1 05B      0.032950
     40 H8A        -0.0990   -0.8200    2.8170 h1        1 05B      0.032950
     41 H9          1.6010    1.2010    2.0060 h1        1 05B      0.032950
     42 H9A         3.1420    0.5640    1.2760 h1        1 05B      0.032950
     43 H13        -3.0510    0.3020   -3.6620 ha        1 05B      0.188000
     44 HN15        0.8570   -0.9700   -2.5410 hn        1 05B      0.302700
     45 H17         1.1250   -2.1420   -4.3850 ha        1 05B      0.144000
     46 H18         1.4860   -2.8490   -6.7840 h4        1 05B      0.029100
     47 H23        -2.4480    1.3760   -7.4390 ha        1 05B      0.156000
     48 H24        -4.0000    2.1270   -9.2460 ha        1 05B      0.159000
     49 H25        -2.0600   -2.5650   -9.2780 ha        1 05B      0.170000
     50 H29        -5.7250   -1.3230  -12.0750 h2        1 05B      0.073200
     51 H29A       -4.2640   -0.7160  -13.0870 h2        1 05B      0.073200
@<TRIPOS>BOND
     1    1    2 1   
     2    1    6 1   
     3    1    7 1   
     4    1   11 1   
     5    2    3 1   
     6    2   31 1   
     7    2   32 1   
     8    3    4 1   
     9    3   33 1   
    10    4   10 2   
    11    4   12 1   
    12    5    8 1   
    13    5    9 1   
    14    5   34 1   
    15    6    9 1   
    16    6   35 1   
    17    6   36 1   
    18    7    8 1   
    19    7   37 1   
    20    7   38 1   
    21    8   39 1   
    22    8   40 1   
    23    9   41 1   
    24    9   42 1   
    25   11   12 2   
    26   11   15 1   
    27   12   13 1   
    28   13   14 2   
    29   13   43 1   
    30   14   15 1   
    31   14   16 1   
    32   15   44 1   
    33   16   17 ar  
    34   16   21 ar  
    35   17   18 ar  
    36   17   45 1   
    37   18   19 ar  
    38   18   46 1   
    39   19   20 ar  
    40   20   21 ar  
    41   20   22 1   
    42   22   23 ar  
    43   22   25 ar  
    44   23   24 ar  
    45   23   47 1   
    46   24   27 ar  
    47   24   48 1   
    48   25   26 ar  
    49   25   49 1   
    50   26   27 ar  
    51   26   30 1   
    52   27   28 1   
    53   28   29 1   
    54   29   30 1   
    55   29   50 1   
    56   29   51 1   
@<TRIPOS>SUBSTRUCTURE
     1 05B         1 TEMP              0 ****  ****    0 ROOT
