@<TRIPOS>MOLECULE
05B
   51    47     1     0     0
SMALL
bcc


@<TRIPOS>ATOM
      1 C1          1.6560    2.1700    2.6980 c3        1 05B     -0.071300
      2 C2          1.1390    3.3410    3.2820 c3        1 05B      0.108000
      3 N3         -0.2280    3.5230    3.2030 n         1 05B     -0.576900
      4 C4         -0.8100    3.4280    1.9610 c         1 05B      0.737700
      5 N5          3.3330    1.1360    4.8190 n3        1 05B     -0.798200
      6 C6          3.1260    2.2550    2.6080 c3        1 05B     -0.110900
      7 C7          1.1950    1.0410    3.5610 c3        1 05B     -0.110900
      8 C8          1.8520    1.0500    4.9100 c3        1 05B      0.149800
      9 C9          3.7880    2.2550    3.9700 c3        1 05B      0.149800
     10 O10        -1.8850    3.8630    1.7820 o         1 05B     -0.632500
     11 C11         0.9690    1.6700    1.3890 ce        1 05B      0.433600
     12 C12        -0.2220    2.3500    0.9770 ce        1 05B     -0.375900
     13 C13        -0.6170    1.8180   -0.2300 c1        1 05B      0.086200
     14 C14         0.3100    0.8080   -0.5890 cf        1 05B      0.012800
     15 N15         1.2820    0.7330    0.4250 nf        1 05B     -0.573300
     16 C16         0.3160    0.0800   -1.8120 ch        1 05B      0.400500
     17 C17         1.1980    0.4200   -2.8070 c1        1 05B     -0.065250
     18 C18         1.1820   -0.2570   -3.9930 c1        1 05B     -0.065250
     19 N19         0.3080   -1.2490   -4.1820 n1        1 05B     -0.496800
     20 C20        -0.5650   -1.5840   -3.1960 c1        1 05B      0.409800
     21 N21        -0.5480   -0.9010   -2.0020 n1        1 05B     -0.490800
     22 C22        -1.4980   -2.6080   -3.4020 c1        1 05B     -0.041000
     23 C23        -1.2660   -3.8760   -2.8700 c1        1 05B     -0.065250
     24 C24        -2.2230   -4.8930   -3.0340 c1        1 05B     -0.065250
     25 C25        -2.6890   -2.3470   -4.1010 c1        1 05B     -0.011500
     26 C26        -3.6490   -3.3740   -4.2630 c1        1 05B      0.040100
     27 C27        -3.4150   -4.6340   -3.7330 c1        1 05B      0.040100
     28 O28        -4.5760   -5.4310   -3.9650 os        1 05B     -0.315900
     29 C29        -5.4570   -4.6860   -4.7600 c3        1 05B      0.321200
     30 O30        -4.9160   -3.3990   -4.9120 os        1 05B     -0.315900
     31 H2          1.5690    4.1030    2.8540 h1        1 05B      0.045200
     32 H2A         1.3860    3.3430    4.2140 h1        1 05B      0.045200
     33 HN3        -0.6910    3.9430    3.9130 hn        1 05B      0.319500
     34 HN5         3.6630    0.3580    4.4950 hn        1 05B      0.351800
     35 H6          3.3580    3.0680    2.1540 hc        1 05B      0.053450
     36 H6A         3.4750    1.4590    2.0660 hc        1 05B      0.053450
     37 H7          0.1700    1.1150    3.6850 hc        1 05B      0.053450
     38 H7A         1.3980    0.2060    3.1220 hc        1 05B      0.053450
     39 H8          1.6180    0.2630    5.3650 h1        1 05B      0.057450
     40 H8A         1.5180    1.8310    5.4270 h1        1 05B      0.057450
     41 H9          3.5840    3.0930    4.4200 h1        1 05B      0.057450
     42 H9A         4.7510    2.1890    3.8510 h1        1 05B      0.057450
     43 H13        -1.3830    2.0820   -0.7380 DU        1 05B      0.219500
     44 HN15        1.9900    0.1680    0.4440 DU        1 05B      0.219500
     45 H17         1.7970    1.1040   -2.6750 ha        1 05B      0.098500
     46 H18         1.8400   -0.0060   -4.7370 ha        1 05B      0.098500
     47 H23        -0.4070   -4.0790   -2.4450 ha        1 05B      0.098500
     48 H24        -2.0580   -5.7900   -2.6560 ha        1 05B      0.098500
     49 H25        -2.8190   -1.4430   -4.5790 ha        1 05B      0.112500
     50 H29        -6.3180   -4.6200   -4.3070 h2        1 05B      0.073200
     51 H29A       -5.5310   -5.0890   -5.6010 h2        1 05B      0.073200
@<TRIPOS>BOND
     1    1    2 1   
     2    1    6 1   
     3    1    7 1   
     4    1   11 1   
     5    2    3 1   
     6    2   31 1   
     7    2   32 1   
     8    3    4 1   
     9    3   33 1   
    10    4   10 2   
    11    4   12 1   
    12    5    8 1   
    13    5    9 1   
    14    5   34 1   
    15    6    9 1   
    16    6   35 1   
    17    6   36 1   
    18    7    8 1   
    19    7   37 1   
    20    7   38 1   
    21    8   39 1   
    22    8   40 1   
    23    9   41 1   
    24    9   42 1   
    25   11   12 1   
    26   11   15 2   
    27   12   13 2   
    28   13   14 2   
    29   14   15 1   
    30   14   16 1   
    31   16   21 3   
    32   17   18 3   
    33   17   45 1   
    34   18   46 1   
    35   19   20 3   
    36   22   25 3   
    37   23   24 3   
    38   23   47 1   
    39   24   48 1   
    40   25   49 1   
    41   26   27 3   
    42   26   30 1   
    43   27   28 1   
    44   28   29 1   
    45   29   30 1   
    46   29   50 1   
    47   29   51 1   
@<TRIPOS>SUBSTRUCTURE
     1 05B         1 TEMP              0 ****  ****    0 ROOT
