@<TRIPOS>MOLECULE
05B
   51    56     1     0     0
SMALL
bcc


@<TRIPOS>ATOM
      1 C1         -0.0820    0.0230    0.0250 c3        1 05B      0.008300
      2 C2         -0.8960    1.1060    0.7910 c3        1 05B      0.107000
      3 N3         -2.3150    1.0900    0.5740 ns        1 05B     -0.576900
      4 C4         -2.8620    0.9190   -0.6990 c         1 05B      0.739100
      5 N5          1.8800   -0.9340    1.9970 n7        1 05B     -0.824200
      6 C6          1.3880    0.4420   -0.0040 c3        1 05B     -0.072900
      7 C7         -0.2110   -1.3430    0.7050 c3        1 05B     -0.072900
      8 C8          0.5120   -1.4100    2.0490 c3        1 05B      0.162300
      9 C9          2.0220    0.3710    1.3850 c3        1 05B      0.162300
     10 O10        -4.0580    1.2030   -0.9020 o         1 05B     -0.633500
     11 C11        -0.6470   -0.0710   -1.3560 cc        1 05B     -0.045600
     12 C12        -1.9590    0.3500   -1.6950 cd        1 05B     -0.229600
     13 C13        -2.1570    0.0810   -3.0800 cd        1 05B     -0.041000
     14 C14        -0.9640   -0.5040   -3.5550 cc        1 05B     -0.229800
     15 N15        -0.0540   -0.5940   -2.4850 na        1 05B     -0.144100
     16 C16        -0.6660   -0.9580   -4.9070 ca        1 05B      0.542800
     17 C17         0.4600   -1.7720   -5.1760 ca        1 05B     -0.387600
     18 C18         0.6600   -2.1620   -6.5130 ca        1 05B      0.441200
     19 N19        -0.1600   -1.8010   -7.5130 nb        1 05B     -0.697000
     20 C20        -1.2340   -1.0140   -7.1650 cp        1 05B      0.716500
     21 N21        -1.5170   -0.5770   -5.9000 nb        1 05B     -0.691000
     22 C22        -2.1620   -0.6030   -8.2520 cp        1 05B     -0.147500
     23 C23        -2.7150    0.6810   -8.2420 ca        1 05B     -0.084000
     24 C24        -3.5960    1.1170   -9.2480 ca        1 05B     -0.126000
     25 C25        -2.4600   -1.5320   -9.2750 ca        1 05B     -0.069000
     26 C26        -3.3270   -1.0960  -10.2540 ca        1 05B      0.039100
     27 C27        -3.8880    0.2080  -10.2440 ca        1 05B      0.074100
     28 O28        -4.7170    0.3610  -11.3480 os        1 05B     -0.332900
     29 C29        -4.6780   -0.8890  -12.0760 c3        1 05B      0.321200
     30 O30        -3.7960   -1.7890  -11.3670 os        1 05B     -0.332900
     31 H2         -0.7140    0.9630    1.8940 h1        1 05B      0.041700
     32 H2A        -0.4750    2.1150    0.5000 h1        1 05B      0.041700
     33 HN3        -2.8740    1.5540    1.2520 hn        1 05B      0.317500
     34 HN5         2.2780   -0.9290    2.9170 hn        1 05B      0.368800
     35 H6          1.4850    1.4890   -0.3920 hc        1 05B      0.056950
     36 H6A         1.9580   -0.2340   -0.6930 hc        1 05B      0.056950
     37 H7         -1.2940   -1.5790    0.8710 hc        1 05B      0.056950
     38 H7A         0.2110   -2.1260    0.0210 hc        1 05B      0.056950
     39 H8         -0.1020   -0.8500    2.8150 h1        1 05B      0.032950
     40 H8A         0.5490   -2.4880    2.3770 h1        1 05B      0.032950
     41 H9          1.5780    1.1940    2.0200 h1        1 05B      0.032950
     42 H9A         3.1260    0.5770    1.2880 h1        1 05B      0.032950
     43 H13        -3.0560    0.2840   -3.6610 ha        1 05B      0.188000
     44 HN15        0.8630   -0.9550   -2.5430 hn        1 05B      0.302700
     45 H17         1.1480   -2.1080   -4.3950 ha        1 05B      0.144000
     46 H18         1.5210   -2.7960   -6.7980 h4        1 05B      0.029100
     47 H23        -2.4660    1.3840   -7.4300 ha        1 05B      0.156000
     48 H24        -4.0260    2.1260   -9.2340 ha        1 05B      0.159000
     49 H25        -2.0280   -2.5410   -9.2930 ha        1 05B      0.170000
     50 H29        -4.2520   -0.6970  -13.0910 h2        1 05B      0.073200
     51 H29A       -5.7060   -1.3280  -12.0840 h2        1 05B      0.073200
@<TRIPOS>BOND
     1    1    2 1   
     2    1    6 1   
     3    1    7 1   
     4    1   11 1   
     5    2    3 1   
     6    2   31 1   
     7    2   32 1   
     8    3    4 1   
     9    3   33 1   
    10    4   10 2   
    11    4   12 1   
    12    5    8 1   
    13    5    9 1   
    14    5   34 1   
    15    6    9 1   
    16    6   35 1   
    17    6   36 1   
    18    7    8 1   
    19    7   37 1   
    20    7   38 1   
    21    8   39 1   
    22    8   40 1   
    23    9   41 1   
    24    9   42 1   
    25   11   12 2   
    26   11   15 1   
    27   12   13 1   
    28   13   14 2   
    29   13   43 1   
    30   14   15 1   
    31   14   16 1   
    32   15   44 1   
    33   16   17 ar  
    34   16   21 ar  
    35   17   18 ar  
    36   17   45 1   
    37   18   19 ar  
    38   18   46 1   
    39   19   20 ar  
    40   20   21 ar  
    41   20   22 1   
    42   22   23 ar  
    43   22   25 ar  
    44   23   24 ar  
    45   23   47 1   
    46   24   27 ar  
    47   24   48 1   
    48   25   26 ar  
    49   25   49 1   
    50   26   27 ar  
    51   26   30 1   
    52   27   28 1   
    53   28   29 1   
    54   29   30 1   
    55   29   50 1   
    56   29   51 1   
@<TRIPOS>SUBSTRUCTURE
     1 05B         1 TEMP              0 ****  ****    0 ROOT
