@<TRIPOS>MOLECULE
05L
   45    45     1     0     0
SMALL
bcc


@<TRIPOS>ATOM
      1 SE          0.0350   -0.8440    0.4800 ss        1 05L     -0.286200
      2 C1         -1.4290   -0.1810   -0.2900 c3        1 05L      0.184200
      3 C2         -2.5760   -1.1720   -0.0700 c3        1 05L      0.094100
      4 O2         -2.4240   -2.3320   -0.8720 oh        1 05L     -0.603800
      5 C3         -3.9070   -0.5400   -0.5130 c3        1 05L      0.110100
      6 O3         -5.0030   -1.3470   -0.1170 oh        1 05L     -0.605800
      7 C4         -4.0980    0.8230    0.1720 c3        1 05L      0.125100
      8 O4         -5.2310    1.4880   -0.3580 oh        1 05L     -0.594800
      9 C5         -2.8780    1.7100   -0.1070 c3        1 05L      0.091100
     10 O5         -1.6850    1.0620    0.3470 os        1 05L     -0.408600
     11 C6         -2.9630    3.0220    0.6790 c3        1 05L      0.141400
     12 O6         -1.8920    3.8800    0.3560 oh        1 05L     -0.594800
     13 C1'         1.3290    0.0700   -0.3150 c3        1 05L     -0.003300
     14 C2'         2.6330   -0.4010    0.2760 c3        1 05L     -0.073400
     15 C3'         3.8040    0.3210   -0.3580 c3        1 05L     -0.076400
     16 C4'         5.1170   -0.1460    0.2340 c3        1 05L     -0.079400
     17 C5'         6.2890    0.5730   -0.3970 c3        1 05L     -0.079400
     18 C6'         7.6030    0.1070    0.1940 c3        1 05L     -0.080400
     19 C7'         8.7740    0.8210   -0.4320 c3        1 05L     -0.093100
     20 H1         -1.2620   -0.0180   -1.3880 h2        1 05L      0.070700
     21 H2         -2.6340   -1.4610    1.0170 h1        1 05L      0.074700
     22 HO2        -1.5700   -2.7240   -0.6400 ho        1 05L      0.424000
     23 H3         -3.9140   -0.4180   -1.6320 h1        1 05L      0.064700
     24 HO3        -4.8530   -2.2230   -0.4970 ho        1 05L      0.427000
     25 H4         -4.2280    0.6700    1.2800 h1        1 05L      0.063700
     26 HO4        -5.9750    0.8780   -0.2610 ho        1 05L      0.425000
     27 H5         -2.7960    1.9200   -1.2080 h1        1 05L      0.068700
     28 H6         -3.8940    3.5700    0.3730 h1        1 05L      0.065200
     29 H6A        -2.9780    2.8080    1.7800 h1        1 05L      0.065200
     30 HO6        -1.0780    3.4210    0.6010 ho        1 05L      0.408000
     31 H1'         1.3060   -0.1070   -1.4180 h1        1 05L      0.067700
     32 H1'A        1.1850    1.1640   -0.1400 h1        1 05L      0.067700
     33 H2'         2.6350   -0.2190    1.3840 hc        1 05L      0.056700
     34 H2'A        2.7450   -1.5070    0.1190 hc        1 05L      0.056700
     35 H3'         3.8040    0.1400   -1.4650 hc        1 05L      0.042700
     36 H3'A        3.6930    1.4270   -0.2030 hc        1 05L      0.042700
     37 H4'         5.1150    0.0350    1.3410 hc        1 05L      0.041700
     38 H4'A        5.2260   -1.2520    0.0800 hc        1 05L      0.041700
     39 H5'         6.2900    0.3920   -1.5040 hc        1 05L      0.040200
     40 H5'A        6.1790    1.6790   -0.2430 hc        1 05L      0.040200
     41 H6'         7.5990    0.2880    1.3010 hc        1 05L      0.039200
     42 H6'A        7.7100   -0.9990    0.0400 hc        1 05L      0.039200
     43 H7'         9.7310    0.4630    0.0180 hc        1 05L      0.033367
     44 H7'A        8.8090    0.6330   -1.5320 hc        1 05L      0.033367
     45 H7'B        8.6970    1.9230   -0.2680 hc        1 05L      0.033367
@<TRIPOS>BOND
     1    1    2 1   
     2    1   13 1   
     3    2    3 1   
     4    2   10 1   
     5    2   20 1   
     6    3    4 1   
     7    3    5 1   
     8    3   21 1   
     9    4   22 1   
    10    5    6 1   
    11    5    7 1   
    12    5   23 1   
    13    6   24 1   
    14    7    8 1   
    15    7    9 1   
    16    7   25 1   
    17    8   26 1   
    18    9   10 1   
    19    9   11 1   
    20    9   27 1   
    21   11   12 1   
    22   11   28 1   
    23   11   29 1   
    24   12   30 1   
    25   13   14 1   
    26   13   31 1   
    27   13   32 1   
    28   14   15 1   
    29   14   33 1   
    30   14   34 1   
    31   15   16 1   
    32   15   35 1   
    33   15   36 1   
    34   16   17 1   
    35   16   37 1   
    36   16   38 1   
    37   17   18 1   
    38   17   39 1   
    39   17   40 1   
    40   18   19 1   
    41   18   41 1   
    42   18   42 1   
    43   19   43 1   
    44   19   44 1   
    45   19   45 1   
@<TRIPOS>SUBSTRUCTURE
     1 05L         1 TEMP              0 ****  ****    0 ROOT
