@<TRIPOS>MOLECULE
05L
   45    45     1     0     0
SMALL
bcc


@<TRIPOS>ATOM
      1 SE          0.2070   -0.7380    1.2210 ss        1 05L     -0.295200
      2 C1          2.0970   -0.7550    1.2200 c3        1 05L      0.184200
      3 C2          2.5900   -0.7860    2.6490 c3        1 05L      0.092100
      4 O2          2.2310    0.4740    3.3060 oh        1 05L     -0.604800
      5 C3          4.0420   -0.9700    2.7300 c3        1 05L      0.111100
      6 O3          4.4220   -1.1680    4.1370 oh        1 05L     -0.606800
      7 C4          4.5140   -2.1530    1.9260 c3        1 05L      0.121100
      8 O4          5.9480   -2.1590    1.9130 oh        1 05L     -0.595800
      9 C5          4.0160   -2.1180    0.5100 c3        1 05L      0.131100
     10 O5          2.5700   -1.9250    0.4290 os        1 05L     -0.394600
     11 C6          4.3760   -3.4430   -0.1700 c3        1 05L      0.136400
     12 O6          4.2300   -3.3120   -1.5610 oh        1 05L     -0.599800
     13 C1'        -0.4220    0.4350   -0.1630 c3        1 05L     -0.001300
     14 C2'        -1.9870    0.4910   -0.1320 c3        1 05L     -0.072400
     15 C3'        -2.4850    1.3660   -1.2570 c3        1 05L     -0.077400
     16 C4'        -4.0500    1.5030   -1.1630 c3        1 05L     -0.079400
     17 C5'        -4.5600    2.3400   -2.3490 c3        1 05L     -0.079400
     18 C6'        -6.1010    2.5290   -2.2340 c3        1 05L     -0.080400
     19 C7'        -6.6000    3.3250   -3.4160 c3        1 05L     -0.093100
     20 H1          2.4180    0.0580    0.7970 h2        1 05L      0.071700
     21 H2          2.1500   -1.5260    3.1210 h1        1 05L      0.074700
     22 HO2         1.8250    0.2970    4.0910 ho        1 05L      0.424000
     23 H3          4.4830   -0.1610    2.3930 h1        1 05L      0.064700
     24 HO3         4.9920   -0.5280    4.3820 ho        1 05L      0.427000
     25 H4          4.1890   -2.9960    2.3640 h1        1 05L      0.062700
     26 HO4         6.2380   -2.6780    2.5280 ho        1 05L      0.424000
     27 H5          4.4540   -1.3970    0.0440 h1        1 05L      0.076700
     28 H6          5.2940   -3.6750    0.0390 h1        1 05L      0.048200
     29 H6A         3.7830   -4.1430    0.1530 h1        1 05L      0.048200
     30 HO6         4.4820   -4.0770   -1.9620 ho        1 05L      0.403000
     31 H1'        -0.1280    0.1040   -1.0250 h1        1 05L      0.071700
     32 H1'A       -0.0610    1.3300   -0.0190 h1        1 05L      0.071700
     33 H2'        -2.3440   -0.4020   -0.2370 hc        1 05L      0.055200
     34 H2'A       -2.2870    0.8670    0.7360 hc        1 05L      0.055200
     35 H3'        -2.0860    2.2250   -1.1890 hc        1 05L      0.042700
     36 H3'A       -2.2440    0.9620   -2.1160 hc        1 05L      0.042700
     37 H4'        -4.4580    0.6120   -1.1920 hc        1 05L      0.041200
     38 H4'A       -4.2900    1.9440   -0.3250 hc        1 05L      0.041200
     39 H5'        -4.1200    3.2200   -2.3410 hc        1 05L      0.040200
     40 H5'A       -4.3460    1.8690   -3.2040 hc        1 05L      0.040200
     41 H6'        -6.3140    3.0120   -1.3980 hc        1 05L      0.038700
     42 H6'A       -6.5330    1.6620   -2.2240 hc        1 05L      0.038700
     43 H7'        -6.3120    2.8930   -4.2440 hc        1 05L      0.032700
     44 H7'A       -7.5860    3.3650   -3.3930 hc        1 05L      0.032700
     45 H7'B       -6.2370    4.2270   -3.3780 hc        1 05L      0.032700
@<TRIPOS>BOND
     1    1    2 1   
     2    1   13 1   
     3    2    3 1   
     4    2   10 1   
     5    2   20 1   
     6    3    4 1   
     7    3    5 1   
     8    3   21 1   
     9    4   22 1   
    10    5    6 1   
    11    5    7 1   
    12    5   23 1   
    13    6   24 1   
    14    7    8 1   
    15    7    9 1   
    16    7   25 1   
    17    8   26 1   
    18    9   10 1   
    19    9   11 1   
    20    9   27 1   
    21   11   12 1   
    22   11   28 1   
    23   11   29 1   
    24   12   30 1   
    25   13   14 1   
    26   13   31 1   
    27   13   32 1   
    28   14   15 1   
    29   14   33 1   
    30   14   34 1   
    31   15   16 1   
    32   15   35 1   
    33   15   36 1   
    34   16   17 1   
    35   16   37 1   
    36   16   38 1   
    37   17   18 1   
    38   17   39 1   
    39   17   40 1   
    40   18   19 1   
    41   18   41 1   
    42   18   42 1   
    43   19   43 1   
    44   19   44 1   
    45   19   45 1   
@<TRIPOS>SUBSTRUCTURE
     1 05L         1 TEMP              0 ****  ****    0 ROOT
