@<TRIPOS>MOLECULE
05L
   45    45     1     0     0
SMALL
bcc


@<TRIPOS>ATOM
      1 SE          0.1740   -0.1780   -0.2610 ss        1 05L     -0.295200
      2 C1          1.9530   -0.0750   -0.2240 c3        1 05L      0.184200
      3 C2          2.3900    0.0830    1.2360 c3        1 05L      0.092100
      4 O2          2.1080    1.3840    1.7290 oh        1 05L     -0.604800
      5 C3          3.9160   -0.0750    1.3490 c3        1 05L      0.111100
      6 O3          4.3120   -0.1700    2.7070 oh        1 05L     -0.606800
      7 C4          4.3660   -1.3790    0.6710 c3        1 05L      0.121100
      8 O4          5.7790   -1.4580    0.6360 oh        1 05L     -0.595800
      9 C5          3.8630   -1.3900   -0.7820 c3        1 05L      0.131100
     10 O5          2.4350   -1.2870   -0.7840 os        1 05L     -0.394600
     11 C6          4.1960   -2.7160   -1.4680 c3        1 05L      0.136400
     12 O6          4.2620   -2.4520   -2.8600 oh        1 05L     -0.599800
     13 C1'        -0.1800    0.0380   -1.9850 c3        1 05L     -0.001300
     14 C2'        -1.6680   -0.1310   -2.1600 c3        1 05L     -0.072400
     15 C3'        -2.0670    0.0720   -3.6080 c3        1 05L     -0.077400
     16 C4'        -3.5590   -0.1030   -3.7910 c3        1 05L     -0.079400
     17 C5'        -3.9610    0.1000   -5.2360 c3        1 05L     -0.079400
     18 C6'        -5.4530   -0.0750   -5.4210 c3        1 05L     -0.080400
     19 C7'        -5.8590    0.1260   -6.8590 c3        1 05L     -0.093100
     20 H1          2.3120    0.7950   -0.8340 h2        1 05L      0.071700
     21 H2          1.8780   -0.6880    1.8780 h1        1 05L      0.074700
     22 HO2         1.1590    1.5300    1.6100 ho        1 05L      0.424000
     23 H3          4.4240    0.8080    0.8700 h1        1 05L      0.064700
     24 HO3         3.9750    0.6220    3.1480 ho        1 05L      0.427000
     25 H4          3.9500   -2.2600    1.2360 h1        1 05L      0.062700
     26 HO4         6.0820   -1.3300    1.5460 ho        1 05L      0.424000
     27 H5          4.3110   -0.5330   -1.3560 h1        1 05L      0.076700
     28 H6          5.1940   -3.0770   -1.0990 h1        1 05L      0.048200
     29 H6A         3.4020   -3.4770   -1.2490 h1        1 05L      0.048200
     30 HO6         4.3630   -3.3060   -3.2950 ho        1 05L      0.403000
     31 H1'         0.3820   -0.7200   -2.5830 h1        1 05L      0.071700
     32 H1'A        0.1460    1.0520   -2.3200 h1        1 05L      0.071700
     33 H2'        -2.2140    0.6070   -1.5140 hc        1 05L      0.055200
     34 H2'A       -1.9740   -1.1580   -1.8260 hc        1 05L      0.055200
     35 H3'        -1.7640    1.0990   -3.9420 hc        1 05L      0.042700
     36 H3'A       -1.5180   -0.6630   -4.2550 hc        1 05L      0.042700
     37 H4'        -3.8610   -1.1310   -3.4560 hc        1 05L      0.041200
     38 H4'A       -4.1060    0.6300   -3.1410 hc        1 05L      0.041200
     39 H5'        -3.4130   -0.6330   -5.8850 hc        1 05L      0.040200
     40 H5'A       -3.6590    1.1270   -5.5700 hc        1 05L      0.040200
     41 H6'        -5.9990    0.6570   -4.7700 hc        1 05L      0.038700
     42 H6'A       -5.7530   -1.1030   -5.0850 hc        1 05L      0.038700
     43 H7'        -5.5900    1.1530   -7.2040 hc        1 05L      0.032700
     44 H7'A       -5.3430   -0.6110   -7.5210 hc        1 05L      0.032700
     45 H7'B       -6.9610   -0.0080   -6.9730 hc        1 05L      0.032700
@<TRIPOS>BOND
     1    1    2 1   
     2    1   13 1   
     3    2    3 1   
     4    2   10 1   
     5    2   20 1   
     6    3    4 1   
     7    3    5 1   
     8    3   21 1   
     9    4   22 1   
    10    5    6 1   
    11    5    7 1   
    12    5   23 1   
    13    6   24 1   
    14    7    8 1   
    15    7    9 1   
    16    7   25 1   
    17    8   26 1   
    18    9   10 1   
    19    9   11 1   
    20    9   27 1   
    21   11   12 1   
    22   11   28 1   
    23   11   29 1   
    24   12   30 1   
    25   13   14 1   
    26   13   31 1   
    27   13   32 1   
    28   14   15 1   
    29   14   33 1   
    30   14   34 1   
    31   15   16 1   
    32   15   35 1   
    33   15   36 1   
    34   16   17 1   
    35   16   37 1   
    36   16   38 1   
    37   17   18 1   
    38   17   39 1   
    39   17   40 1   
    40   18   19 1   
    41   18   41 1   
    42   18   42 1   
    43   19   43 1   
    44   19   44 1   
    45   19   45 1   
@<TRIPOS>SUBSTRUCTURE
     1 05L         1 TEMP              0 ****  ****    0 ROOT
