@<TRIPOS>MOLECULE
05L
   45    45     1     0     0
SMALL
bcc


@<TRIPOS>ATOM
      1 SE          0.1690   -0.1860   -0.2600 ss        1 05L     -0.295200
      2 C1          1.9480   -0.0800   -0.2180 c3        1 05L      0.184200
      3 C2          2.3810    0.0720    1.2440 c3        1 05L      0.092100
      4 O2          2.0940    1.3690    1.7420 oh        1 05L     -0.604800
      5 C3          3.9070   -0.0820    1.3590 c3        1 05L      0.111100
      6 O3          4.3010   -0.1830    2.7170 oh        1 05L     -0.606800
      7 C4          4.3620   -1.3820    0.6750 c3        1 05L      0.121100
      8 O4          5.7760   -1.4560    0.6420 oh        1 05L     -0.595800
      9 C5          3.8620   -1.3860   -0.7790 c3        1 05L      0.131100
     10 O5          2.4340   -1.2870   -0.7840 os        1 05L     -0.394600
     11 C6          4.2000   -2.7070   -1.4720 c3        1 05L      0.136400
     12 O6          4.2690   -2.4350   -2.8620 oh        1 05L     -0.599800
     13 C1'        -0.1830    0.0370   -1.9840 c3        1 05L     -0.001300
     14 C2'        -1.6690   -0.1330   -2.1620 c3        1 05L     -0.072400
     15 C3'        -2.0650    0.0720   -3.6100 c3        1 05L     -0.077400
     16 C4'        -3.5570   -0.1020   -3.7960 c3        1 05L     -0.079400
     17 C5'        -3.9570    0.1020   -5.2420 c3        1 05L     -0.079400
     18 C6'        -5.4490   -0.0710   -5.4310 c3        1 05L     -0.080400
     19 C7'        -5.8510    0.1310   -6.8690 c3        1 05L     -0.093100
     20 H1          2.3050    0.7950   -0.8230 h2        1 05L      0.071700
     21 H2          1.8700   -0.7040    1.8800 h1        1 05L      0.074700
     22 HO2         1.1450    1.5130    1.6230 ho        1 05L      0.424000
     23 H3          4.4140    0.8050    0.8850 h1        1 05L      0.064700
     24 HO3         3.9610    0.6050    3.1620 ho        1 05L      0.427000
     25 H4          3.9470   -2.2660    1.2340 h1        1 05L      0.062700
     26 HO4         6.0760   -1.3320    1.5530 ho        1 05L      0.424000
     27 H5          4.3090   -0.5250   -1.3480 h1        1 05L      0.076700
     28 H6          5.1980   -3.0680   -1.1030 h1        1 05L      0.048200
     29 H6A         3.4070   -3.4720   -1.2590 h1        1 05L      0.048200
     30 HO6         4.3740   -3.2870   -3.3020 ho        1 05L      0.403000
     31 H1'         0.1440    1.0530   -2.3130 h1        1 05L      0.071700
     32 H1'A        0.3810   -0.7180   -2.5840 h1        1 05L      0.071700
     33 H2'        -2.2180    0.6040   -1.5160 hc        1 05L      0.055200
     34 H2'A       -1.9760   -1.1610   -1.8310 hc        1 05L      0.055200
     35 H3'        -1.7610    1.1000   -3.9420 hc        1 05L      0.042700
     36 H3'A       -1.5160   -0.6620   -4.2570 hc        1 05L      0.042700
     37 H4'        -3.8610   -1.1290   -3.4630 hc        1 05L      0.041200
     38 H4'A       -4.1060    0.6310   -3.1470 hc        1 05L      0.041200
     39 H5'        -3.4090   -0.6310   -5.8910 hc        1 05L      0.040200
     40 H5'A       -3.6530    1.1290   -5.5750 hc        1 05L      0.040200
     41 H6'        -5.7510   -1.0980   -5.0950 hc        1 05L      0.038700
     42 H6'A       -5.9950    0.6620   -4.7800 hc        1 05L      0.038700
     43 H7'        -5.5800    1.1580   -7.2140 hc        1 05L      0.032700
     44 H7'A       -6.9540   -0.0010   -6.9850 hc        1 05L      0.032700
     45 H7'B       -5.3360   -0.6080   -7.5290 hc        1 05L      0.032700
@<TRIPOS>BOND
     1    1    2 1   
     2    1   13 1   
     3    2    3 1   
     4    2   10 1   
     5    2   20 1   
     6    3    4 1   
     7    3    5 1   
     8    3   21 1   
     9    4   22 1   
    10    5    6 1   
    11    5    7 1   
    12    5   23 1   
    13    6   24 1   
    14    7    8 1   
    15    7    9 1   
    16    7   25 1   
    17    8   26 1   
    18    9   10 1   
    19    9   11 1   
    20    9   27 1   
    21   11   12 1   
    22   11   28 1   
    23   11   29 1   
    24   12   30 1   
    25   13   14 1   
    26   13   31 1   
    27   13   32 1   
    28   14   15 1   
    29   14   33 1   
    30   14   34 1   
    31   15   16 1   
    32   15   35 1   
    33   15   36 1   
    34   16   17 1   
    35   16   37 1   
    36   16   38 1   
    37   17   18 1   
    38   17   39 1   
    39   17   40 1   
    40   18   19 1   
    41   18   41 1   
    42   18   42 1   
    43   19   43 1   
    44   19   44 1   
    45   19   45 1   
@<TRIPOS>SUBSTRUCTURE
     1 05L         1 TEMP              0 ****  ****    0 ROOT
