@<TRIPOS>MOLECULE
05L
   45    45     1     0     0
SMALL
bcc


@<TRIPOS>ATOM
      1 SE          0.1640   -0.2020   -0.2570 ss        1 05L     -0.295200
      2 C1          1.9420   -0.0840   -0.2110 c3        1 05L      0.184200
      3 C2          2.3720    0.0560    1.2520 c3        1 05L      0.092100
      4 O2          2.0770    1.3470    1.7640 oh        1 05L     -0.604800
      5 C3          3.9000   -0.0900    1.3690 c3        1 05L      0.111100
      6 O3          4.2920   -0.2020    2.7260 oh        1 05L     -0.606800
      7 C4          4.3630   -1.3790    0.6720 c3        1 05L      0.121100
      8 O4          5.7780   -1.4440    0.6410 oh        1 05L     -0.595800
      9 C5          3.8660   -1.3720   -0.7820 c3        1 05L      0.131100
     10 O5          2.4380   -1.2830   -0.7880 os        1 05L     -0.394600
     11 C6          4.2140   -2.6840   -1.4880 c3        1 05L      0.136400
     12 O6          4.2830   -2.3980   -2.8750 oh        1 05L     -0.599800
     13 C1'        -0.1860    0.0360   -1.9790 c3        1 05L     -0.001300
     14 C2'        -1.6710   -0.1440   -2.1620 c3        1 05L     -0.072400
     15 C3'        -2.0660    0.0740   -3.6080 c3        1 05L     -0.077400
     16 C4'        -3.5560   -0.1120   -3.7990 c3        1 05L     -0.079400
     17 C5'        -3.9550    0.1060   -5.2430 c3        1 05L     -0.079400
     18 C6'        -5.4450   -0.0800   -5.4360 c3        1 05L     -0.080400
     19 C7'        -5.8470    0.1370   -6.8720 c3        1 05L     -0.093100
     20 H1          2.2950    0.7990   -0.8070 h2        1 05L      0.071700
     21 H2          1.8650   -0.7300    1.8800 h1        1 05L      0.074700
     22 HO2         1.1270    1.4860    1.6440 ho        1 05L      0.424000
     23 H3          4.4010    0.8050    0.9050 h1        1 05L      0.064700
     24 HO3         3.9460    0.5800    3.1780 ho        1 05L      0.427000
     25 H4          3.9530   -2.2720    1.2220 h1        1 05L      0.062700
     26 HO4         6.0760   -1.3280    1.5540 ho        1 05L      0.424000
     27 H5          4.3080   -0.5030   -1.3420 h1        1 05L      0.076700
     28 H6          5.2130   -3.0420   -1.1210 h1        1 05L      0.048200
     29 H6A         3.4250   -3.4560   -1.2840 h1        1 05L      0.048200
     30 HO6         4.3940   -3.2450   -3.3230 ho        1 05L      0.403000
     31 H1'         0.1320    1.0580   -2.2980 h1        1 05L      0.071700
     32 H1'A        0.3850   -0.7080   -2.5860 h1        1 05L      0.071700
     33 H2'        -2.2270    0.5800   -1.5080 hc        1 05L      0.055200
     34 H2'A       -1.9690   -1.1790   -1.8430 hc        1 05L      0.055200
     35 H3'        -1.7720    1.1090   -3.9270 hc        1 05L      0.042700
     36 H3'A       -1.5090   -0.6460   -4.2630 hc        1 05L      0.042700
     37 H4'        -4.1130    0.6080   -3.1420 hc        1 05L      0.041200
     38 H4'A       -3.8500   -1.1460   -3.4800 hc        1 05L      0.041200
     39 H5'        -3.3980   -0.6130   -5.9000 hc        1 05L      0.040200
     40 H5'A       -3.6610    1.1410   -5.5620 hc        1 05L      0.040200
     41 H6'        -5.7370   -1.1140   -5.1150 hc        1 05L      0.038700
     42 H6'A       -6.0000    0.6390   -4.7770 hc        1 05L      0.038700
     43 H7'        -5.3230   -0.5870   -7.5420 hc        1 05L      0.032700
     44 H7'A       -6.9480   -0.0050   -6.9930 hc        1 05L      0.032700
     45 H7'B       -5.5860    1.1710   -7.2040 hc        1 05L      0.032700
@<TRIPOS>BOND
     1    1    2 1   
     2    1   13 1   
     3    2    3 1   
     4    2   10 1   
     5    2   20 1   
     6    3    4 1   
     7    3    5 1   
     8    3   21 1   
     9    4   22 1   
    10    5    6 1   
    11    5    7 1   
    12    5   23 1   
    13    6   24 1   
    14    7    8 1   
    15    7    9 1   
    16    7   25 1   
    17    8   26 1   
    18    9   10 1   
    19    9   11 1   
    20    9   27 1   
    21   11   12 1   
    22   11   28 1   
    23   11   29 1   
    24   12   30 1   
    25   13   14 1   
    26   13   31 1   
    27   13   32 1   
    28   14   15 1   
    29   14   33 1   
    30   14   34 1   
    31   15   16 1   
    32   15   35 1   
    33   15   36 1   
    34   16   17 1   
    35   16   37 1   
    36   16   38 1   
    37   17   18 1   
    38   17   39 1   
    39   17   40 1   
    40   18   19 1   
    41   18   41 1   
    42   18   42 1   
    43   19   43 1   
    44   19   44 1   
    45   19   45 1   
@<TRIPOS>SUBSTRUCTURE
     1 05L         1 TEMP              0 ****  ****    0 ROOT
