@<TRIPOS>MOLECULE
05N
   20    20     1     0     0
SMALL
bcc


@<TRIPOS>ATOM
      1 N3          0.1470    1.1500   -1.1780 n3        1 05N     -0.746200
      2 C19        -0.5310   -0.0010   -0.5620 c3        1 05N      0.022500
      3 C20         0.4870   -0.7370    0.3560 c3        1 05N     -0.079700
      4 C21         1.6450    0.2640    0.5480 c3        1 05N      0.108100
      5 C22        -1.7780    0.4340    0.2830 c         1 05N      0.934600
      6 O9          2.8630   -0.3020    0.0770 oh        1 05N     -0.614800
      7 C52         1.2340    1.5140   -0.2760 c3        1 05N      0.114800
      8 C53         0.9220   -2.0560   -0.2240 c3        1 05N     -0.070100
      9 H15        -0.9020   -0.6920   -1.3670 h1        1 05N      0.044700
     10 H16         0.0020   -0.9040    1.3560 hc        1 05N      0.083700
     11 H17         1.7670    0.5290    1.6310 h1        1 05N      0.037700
     12 H40         3.5150    0.4060    0.1090 ho        1 05N      0.379000
     13 H41         2.1090    1.9400   -0.8310 h1        1 05N      0.044700
     14 H42         0.8260    2.2880    0.4310 h1        1 05N      0.044700
     15 H43         1.3800   -1.9110   -1.2330 hc        1 05N      0.022367
     16 H44         1.6850   -2.5390    0.4340 hc        1 05N      0.022367
     17 H45         0.0450   -2.7390   -0.3240 hc        1 05N      0.022367
     18 H2          0.5430    0.8500   -2.0540 hn        1 05N      0.307800
     19 O2         -2.9060    0.1270   -0.1900 o         1 05N     -0.838300
     20 O3         -1.5870    1.0140    1.3860 o         1 05N     -0.838300
@<TRIPOS>BOND
     1    1    2 1   
     2    1    7 1   
     3    1   18 1   
     4    2    3 1   
     5    2    5 1   
     6    2    9 1   
     7    3    4 1   
     8    3    8 1   
     9    3   10 1   
    10    4    6 1   
    11    4    7 1   
    12    4   11 1   
    13    5   19 1   
    14    5   20 1   
    15    6   12 1   
    16    7   13 1   
    17    7   14 1   
    18    8   15 1   
    19    8   16 1   
    20    8   17 1   
@<TRIPOS>SUBSTRUCTURE
     1 05N         1 TEMP              0 ****  ****    0 ROOT
