@<TRIPOS>MOLECULE
05N
   20    20     1     0     0
SMALL
bcc


@<TRIPOS>ATOM
      1 N3         -1.4220   -0.3330   -1.0560 n3        1 05N     -0.803200
      2 C19        -0.0660   -0.2860   -1.1170 c3        1 05N      0.024500
      3 C20         0.3840   -0.2650    0.4770 c3        1 05N     -0.098700
      4 C21        -0.4990    0.4650    1.1120 c3        1 05N      0.123100
      5 C22         0.5510   -1.4120   -1.9120 c         1 05N      0.908600
      6 O9         -0.0580    1.8800    1.1500 oh        1 05N     -0.617800
      7 C52        -1.8090    0.3360    0.2960 c3        1 05N      0.123800
      8 C53         1.7880    0.3630    0.6200 c3        1 05N     -0.075100
      9 H15         0.2550    0.5020   -1.6020 h1        1 05N      0.049700
     10 H16         0.3860   -1.1740    0.8360 hc        1 05N      0.067700
     11 H17        -0.6300    0.1260    2.0190 h1        1 05N      0.057700
     12 H40        -0.4110    2.2810    1.8610 ho        1 05N      0.401000
     13 H41        -2.1920    1.2210    0.1340 h1        1 05N      0.024200
     14 H42        -2.4500   -0.2250    0.7760 h1        1 05N      0.024200
     15 H43         1.8350    1.1830    0.0840 hc        1 05N      0.030367
     16 H44         2.4640   -0.2730    0.3040 hc        1 05N      0.030367
     17 H45         1.9560    0.5780    1.5610 hc        1 05N      0.030367
     18 H2         -1.6960   -1.2050   -1.0540 hn        1 05N      0.376800
     19 O2          0.5020   -2.5920   -1.4750 o         1 05N     -0.838300
     20 O3          1.1120   -1.1710   -3.0130 o         1 05N     -0.838300
@<TRIPOS>BOND
     1    1    2 1   
     2    1    7 1   
     3    1   18 1   
     4    2    3 1   
     5    2    5 1   
     6    2    9 1   
     7    3    4 1   
     8    3    8 1   
     9    3   10 1   
    10    4    6 1   
    11    4    7 1   
    12    4   11 1   
    13    5   19 1   
    14    5   20 1   
    15    6   12 1   
    16    7   13 1   
    17    7   14 1   
    18    8   15 1   
    19    8   16 1   
    20    8   17 1   
@<TRIPOS>SUBSTRUCTURE
     1 05N         1 TEMP              0 ****  ****    0 ROOT
