@<TRIPOS>MOLECULE
05R
   17    17     1     0     0
SMALL
bcc


@<TRIPOS>ATOM
      1 CBE         3.5300    0.4050   -0.1470 c         1 05R      0.919600
      2 OBF         3.5700    1.6320   -0.4480 o         1 05R     -0.834800
      3 CBG         2.5420   -0.0430    0.9600 c3        1 05R     -0.183100
      4 CBH         1.1200    0.1610    0.6050 ca        1 05R     -0.000300
      5 CBI         0.6960    1.3740    0.0350 ca        1 05R     -0.115000
      6 CBJ        -0.6430    1.5860   -0.2660 ca        1 05R     -0.128000
      7 CBK        -1.5900    0.5880   -0.0040 ca        1 05R     -0.009600
      8 CLL        -3.2290    0.8820   -0.3720 cl        1 05R     -0.125400
      9 CBM        -1.1760   -0.6280    0.5500 ca        1 05R      0.017400
     10 CLN        -2.2980   -1.8720    0.8740 cl        1 05R     -0.124400
     11 CBO         0.1730   -0.8400    0.8500 ca        1 05R     -0.145000
     12 HBG         2.7380   -1.1200    1.1980 hc        1 05R      0.043700
     13 HBGA        2.7760    0.5680    1.8720 hc        1 05R      0.043700
     14 HBI         1.4680    2.1370   -0.1940 ha        1 05R      0.201000
     15 HBJ        -0.9620    2.5370   -0.7170 ha        1 05R      0.134000
     16 HBO         0.4940   -1.8030    1.2750 ha        1 05R      0.141000
     17 OXT         4.2680   -0.4820   -0.6540 o         1 05R     -0.834800
@<TRIPOS>BOND
     1    1    2 1   
     2    1    3 1   
     3    1   17 1   
     4    3    4 1   
     5    3   12 1   
     6    3   13 1   
     7    4    5 ar  
     8    4   11 ar  
     9    5    6 ar  
    10    5   14 1   
    11    6    7 ar  
    12    6   15 1   
    13    7    8 1   
    14    7    9 ar  
    15    9   10 1   
    16    9   11 ar  
    17   11   16 1   
@<TRIPOS>SUBSTRUCTURE
     1 05R         1 TEMP              0 ****  ****    0 ROOT
