@<TRIPOS>MOLECULE
05R
   17    17     1     0     0
SMALL
bcc


@<TRIPOS>ATOM
      1 CBE         0.7480    1.5830    0.7750 c         1 05R      0.911800
      2 OBF         1.5500    1.3510   -0.1670 o         1 05R     -0.804300
      3 CBG        -0.9150   -0.6570    1.3620 c2        1 05R     -0.188000
      4 CBH         0.0860   -0.4150    2.2180 ce        1 05R     -0.094200
      5 CBI         0.3410   -1.4050    3.3670 c3        1 05R      0.013000
      6 CBJ         1.7110   -1.0180    3.7680 c2        1 05R     -0.238200
      7 CBK         1.7950    0.2930    4.1990 cf        1 05R      0.018400
      8 ClL         1.1600    0.8580    5.6630 cl        1 05R     -0.137400
      9 CBM         1.8490    1.1610    3.0320 cf        1 05R     -0.017600
     10 ClN         2.8200    2.5380    2.9730 cl        1 05R     -0.097400
     11 CBO         0.9510    0.7770    2.0670 ce        1 05R     -0.028200
     12 HBG        -1.5710   -1.5300    1.4680 ha        1 05R      0.122000
     13 HBGA       -1.1250    0.0100    0.5120 ha        1 05R      0.122000
     14 HBI        -0.4260   -1.2580    4.1680 hc        1 05R      0.045700
     15 HBJ         0.2750   -2.4590    2.9990 hc        1 05R      0.045700
     16 HBO         2.5310   -1.4270    3.1580 ha        1 05R      0.130000
     17 OXT        -0.2220    2.3850    0.7340 o         1 05R     -0.804300
@<TRIPOS>BOND
     1    1    2 1   
     2    1   11 1   
     3    1   17 1   
     4    3    4 2   
     5    3   12 1   
     6    3   13 1   
     7    4    5 1   
     8    4   11 1   
     9    5    6 1   
    10    5   14 1   
    11    5   15 1   
    12    6    7 2   
    13    6   16 1   
    14    7    8 1   
    15    7    9 1   
    16    9   10 1   
    17    9   11 2   
@<TRIPOS>SUBSTRUCTURE
     1 05R         1 TEMP              0 ****  ****    0 ROOT
