@<TRIPOS>MOLECULE
05R
   17    14     1     0     0
SMALL
bcc


@<TRIPOS>ATOM
      1 CBE        -0.7330   -0.0960   -2.6110 c1        1 05R      0.339000
      2 OBF        -0.4090    0.9550   -3.2230 o         1 05R     -0.569500
      3 CBG        -1.4550   -0.0070   -1.2850 c2        1 05R     -0.219000
      4 CBH        -0.4440   -0.0210   -0.1590 c2        1 05R      0.007000
      5 CBI        -0.0910   -1.2210    0.4390 c1        1 05R     -0.115000
      6 CBJ         0.7940   -1.2290    1.5060 c1        1 05R     -0.128000
      7 CBK         1.3250   -0.0380    1.9750 c1        1 05R     -0.088000
      8 CLL         2.4150   -0.0460    3.3360 cl        1 05R     -0.047000
      9 CBM         0.9720    1.1610    1.3770 c2        1 05R     -0.061000
     10 CLN         1.6400    2.6600    1.9680 cl        1 05R     -0.046000
     11 CBO         0.0880    1.1700    0.3100 c2        1 05R     -0.145000
     12 HBG        -1.9700    0.8240   -1.2490 ha        1 05R      0.083000
     13 HBGA       -2.0590   -0.7700   -1.1900 ha        1 05R      0.083000
     14 HBI        -0.4650   -2.0600    0.1090 ha        1 05R      0.201000
     15 HBJ         1.0430   -2.0740    1.9270 ha        1 05R      0.134000
     16 HBO        -0.1610    2.0150   -0.1110 ha        1 05R      0.141000
     17 OXT        -0.4900   -1.2220   -3.1210 o         1 05R     -0.569500
@<TRIPOS>BOND
     1    1    2 1   
     2    1   17 1   
     3    3    4 1   
     4    3   12 1   
     5    3   13 1   
     6    4    5 1   
     7    4   11 1   
     8    5   14 1   
     9    6    7 1   
    10    6   15 1   
    11    7    9 1   
    12    9   10 1   
    13    9   11 1   
    14   11   16 1   
@<TRIPOS>SUBSTRUCTURE
     1 05R         1 TEMP              0 ****  ****    0 ROOT
