@<TRIPOS>MOLECULE
05S
   65    68     1     0     0
SMALL
bcc


@<TRIPOS>ATOM
      1 C1          0.0440   -0.4630    0.1040 c3        1 05S     -0.080800
      2 C2          1.4980   -0.2930    0.1000 cc        1 05S      0.040700
      3 C3          2.3620   -0.2390    1.1960 cd        1 05S     -0.214600
      4 N1          3.7140   -0.1410    0.7010 na        1 05S     -0.017200
      5 C4          3.6440   -0.1030   -0.7270 cd        1 05S     -0.009600
      6 C5          2.3090   -0.1800   -1.1020 cc        1 05S     -0.175600
      7 C6          1.8770   -0.1550   -2.5090 c         1 05S      0.594700
      8 O1          0.7040   -0.3400   -2.8310 o         1 05S     -0.467100
      9 C7          2.9670    0.1480   -3.4960 c3        1 05S     -0.178400
     10 C8          4.3490   -0.3620   -3.0940 c3        1 05S     -0.037000
     11 C9          4.7430    0.1360   -1.6900 c3        1 05S     -0.035100
     12 C10         5.3720    0.1810   -4.0860 c3        1 05S     -0.100600
     13 C11         4.3790   -1.8830   -3.1320 c3        1 05S     -0.100600
     14 C12         4.8500   -0.1280    1.4660 ca        1 05S      0.181800
     15 C13         6.0540   -0.8010    1.1050 ca        1 05S     -0.133000
     16 C14         7.1620   -0.7610    1.9260 ca        1 05S     -0.023000
     17 C15         7.1790   -0.0870    3.1690 ca        1 05S     -0.240600
     18 C16         5.9750    0.5730    3.5540 ca        1 05S      0.087600
     19 C17         4.8730    0.5810    2.7080 ca        1 05S     -0.203000
     20 N2          5.8330    1.2980    4.8320 n4        1 05S     -0.663400
     21 C18         4.5180    1.0150    5.5400 c3        1 05S      0.120500
     22 C19         3.4590    2.1310    5.2960 c3        1 05S      0.072800
     23 N3          2.0730    1.6100    5.1130 n4        1 05S     -0.771000
     24 C20         1.5010    1.7730    3.7210 c3        1 05S      0.105800
     25 C21         0.9450    0.4840    3.1400 c3        1 05S     -0.131400
     26 C22         1.9680   -0.5010    2.6000 c3        1 05S     -0.007100
     27 C23         4.7460    0.8700    7.0430 c3        1 05S     -0.157100
     28 C24         8.3690   -0.0680    4.0070 c         1 05S      0.579700
     29 O2          8.4780    0.4340    5.1280 o         1 05S     -0.477100
     30 N4          9.6400   -0.6960    3.5090 n4        1 05S     -0.739400
     31 H1         -0.3030   -1.0120    1.0150 hc        1 05S      0.088367
     32 H2         -0.4650    0.5350    0.0590 hc        1 05S      0.088367
     33 H3         -0.2800   -1.0360   -0.8090 hc        1 05S      0.088367
     34 H4          2.9990    1.2650   -3.6300 hc        1 05S      0.105200
     35 H5          2.6880   -0.2960   -4.4920 hc        1 05S      0.105200
     36 H6          4.9340    1.2460   -1.7390 hc        1 05S      0.065200
     37 H7          5.7010   -0.3600   -1.3950 hc        1 05S      0.065200
     38 H8          5.3700    1.2980   -4.0870 hc        1 05S      0.054367
     39 H9          5.1250   -0.1730   -5.1170 hc        1 05S      0.054367
     40 H10         6.3950   -0.1790   -3.8250 hc        1 05S      0.054367
     41 H11         4.1220   -2.2440   -4.1590 hc        1 05S      0.054367
     42 H12         5.3970   -2.2610   -2.8740 hc        1 05S      0.054367
     43 H13         3.6390   -2.3090   -2.4130 hc        1 05S      0.054367
     44 H14         6.0940   -1.3990    0.1730 ha        1 05S      0.216000
     45 H15         8.0510   -1.3170    1.5760 ha        1 05S      0.163000
     46 H16         3.9800    1.1770    2.9600 ha        1 05S      0.154000
     47 H17         5.9300    2.3070    4.6470 hn        1 05S      0.486800
     48 H18         4.1570    0.0190    5.1330 hx        1 05S      0.124700
     49 H19         3.4530    2.8150    6.2040 hx        1 05S      0.135700
     50 H20         3.7180    2.7800    4.4090 hx        1 05S      0.135700
     51 H21         1.4540    2.1160    5.7680 hn        1 05S      0.473300
     52 H23         2.2820    2.2070    3.0370 hx        1 05S      0.121700
     53 H24         0.6620    2.5300    3.8050 hx        1 05S      0.121700
     54 H25         0.2590    0.7980    2.2950 hc        1 05S      0.117200
     55 H26         0.2900   -0.0380    3.8910 hc        1 05S      0.117200
     56 H27         2.8460   -0.5740    3.2930 hc        1 05S      0.059200
     57 H28         1.4770   -1.5230    2.6080 hc        1 05S      0.059200
     58 H29         5.1570    1.8040    7.5020 hc        1 05S      0.106700
     59 H30         3.7650    0.6410    7.5360 hc        1 05S      0.106700
     60 H31         5.4390    0.0200    7.2730 hc        1 05S      0.106700
     61 H32         9.9340   -0.2670    2.6220 hn        1 05S      0.494800
     62 H33         9.5140   -1.7080    3.3700 hn        1 05S      0.494800
     63 H22         6.5940    1.0250    5.4860 hn        1 05S      0.486800
     64 H321        2.0320    0.6130    5.3690 hn        1 05S      0.473300
     65 H43        10.3890   -0.5520    4.2110 hn        1 05S      0.494800
@<TRIPOS>BOND
     1    1    2 1   
     2    1   31 1   
     3    1   32 1   
     4    1   33 1   
     5    2    3 2   
     6    2    6 1   
     7    3    4 1   
     8    3   26 1   
     9    4    5 1   
    10    4   14 1   
    11    5    6 2   
    12    5   11 1   
    13    6    7 1   
    14    7    8 2   
    15    7    9 1   
    16    9   10 1   
    17    9   34 1   
    18    9   35 1   
    19   10   11 1   
    20   10   12 1   
    21   10   13 1   
    22   11   36 1   
    23   11   37 1   
    24   12   38 1   
    25   12   39 1   
    26   12   40 1   
    27   13   41 1   
    28   13   42 1   
    29   13   43 1   
    30   14   15 ar  
    31   14   19 ar  
    32   15   16 ar  
    33   15   44 1   
    34   16   17 ar  
    35   16   45 1   
    36   17   18 ar  
    37   17   28 1   
    38   18   19 ar  
    39   18   20 1   
    40   19   46 1   
    41   20   21 1   
    42   20   47 1   
    43   20   63 1   
    44   21   22 1   
    45   21   27 1   
    46   21   48 1   
    47   22   23 1   
    48   22   49 1   
    49   22   50 1   
    50   23   24 1   
    51   23   51 1   
    52   23   64 1   
    53   24   25 1   
    54   24   52 1   
    55   24   53 1   
    56   25   26 1   
    57   25   54 1   
    58   25   55 1   
    59   26   56 1   
    60   26   57 1   
    61   27   58 1   
    62   27   59 1   
    63   27   60 1   
    64   28   29 2   
    65   28   30 1   
    66   30   61 1   
    67   30   62 1   
    68   30   65 1   
@<TRIPOS>SUBSTRUCTURE
     1 05S         1 TEMP              0 ****  ****    0 ROOT
