@<TRIPOS>MOLECULE
05S
   64    67     1     0     0
SMALL
bcc


@<TRIPOS>ATOM
      1 C1         -0.1090    0.1690   -0.3010 c3        1 05S     -0.068800
      2 C2          1.3530    0.1370   -0.2150 cc        1 05S      0.007700
      3 C3          2.1300    0.3290    0.9360 cd        1 05S     -0.178600
      4 N1          3.5120    0.2270    0.5760 na        1 05S     -0.019200
      5 C4          3.5650   -0.0530   -0.8130 cd        1 05S     -0.016600
      6 C5          2.2600   -0.1130   -1.3110 cc        1 05S     -0.199600
      7 C6          1.9700   -0.4260   -2.7120 c         1 05S      0.601700
      8 O1          0.8230   -0.4970   -3.1590 o         1 05S     -0.496100
      9 C7          3.1810   -0.6250   -3.5830 c3        1 05S     -0.177400
     10 C8          4.4010   -1.1890   -2.8560 c3        1 05S     -0.039000
     11 C9          4.7630   -0.3170   -1.6420 c3        1 05S     -0.029100
     12 C10         5.5850   -1.1780   -3.8160 c3        1 05S     -0.097100
     13 C11         4.1350   -2.6200   -2.4130 c3        1 05S     -0.097100
     14 C12         4.6230    0.4210    1.3870 ca        1 05S      0.180800
     15 C13         5.8190    1.0130    0.8600 ca        1 05S     -0.191000
     16 C14         6.9230    1.1650    1.6540 ca        1 05S     -0.033000
     17 C15         6.9260    0.8420    3.0350 ca        1 05S     -0.319600
     18 C16         5.6950    0.3870    3.6210 ca        1 05S      0.324600
     19 C17         4.6230    0.0660    2.7430 ca        1 05S     -0.314000
     20 N2          5.5310    0.3210    4.9820 nh        1 05S     -0.769600
     21 C18         4.3320   -0.0980    5.6730 c3        1 05S      0.220500
     22 C19         3.4300    1.1160    6.0770 c3        1 05S      0.072800
     23 N3          2.2640    1.3650    5.1810 n4        1 05S     -0.763000
     24 C20         2.5870    2.1860    3.9700 c3        1 05S      0.096800
     25 C21         1.6310    1.9660    2.8070 c3        1 05S     -0.120400
     26 C22         1.5530    0.5420    2.2810 c3        1 05S     -0.007100
     27 C23         4.6680   -0.8520    6.9670 c3        1 05S     -0.128100
     28 C24         8.1190    0.9780    3.8320 c         1 05S      0.586700
     29 O2          8.2690    1.0140    5.0520 o         1 05S     -0.477100
     30 N4          9.4480    1.0580    3.0950 n4        1 05S     -0.754400
     31 H1         -0.5530   -0.6900    0.2670 hc        1 05S      0.075033
     32 H2         -0.5130    1.1220    0.1230 hc        1 05S      0.075033
     33 H3         -0.4430    0.0870   -1.3700 hc        1 05S      0.075033
     34 H4          2.9080   -1.3120   -4.4300 hc        1 05S      0.092700
     35 H5          3.4380    0.3730   -4.0310 hc        1 05S      0.092700
     36 H6          5.5670   -0.8290   -1.0500 hc        1 05S      0.062200
     37 H7          5.1700    0.6620   -2.0200 hc        1 05S      0.062200
     38 H8          6.4950   -1.5800   -3.3100 hc        1 05S      0.048700
     39 H9          5.7970   -0.1420   -4.1720 hc        1 05S      0.048700
     40 H10         5.3600   -1.8190   -4.7030 hc        1 05S      0.048700
     41 H11         3.8930   -3.2560   -3.2990 hc        1 05S      0.048700
     42 H12         3.2730   -2.6560   -1.7040 hc        1 05S      0.048700
     43 H13         5.0360   -3.0460   -1.9100 hc        1 05S      0.048700
     44 H14         5.8490    1.3600   -0.1870 ha        1 05S      0.185000
     45 H15         7.8210    1.6030    1.1850 ha        1 05S      0.134000
     46 H16         3.7800   -0.5250    3.1320 ha        1 05S      0.158000
     47 H17         6.3350    0.4250    5.5710 hn        1 05S      0.472800
     48 H18         3.7400   -0.8090    5.0230 h1        1 05S      0.078700
     49 H19         3.0060    0.9070    7.1060 hx        1 05S      0.121200
     50 H20         4.0350    2.0660    6.1380 hx        1 05S      0.121200
     51 H21         1.8710    0.4630    4.8810 hn        1 05S      0.457300
     52 H23         2.5570    3.2710    4.2810 hx        1 05S      0.108700
     53 H24         3.6390    1.9390    3.6520 hx        1 05S      0.108700
     54 H25         1.9680    2.6580    1.9840 hc        1 05S      0.099200
     55 H26         0.6000    2.3060    3.1020 hc        1 05S      0.099200
     56 H27         0.4570    0.2760    2.1840 hc        1 05S      0.058200
     57 H28         1.9750   -0.2000    3.0070 hc        1 05S      0.058200
     58 H29         3.7260   -1.2430    7.4230 hc        1 05S      0.080033
     59 H30         5.3330   -1.7250    6.7490 hc        1 05S      0.080033
     60 H31         5.1800   -0.1900    7.7070 hc        1 05S      0.080033
     61 H32         9.5130    0.3080    2.4000 hn        1 05S      0.472800
     62 H33        10.2170    0.9650    3.7730 hn        1 05S      0.472800
     63 H321        1.5360    1.8540    5.7190 hn        1 05S      0.457300
     64 H43         9.5360    1.9620    2.6210 hn        1 05S      0.472800
@<TRIPOS>BOND
     1    1    2 1   
     2    1   31 1   
     3    1   32 1   
     4    1   33 1   
     5    2    3 2   
     6    2    6 1   
     7    3    4 1   
     8    3   26 1   
     9    4    5 1   
    10    4   14 1   
    11    5    6 2   
    12    5   11 1   
    13    6    7 1   
    14    7    8 2   
    15    7    9 1   
    16    9   10 1   
    17    9   34 1   
    18    9   35 1   
    19   10   11 1   
    20   10   12 1   
    21   10   13 1   
    22   11   36 1   
    23   11   37 1   
    24   12   38 1   
    25   12   39 1   
    26   12   40 1   
    27   13   41 1   
    28   13   42 1   
    29   13   43 1   
    30   14   15 ar  
    31   14   19 ar  
    32   15   16 ar  
    33   15   44 1   
    34   16   17 ar  
    35   16   45 1   
    36   17   18 ar  
    37   17   28 1   
    38   18   19 ar  
    39   18   20 1   
    40   19   46 1   
    41   20   21 1   
    42   20   47 1   
    43   21   22 1   
    44   21   27 1   
    45   21   48 1   
    46   22   23 1   
    47   22   49 1   
    48   22   50 1   
    49   23   24 1   
    50   23   51 1   
    51   23   63 1   
    52   24   25 1   
    53   24   52 1   
    54   24   53 1   
    55   25   26 1   
    56   25   54 1   
    57   25   55 1   
    58   26   56 1   
    59   26   57 1   
    60   27   58 1   
    61   27   59 1   
    62   27   60 1   
    63   28   29 2   
    64   28   30 1   
    65   30   61 1   
    66   30   62 1   
    67   30   64 1   
@<TRIPOS>SUBSTRUCTURE
     1 05S         1 TEMP              0 ****  ****    0 ROOT
