@<TRIPOS>MOLECULE
05S
   62    58     1     0     0
SMALL
bcc


@<TRIPOS>ATOM
      1 C1         -4.2510   -0.0270   -1.4520 c3        1 05S     -0.164000
      2 C2         -2.7220   -0.0270   -1.4520 c2        1 05S     -0.066000
      3 C3         -1.8850   -0.0270   -0.2980 c1        1 05S     -0.083000
      4 N1         -0.5540    0.0470   -0.7260 n3        1 05S     -0.075000
      5 C4         -0.5500    0.0920   -2.1090 c1        1 05S     -0.013000
      6 C5         -1.9180    0.0450   -2.5580 c1        1 05S     -0.218000
      7 C6         -2.1940   -0.2670   -4.0890 c1        1 05S      0.305000
      8 O1         -3.3340   -0.4690   -4.4750 o         1 05S     -0.316000
      9 C7         -1.0640   -0.6650   -4.9180 c3        1 05S     -0.203000
     10 C8          0.1760    0.0420   -4.5740 c3        1 05S     -0.040000
     11 C9          0.5860    0.0060   -3.1910 c2        1 05S     -0.101000
     12 C10        -0.0420    1.5140   -4.9300 c3        1 05S     -0.209500
     13 C11         1.2980   -0.6160   -5.3850 c3        1 05S     -0.209500
     14 C12         0.6770   -0.0110    0.1710 c1        1 05S      0.108000
     15 C13         1.9070   -0.3760   -0.3670 c1        1 05S     -0.132500
     16 C14         3.0040   -0.5810    0.4720 c1        1 05S     -0.132500
     17 C15         2.8690   -0.4200    1.8490 c1        1 05S     -0.214000
     18 C16         1.6350   -0.0530    2.3910 c1        1 05S      0.169000
     19 C17         0.5390    0.1510    1.5510 c1        1 05S     -0.201000
     20 N2          1.4320   -0.1070    3.8730 n3        1 05S     -0.327000
     21 C18         0.8050    1.1060    4.3300 c3        1 05S      0.034000
     22 C19        -0.6030    0.8030    4.7930 c3        1 05S     -0.082000
     23 N3         -1.4520    0.5090    3.6330 n3        1 05S     -0.331000
     24 C20        -1.5800   -0.9400    3.4710 c3        1 05S     -0.058000
     25 C21        -1.8210   -1.2840    1.9470 c3        1 05S     -0.159000
     26 C22        -2.3780   -0.0270    1.2090 c2        1 05S     -0.095000
     27 C23         0.7600    2.0950    3.2130 c3        1 05S     -0.209000
     28 C24         4.0240   -0.8090    2.7780 c1        1 05S      0.354000
     29 O2          3.9250   -0.6300    3.9740 o         1 05S     -0.392000
     30 N4          5.2360   -1.3350    2.2320 n2        1 05S     -0.432000
     31 H1         -4.5770   -0.9420   -1.3540 hc        1 05S      0.090667
     32 H2         -4.5770    0.3460   -2.2930 hc        1 05S      0.090667
     33 H3         -4.5770    0.5150   -0.7080 hc        1 05S      0.090667
     34 H4         -0.9770   -1.6350   -4.9830 hc        1 05S      0.109500
     35 H5         -1.2680   -0.4500   -5.8480 hc        1 05S      0.109500
     36 H6          1.0770   -0.8250   -3.0460 ha        1 05S      0.100000
     37 H7          1.2000    0.7500   -3.0410 ha        1 05S      0.100000
     38 H8         -0.3910    1.5800   -5.8400 hc        1 05S      0.079667
     39 H9          0.8070    1.9920   -4.8720 hc        1 05S      0.079667
     40 H10        -0.6810    1.9090   -4.3070 hc        1 05S      0.079667
     41 H11         1.1000   -0.5380   -6.3370 hc        1 05S      0.079667
     42 H12         1.3630   -1.5590   -5.1430 hc        1 05S      0.079667
     43 H13         2.1440   -0.1710   -5.1900 hc        1 05S      0.079667
     44 H14         2.0030   -0.4900   -1.3310 ha        1 05S      0.140000
     45 H15         3.8660   -0.8370    0.0930 ha        1 05S      0.140000
     46 H16        -0.3240    0.4080    1.9280 ha        1 05S      0.172000
     47 H17         2.2390   -0.2070    4.2870 hn        1 05S      0.247000
     48 H18         1.3190    1.4780    5.0720 h1        1 05S      0.084000
     49 H19        -0.9610    1.5760    5.2700 h1        1 05S      0.075000
     50 H20        -0.5890    0.0310    5.3900 h1        1 05S      0.075000
     51 H21        -2.2780    0.8740    3.7600 hn        1 05S      0.167000
     52 H23        -2.3350   -1.2610    3.9990 h1        1 05S      0.069500
     53 H24        -0.7620   -1.3750    3.7770 h1        1 05S      0.069500
     54 H25        -0.9770   -1.5540    1.5370 hc        1 05S      0.089000
     55 H26        -2.4650   -2.0150    1.8770 hc        1 05S      0.089000
     56 H27        -3.3540   -0.0450    1.2310 ha        1 05S      0.102500
     57 H28        -2.0580    0.7800    1.6560 ha        1 05S      0.102500
     58 H29        -0.0750    1.9890    2.7180 hc        1 05S      0.083667
     59 H30         1.5150    1.9430    2.6130 hc        1 05S      0.083667
     60 H31         0.8100    2.9990    3.5760 hc        1 05S      0.083667
     61 H32         5.3420   -2.2370    2.1440 hn        1 05S      0.226500
     62 H33         5.9170   -0.7720    2.0060 hn        1 05S      0.226500
@<TRIPOS>BOND
     1    1    2 1   
     2    1   31 1   
     3    1   32 1   
     4    1   33 1   
     5    2    3 1   
     6    2    6 1   
     7    3    4 1   
     8    4    5 1   
     9    4   14 1   
    10    5    6 1   
    11    7    8 1   
    12    7    9 1   
    13    9   10 1   
    14    9   34 1   
    15    9   35 1   
    16   10   11 1   
    17   10   12 1   
    18   10   13 1   
    19   11   36 1   
    20   11   37 1   
    21   12   38 1   
    22   12   39 1   
    23   12   40 1   
    24   13   41 1   
    25   13   42 1   
    26   13   43 1   
    27   14   19 1   
    28   15   16 1   
    29   15   44 1   
    30   16   45 1   
    31   17   18 1   
    32   17   28 1   
    33   18   20 1   
    34   19   46 1   
    35   20   21 1   
    36   20   47 1   
    37   21   22 1   
    38   21   27 1   
    39   21   48 1   
    40   22   23 1   
    41   22   49 1   
    42   22   50 1   
    43   23   24 1   
    44   23   51 1   
    45   24   25 1   
    46   24   52 1   
    47   24   53 1   
    48   25   26 1   
    49   25   54 1   
    50   25   55 1   
    51   26   56 1   
    52   26   57 1   
    53   27   58 1   
    54   27   59 1   
    55   27   60 1   
    56   28   29 1   
    57   30   61 1   
    58   30   62 1   
@<TRIPOS>SUBSTRUCTURE
     1 05S         1 TEMP              0 ****  ****    0 ROOT
