@<TRIPOS>MOLECULE
05S
   64    67     1     0     0
SMALL
bcc


@<TRIPOS>ATOM
      1 C1         -0.1070    0.1520   -0.3070 c3        1 05S     -0.068800
      2 C2          1.3560    0.1270   -0.2180 cc        1 05S      0.007700
      3 C3          2.1310    0.3220    0.9340 cd        1 05S     -0.178600
      4 N1          3.5130    0.2260    0.5750 na        1 05S     -0.019200
      5 C4          3.5690   -0.0530   -0.8140 cd        1 05S     -0.016600
      6 C5          2.2660   -0.1190   -1.3140 cc        1 05S     -0.199600
      7 C6          1.9790   -0.4320   -2.7150 c         1 05S      0.601700
      8 O1          0.8330   -0.5080   -3.1640 o         1 05S     -0.496100
      9 C7          3.1920   -0.6260   -3.5840 c3        1 05S     -0.177400
     10 C8          4.4130   -1.1850   -2.8560 c3        1 05S     -0.039000
     11 C9          4.7690   -0.3120   -1.6410 c3        1 05S     -0.029100
     12 C10         5.5980   -1.1680   -3.8140 c3        1 05S     -0.097100
     13 C11         4.1530   -2.6170   -2.4160 c3        1 05S     -0.097100
     14 C12         4.6220    0.4230    1.3880 ca        1 05S      0.180800
     15 C13         5.8170    1.0200    0.8630 ca        1 05S     -0.191000
     16 C14         6.9190    1.1750    1.6590 ca        1 05S     -0.033000
     17 C15         6.9210    0.8510    3.0400 ca        1 05S     -0.319600
     18 C16         5.6910    0.3920    3.6240 ca        1 05S      0.324600
     19 C17         4.6210    0.0670    2.7440 ca        1 05S     -0.314000
     20 N2          5.5250    0.3240    4.9850 nu        1 05S     -0.769600
     21 C18         4.3260   -0.0990    5.6730 c3        1 05S      0.220500
     22 C19         3.4200    1.1110    6.0770 c3        1 05S      0.072800
     23 N3          2.2540    1.3560    5.1790 ny        1 05S     -0.763000
     24 C20         2.5760    2.1790    3.9690 c3        1 05S      0.096800
     25 C21         1.6220    1.9560    2.8040 c3        1 05S     -0.120400
     26 C22         1.5500    0.5330    2.2770 c3        1 05S     -0.007100
     27 C23         4.6630   -0.8540    6.9670 c3        1 05S     -0.128100
     28 C24         8.1120    0.9920    3.8390 c         1 05S      0.586700
     29 O2          8.2600    1.0270    5.0590 o         1 05S     -0.477100
     30 N4          9.4420    1.0770    3.1040 nz        1 05S     -0.754400
     31 H1         -0.5150    1.1050    0.1160 hc        1 05S      0.075033
     32 H2         -0.4390    0.0690   -1.3760 hc        1 05S      0.075033
     33 H3         -0.5470   -0.7070    0.2600 hc        1 05S      0.075033
     34 H4          2.9230   -1.3120   -4.4330 hc        1 05S      0.092700
     35 H5          3.4460    0.3740   -4.0320 hc        1 05S      0.092700
     36 H6          5.1730    0.6690   -2.0180 hc        1 05S      0.062200
     37 H7          5.5750   -0.8210   -1.0480 hc        1 05S      0.062200
     38 H8          6.5100   -1.5660   -3.3080 hc        1 05S      0.048700
     39 H9          5.3780   -1.8090   -4.7030 hc        1 05S      0.048700
     40 H10         5.8060   -0.1300   -4.1700 hc        1 05S      0.048700
     41 H11         5.0550   -3.0390   -1.9110 hc        1 05S      0.048700
     42 H12         3.2910   -2.6580   -1.7080 hc        1 05S      0.048700
     43 H13         3.9150   -3.2530   -3.3020 hc        1 05S      0.048700
     44 H14         5.8480    1.3680   -0.1830 ha        1 05S      0.185000
     45 H15         7.8160    1.6180    1.1920 ha        1 05S      0.134000
     46 H16         3.7800   -0.5270    3.1310 ha        1 05S      0.158000
     47 H17         6.3270    0.4310    5.5740 hn        1 05S      0.472800
     48 H18         3.7370   -0.8130    5.0220 h1        1 05S      0.078700
     49 H19         4.0200    2.0630    6.1390 hx        1 05S      0.121200
     50 H20         2.9950    0.9000    7.1040 hx        1 05S      0.121200
     51 H21         1.8640    0.4530    4.8770 hn        1 05S      0.457300
     52 H23         3.6300    1.9360    3.6520 hx        1 05S      0.108700
     53 H24         2.5410    3.2640    4.2810 hx        1 05S      0.108700
     54 H25         1.9590    2.6500    1.9820 hc        1 05S      0.099200
     55 H26         0.5900    2.2920    3.0980 hc        1 05S      0.099200
     56 H27         1.9740   -0.2090    3.0040 hc        1 05S      0.058200
     57 H28         0.4550    0.2620    2.1790 hc        1 05S      0.058200
     58 H29         5.1710   -0.1890    7.7080 hc        1 05S      0.080033
     59 H30         3.7210   -1.2480    7.4220 hc        1 05S      0.080033
     60 H31         5.3310   -1.7240    6.7500 hc        1 05S      0.080033
     61 H32         9.5280    1.9820    2.6310 hn        1 05S      0.472800
     62 H33        10.2100    0.9860    3.7840 hn        1 05S      0.472800
     63 H321        1.5240    1.8430    5.7160 hn        1 05S      0.457300
     64 H43         9.5110    0.3280    2.4090 hn        1 05S      0.472800
@<TRIPOS>BOND
     1    1    2 1   
     2    1   31 1   
     3    1   32 1   
     4    1   33 1   
     5    2    3 2   
     6    2    6 1   
     7    3    4 1   
     8    3   26 1   
     9    4    5 1   
    10    4   14 1   
    11    5    6 2   
    12    5   11 1   
    13    6    7 1   
    14    7    8 2   
    15    7    9 1   
    16    9   10 1   
    17    9   34 1   
    18    9   35 1   
    19   10   11 1   
    20   10   12 1   
    21   10   13 1   
    22   11   36 1   
    23   11   37 1   
    24   12   38 1   
    25   12   39 1   
    26   12   40 1   
    27   13   41 1   
    28   13   42 1   
    29   13   43 1   
    30   14   15 ar  
    31   14   19 ar  
    32   15   16 ar  
    33   15   44 1   
    34   16   17 ar  
    35   16   45 1   
    36   17   18 ar  
    37   17   28 1   
    38   18   19 ar  
    39   18   20 1   
    40   19   46 1   
    41   20   21 1   
    42   20   47 1   
    43   21   22 1   
    44   21   27 1   
    45   21   48 1   
    46   22   23 1   
    47   22   49 1   
    48   22   50 1   
    49   23   24 1   
    50   23   51 1   
    51   23   63 1   
    52   24   25 1   
    53   24   52 1   
    54   24   53 1   
    55   25   26 1   
    56   25   54 1   
    57   25   55 1   
    58   26   56 1   
    59   26   57 1   
    60   27   58 1   
    61   27   59 1   
    62   27   60 1   
    63   28   29 2   
    64   28   30 1   
    65   30   61 1   
    66   30   62 1   
    67   30   64 1   
@<TRIPOS>SUBSTRUCTURE
     1 05S         1 TEMP              0 ****  ****    0 ROOT
