@<TRIPOS>MOLECULE
05S
   62    65     1     0     0
SMALL
bcc


@<TRIPOS>ATOM
      1 C1         -3.2670    3.3780    0.0310 c3        1 05S     -0.038800
      2 C2         -2.6480    2.0510   -0.0220 cc        1 05S     -0.073300
      3 C3         -1.2700    1.7740   -0.1100 cd        1 05S     -0.113600
      4 N1         -1.1000    0.3680   -0.1290 na        1 05S      0.016800
      5 C4         -2.3610   -0.2260   -0.0590 cd        1 05S     -0.047600
      6 C5         -3.3370    0.7900    0.0160 cc        1 05S     -0.238600
      7 C6         -4.7500    0.4870    0.1370 c         1 05S      0.614700
      8 O1         -5.6400    1.3390    0.2610 o         1 05S     -0.553100
      9 C7         -5.0980   -0.9810    0.0660 c3        1 05S     -0.174400
     10 C8         -4.0340   -1.9150    0.6420 c3        1 05S     -0.040000
     11 C9         -2.6770   -1.6710   -0.0330 c3        1 05S     -0.014100
     12 C10        -4.4520   -3.3550    0.3720 c3        1 05S     -0.091600
     13 C11        -3.9140   -1.7070    2.1440 c3        1 05S     -0.091600
     14 C12         0.1100   -0.3460   -0.2850 ca        1 05S      0.057800
     15 C13         0.1780   -1.4280   -1.1950 ca        1 05S     -0.199000
     16 C14         1.3700   -2.1140   -1.3530 ca        1 05S     -0.061000
     17 C15         2.5320   -1.7280   -0.6810 ca        1 05S     -0.226600
     18 C16         2.5030   -0.6170    0.2060 ca        1 05S      0.225600
     19 C17         1.2510    0.0070    0.4470 ca        1 05S     -0.190000
     20 N2          3.6500   -0.2010    0.8800 nh        1 05S     -0.730600
     21 C18         3.8490    1.2070    1.1920 c3        1 05S      0.196500
     22 C19         3.9830    2.1380   -0.0610 c3        1 05S      0.147800
     23 N3          2.7790    2.8910   -0.3220 n3        1 05S     -0.857200
     24 C20         1.9720    2.4390   -1.4330 c3        1 05S      0.166800
     25 C21         0.5400    2.9790   -1.4160 c3        1 05S     -0.073400
     26 C22        -0.1980    2.7960   -0.1020 c3        1 05S     -0.010100
     27 C23         5.1050    1.3860    2.0490 c3        1 05S     -0.101100
     28 C24         3.8010   -2.4600   -0.9470 c         1 05S      0.682700
     29 O2          4.8840   -1.8770   -1.1790 o         1 05S     -0.633100
     30 N4          3.7610   -3.8320   -0.9400 n         1 05S     -0.668000
     31 H1         -2.9790    3.9830   -0.8660 hc        1 05S      0.051700
     32 H2         -4.3830    3.2870    0.0590 hc        1 05S      0.051700
     33 H3         -2.9330    3.9300    0.9460 hc        1 05S      0.051700
     34 H4         -6.0680   -1.1520    0.6030 hc        1 05S      0.070200
     35 H5         -5.2590   -1.2290   -1.0180 hc        1 05S      0.070200
     36 H6         -2.7250   -2.0540   -1.0900 hc        1 05S      0.059200
     37 H7         -1.8800   -2.2520    0.5040 hc        1 05S      0.059200
     38 H8         -4.5670   -3.5330   -0.7240 hc        1 05S      0.040200
     39 H9         -3.6830   -4.0590    0.7700 hc        1 05S      0.040200
     40 H10        -5.4270   -3.5710    0.8710 hc        1 05S      0.040200
     41 H11        -4.8980   -1.8950    2.6390 hc        1 05S      0.040200
     42 H12        -3.1600   -2.4090    2.5740 hc        1 05S      0.040200
     43 H13        -3.5970   -0.6590    2.3640 hc        1 05S      0.040200
     44 H14        -0.7030   -1.7180   -1.7870 ha        1 05S      0.148000
     45 H15         1.4050   -2.9610   -2.0580 ha        1 05S      0.138000
     46 H16         1.1890    0.8080    1.2010 ha        1 05S      0.166000
     47 H17         4.4930   -0.6390    0.5560 hn        1 05S      0.425800
     48 H18         2.9660    1.5450    1.8130 h1        1 05S      0.076700
     49 H19         4.8250    2.8590    0.1430 h1        1 05S      0.043700
     50 H20         4.2950    1.5180   -0.9510 h1        1 05S      0.043700
     51 H21         2.9660    3.8710   -0.3920 hn        1 05S      0.368800
     52 H23         2.4300    2.7300   -2.4260 h1        1 05S      0.033700
     53 H24         1.9320    1.3130   -1.4120 h1        1 05S      0.033700
     54 H25         0.5680    4.0760   -1.6560 hc        1 05S      0.046200
     55 H26        -0.0180    2.4730   -2.2470 hc        1 05S      0.046200
     56 H27        -0.7020    3.7720    0.1550 hc        1 05S      0.064700
     57 H28         0.5200    2.5890    0.7360 hc        1 05S      0.064700
     58 H29         6.0280    1.1420    1.4690 hc        1 05S      0.045700
     59 H30         5.1630    2.4490    2.3850 hc        1 05S      0.045700
     60 H31         5.0680    0.7310    2.9530 hc        1 05S      0.045700
     61 H32         2.9350   -4.3170   -0.7040 hn        1 05S      0.314500
     62 H33         4.5920   -4.3450   -1.1010 hn        1 05S      0.314500
@<TRIPOS>BOND
     1    1    2 1   
     2    1   31 1   
     3    1   32 1   
     4    1   33 1   
     5    2    3 2   
     6    2    6 1   
     7    3    4 1   
     8    3   26 1   
     9    4    5 1   
    10    4   14 1   
    11    5    6 2   
    12    5   11 1   
    13    6    7 1   
    14    7    8 2   
    15    7    9 1   
    16    9   10 1   
    17    9   34 1   
    18    9   35 1   
    19   10   11 1   
    20   10   12 1   
    21   10   13 1   
    22   11   36 1   
    23   11   37 1   
    24   12   38 1   
    25   12   39 1   
    26   12   40 1   
    27   13   41 1   
    28   13   42 1   
    29   13   43 1   
    30   14   15 ar  
    31   14   19 ar  
    32   15   16 ar  
    33   15   44 1   
    34   16   17 ar  
    35   16   45 1   
    36   17   18 ar  
    37   17   28 1   
    38   18   19 ar  
    39   18   20 1   
    40   19   46 1   
    41   20   21 1   
    42   20   47 1   
    43   21   22 1   
    44   21   27 1   
    45   21   48 1   
    46   22   23 1   
    47   22   49 1   
    48   22   50 1   
    49   23   24 1   
    50   23   51 1   
    51   24   25 1   
    52   24   52 1   
    53   24   53 1   
    54   25   26 1   
    55   25   54 1   
    56   25   55 1   
    57   26   56 1   
    58   26   57 1   
    59   27   58 1   
    60   27   59 1   
    61   27   60 1   
    62   28   29 2   
    63   28   30 1   
    64   30   61 1   
    65   30   62 1   
@<TRIPOS>SUBSTRUCTURE
     1 05S         1 TEMP              0 ****  ****    0 ROOT
