@<TRIPOS>MOLECULE
05T
   33    33     1     0     0
SMALL
bcc


@<TRIPOS>ATOM
      1 CAA        -0.0320    0.0870   -0.0040 c3        1 05T     -0.107900
      2 CAB         1.5060    0.0840    0.0560 c3        1 05T      0.128500
      3 NAC         2.0490    1.3310   -0.6550 n4        1 05T     -0.792000
      4 CAD         3.4470    1.1830   -1.2020 c2        1 05T      0.612100
      5 NAE         3.8360    2.2430   -2.2040 n4        1 05T     -0.822600
      6 NAF         4.3330    0.3130   -0.9280 n2        1 05T     -0.582100
      7 CAG         1.9500    0.0280    1.5210 c3        1 05T     -0.107900
      8 CAH         1.4010   -1.2280    2.1770 c3        1 05T     -0.085400
      9 CAI        -0.1220   -1.2820    2.1080 c3        1 05T     -0.096700
     10 CAJ        -0.5730   -1.1690    0.6590 c3        1 05T     -0.085400
     11 CAK        -0.5820   -2.6030    2.7430 c3        1 05T      0.100800
     12 NAL        -2.0030   -2.6180    3.1880 n4        1 05T     -0.837600
     13 HAA        -0.4390    0.9930    0.5220 hc        1 05T      0.089700
     14 HAAA       -0.3900    0.1060   -1.0690 hc        1 05T      0.089700
     15 HAB         1.8870   -0.8160   -0.5150 hx        1 05T      0.119700
     16 HNAC        2.0420    2.1110    0.0240 hn        1 05T      0.483300
     17 HNAE        3.7750    3.1860   -1.7880 hn        1 05T      0.517467
     18 HNAA        3.2450    2.1850   -3.0480 hn        1 05T      0.517467
     19 HNAF        4.2260   -0.4480   -0.2830 hn        1 05T      0.538400
     20 HAG         1.5710    0.9300    2.0770 hc        1 05T      0.089700
     21 HAGA        3.0680    0.0150    1.6120 hc        1 05T      0.089700
     22 HAH         1.7380   -1.2300    3.2520 hc        1 05T      0.091200
     23 HAHA        1.8360   -2.1400    1.6870 hc        1 05T      0.091200
     24 HAI        -0.5360   -0.4110    2.6940 hc        1 05T      0.088700
     25 HAJ        -1.6940   -1.1270    0.5990 hc        1 05T      0.091200
     26 HAJA       -0.2400   -2.0740    0.0820 hc        1 05T      0.091200
     27 HAK         0.0530   -2.8200    3.6560 hx        1 05T      0.129700
     28 HAKA       -0.4450   -3.4510    2.0080 hx        1 05T      0.129700
     29 HNAL       -2.6380   -2.4520    2.3990 hn        1 05T      0.476800
     30 H2         -2.1700   -1.8970    3.9010 hn        1 05T      0.476800
     31 HAC2        1.3900    1.5530   -1.4180 hn        1 05T      0.483300
     32 HAE3        4.8290    2.0890   -2.5000 hn        1 05T      0.517467
     33 HAL3       -2.2240   -3.5380    3.5990 hn        1 05T      0.476800
@<TRIPOS>BOND
     1    1    2 1   
     2    1   10 1   
     3    1   13 1   
     4    1   14 1   
     5    2    3 1   
     6    2    7 1   
     7    2   15 1   
     8    3    4 1   
     9    3   16 1   
    10    3   31 1   
    11    4    5 1   
    12    4    6 2   
    13    5   17 1   
    14    5   18 1   
    15    5   32 1   
    16    6   19 1   
    17    7    8 1   
    18    7   20 1   
    19    7   21 1   
    20    8    9 1   
    21    8   22 1   
    22    8   23 1   
    23    9   10 1   
    24    9   11 1   
    25    9   24 1   
    26   10   25 1   
    27   10   26 1   
    28   11   12 1   
    29   11   27 1   
    30   11   28 1   
    31   12   29 1   
    32   12   30 1   
    33   12   33 1   
@<TRIPOS>SUBSTRUCTURE
     1 05T         1 TEMP              0 ****  ****    0 ROOT
