@<TRIPOS>MOLECULE
05T
   33    33     1     0     0
SMALL
bcc


@<TRIPOS>ATOM
      1 CAA        -0.0330    0.0830   -0.0020 c3        1 05T     -0.107900
      2 CAB         1.5050    0.0810    0.0540 c3        1 05T      0.128500
      3 NAC         2.0450    1.3250   -0.6660 n4        1 05T     -0.792000
      4 CAD         3.4400    1.1740   -1.2180 c2        1 05T      0.612100
      5 NAE         3.8220    2.2230   -2.2340 n4        1 05T     -0.822600
      6 NAF         4.3280    0.3080   -0.9400 n2        1 05T     -0.582100
      7 CAG         1.9520    0.0340    1.5180 c3        1 05T     -0.107900
      8 CAH         1.4060   -1.2190    2.1820 c3        1 05T     -0.085400
      9 CAI        -0.1180   -1.2750    2.1180 c3        1 05T     -0.096700
     10 CAJ        -0.5720   -1.1700    0.6690 c3        1 05T     -0.085400
     11 CAK        -0.5740   -2.5930    2.7600 c3        1 05T      0.100800
     12 NAL        -1.9940   -2.6060    3.2100 n4        1 05T     -0.837600
     13 HAA        -0.3950    0.0960   -1.0670 hc        1 05T      0.089700
     14 HAAA       -0.4400    0.9910    0.5200 hc        1 05T      0.089700
     15 HAB         1.8840   -0.8210   -0.5130 hx        1 05T      0.119700
     16 HNAC        2.0420    2.1070    0.0110 hn        1 05T      0.483300
     17 HNAE        4.8130    2.0680   -2.5340 hn        1 05T      0.517467
     18 HNAA        3.2260    2.1540   -3.0750 hn        1 05T      0.517467
     19 HNAF        4.2270   -0.4460   -0.2860 hn        1 05T      0.538400
     20 HAG         3.0710    0.0220    1.6060 hc        1 05T      0.089700
     21 HAGA        1.5750    0.9380    2.0700 hc        1 05T      0.089700
     22 HAH         1.8400   -2.1340    1.6960 hc        1 05T      0.091200
     23 HAHA        1.7460   -1.2160    3.2560 hc        1 05T      0.091200
     24 HAI        -0.5300   -0.4010    2.7000 hc        1 05T      0.088700
     25 HAJ        -0.2400   -2.0780    0.0960 hc        1 05T      0.091200
     26 HAJA       -1.6930   -1.1290    0.6120 hc        1 05T      0.091200
     27 HAK         0.0640   -2.8040    3.6730 hx        1 05T      0.129700
     28 HAKA       -0.4390   -3.4450    2.0300 hx        1 05T      0.129700
     29 HNAL       -2.6310   -2.4450    2.4210 hn        1 05T      0.476800
     30 H2         -2.2130   -3.5250    3.6260 hn        1 05T      0.476800
     31 HAC2        1.3810    1.5450   -1.4250 hn        1 05T      0.483300
     32 HAE3        3.7600    3.1700   -1.8290 hn        1 05T      0.517467
     33 HAL3       -2.1600   -1.8810    3.9200 hn        1 05T      0.476800
@<TRIPOS>BOND
     1    1    2 1   
     2    1   10 1   
     3    1   13 1   
     4    1   14 1   
     5    2    3 1   
     6    2    7 1   
     7    2   15 1   
     8    3    4 1   
     9    3   16 1   
    10    3   31 1   
    11    4    5 1   
    12    4    6 2   
    13    5   17 1   
    14    5   18 1   
    15    5   32 1   
    16    6   19 1   
    17    7    8 1   
    18    7   20 1   
    19    7   21 1   
    20    8    9 1   
    21    8   22 1   
    22    8   23 1   
    23    9   10 1   
    24    9   11 1   
    25    9   24 1   
    26   10   25 1   
    27   10   26 1   
    28   11   12 1   
    29   11   27 1   
    30   11   28 1   
    31   12   29 1   
    32   12   30 1   
    33   12   33 1   
@<TRIPOS>SUBSTRUCTURE
     1 05T         1 TEMP              0 ****  ****    0 ROOT
