@<TRIPOS>MOLECULE
05T
   33    33     1     0     0
SMALL
bcc


@<TRIPOS>ATOM
      1 CAA        -0.0310    0.0840   -0.0050 c3        1 05T     -0.107900
      2 CAB         1.5060    0.0850    0.0570 c3        1 05T      0.128500
      3 NAC         2.0470    1.3340   -0.6540 ny        1 05T     -0.792000
      4 CAD         3.4460    1.1880   -1.2010 c2        1 05T      0.612100
      5 NAE         3.8300    2.2440   -2.2080 nz        1 05T     -0.822600
      6 NAF         4.3340    0.3220   -0.9240 n2        1 05T     -0.582100
      7 CAG         1.9480    0.0320    1.5230 c3        1 05T     -0.107900
      8 CAH         1.4020   -1.2250    2.1790 c3        1 05T     -0.085400
      9 CAI        -0.1210   -1.2840    2.1080 c3        1 05T     -0.096700
     10 CAJ        -0.5700   -1.1730    0.6580 c3        1 05T     -0.085400
     11 CAK        -0.5780   -2.6060    2.7430 c3        1 05T      0.100800
     12 NAL        -2.0000   -2.6230    3.1870 nz        1 05T     -0.837600
     13 HAA        -0.3880    0.1010   -1.0710 hc        1 05T      0.089700
     14 HAAA       -0.4420    0.9890    0.5200 hc        1 05T      0.089700
     15 HAB         1.8900   -0.8130   -0.5120 hx        1 05T      0.119700
     16 HNAC        1.3870    1.5550   -1.4160 hn        1 05T      0.483300
     17 HNAE        3.7650    3.1890   -1.7970 hn        1 05T      0.517467
     18 HNAA        4.8230    2.0930   -2.5040 hn        1 05T      0.517467
     19 HNAF        4.2300   -0.4370   -0.2750 hn        1 05T      0.538400
     20 HAG         3.0660    0.0210    1.6160 hc        1 05T      0.089700
     21 HAGA        1.5670    0.9330    2.0780 hc        1 05T      0.089700
     22 HAH         1.7370   -1.2260    3.2540 hc        1 05T      0.091200
     23 HAHA        1.8400   -2.1370    1.6900 hc        1 05T      0.091200
     24 HAI        -0.5380   -0.4140    2.6920 hc        1 05T      0.088700
     25 HAJ        -0.2340   -2.0780    0.0820 hc        1 05T      0.091200
     26 HAJA       -1.6910   -1.1340    0.5970 hc        1 05T      0.091200
     27 HAK        -0.4390   -3.4540    2.0090 hx        1 05T      0.129700
     28 HAKA        0.0560   -2.8200    3.6570 hx        1 05T      0.129700
     29 HNAL       -2.2190   -3.5450    3.5970 hn        1 05T      0.476800
     30 H2         -2.6340   -2.4600    2.3970 hn        1 05T      0.476800
     31 HAC2        2.0390    2.1130    0.0250 hn        1 05T      0.483300
     32 HAE3        3.2390    2.1800   -3.0510 hn        1 05T      0.517467
     33 HAL3       -2.1700   -1.9030    3.8990 hn        1 05T      0.476800
@<TRIPOS>BOND
     1    1    2 1   
     2    1   10 1   
     3    1   13 1   
     4    1   14 1   
     5    2    3 1   
     6    2    7 1   
     7    2   15 1   
     8    3    4 1   
     9    3   16 1   
    10    3   31 1   
    11    4    5 1   
    12    4    6 2   
    13    5   17 1   
    14    5   18 1   
    15    5   32 1   
    16    6   19 1   
    17    7    8 1   
    18    7   20 1   
    19    7   21 1   
    20    8    9 1   
    21    8   22 1   
    22    8   23 1   
    23    9   10 1   
    24    9   11 1   
    25    9   24 1   
    26   10   25 1   
    27   10   26 1   
    28   11   12 1   
    29   11   27 1   
    30   11   28 1   
    31   12   29 1   
    32   12   30 1   
    33   12   33 1   
@<TRIPOS>SUBSTRUCTURE
     1 05T         1 TEMP              0 ****  ****    0 ROOT
