@<TRIPOS>MOLECULE
05T
   30    29     1     0     0
SMALL
bcc


@<TRIPOS>ATOM
      1 CAA        -0.9930    0.0880   -0.9160 c3        1 05T     -0.094400
      2 CAB         0.1930   -0.5460   -0.4280 c3        1 05T      0.185500
      3 NAC         1.0380   -1.0410   -1.7880 nh        1 05T     -0.740000
      4 CAD         1.6970   -0.0410   -2.6660 c2        1 05T      0.293000
      5 NAE         3.0870    0.3400   -2.4250 nh        1 05T     -0.824600
      6 NAF         1.0280    0.4980   -3.6740 n1        1 05T     -0.314000
      7 CAG         1.1140    0.0430    0.3870 c3        1 05T     -0.094400
      8 CAH         0.4490    0.9240    1.4430 c3        1 05T     -0.069900
      9 CAI        -1.1180    0.5790    1.6630 c3        1 05T     -0.062700
     10 CAJ        -1.6210    0.9480    0.1260 c3        1 05T     -0.069900
     11 CAK        -1.2970   -0.6670    1.9520 c3        1 05T      0.160800
     12 NAL        -2.0490   -0.7680    3.1430 n3        1 05T     -0.917800
     13 HAA        -1.6500   -0.6170   -1.2030 hc        1 05T      0.052200
     14 HAAA       -0.7590    0.6480   -1.6960 hc        1 05T      0.052200
     15 HAB        -0.1060   -1.3630    0.0380 h1        1 05T      0.056700
     16 HNAC        1.1590   -1.9530   -1.9530 hn        1 05T      0.376800
     17 HNAE        3.3140    1.2340   -2.3290 hn        1 05T      0.386800
     18 HNAA        3.7420   -0.3180   -2.3510 hn        1 05T      0.386800
     19 HNAF        0.1530    0.2540   -3.8280 DU        1 05T      0.158000
     20 HAG         1.6340   -0.6560    0.8380 hc        1 05T      0.052200
     21 HAGA        1.7030    0.5770   -0.1420 hc        1 05T      0.052200
     22 HAH         0.5270    1.8260    1.1770 hc        1 05T      0.045700
     23 HAHA        0.9160    0.8050    2.2870 hc        1 05T      0.045700
     24 HAI        -1.5250    1.1700    2.3230 hc        1 05T      0.042700
     25 HAJ        -1.4080    1.8620   -0.0570 hc        1 05T      0.045700
     26 HAJA       -2.5680    0.8380    0.0790 hc        1 05T      0.045700
     27 HAK        -0.4110   -1.1060    2.0800 h1        1 05T      0.025200
     28 HAKA       -1.7850   -1.1150    1.2100 h1        1 05T      0.025200
     29 HNAL       -2.8700   -1.1390    2.9590 hn        1 05T      0.348800
     30 H2         -1.5960   -1.3030    3.7500 hn        1 05T      0.348800
@<TRIPOS>BOND
     1    1    2 1   
     2    1   10 1   
     3    1   13 1   
     4    1   14 1   
     5    2    3 1   
     6    2    7 1   
     7    2   15 1   
     8    3    4 1   
     9    3   16 1   
    10    4    5 1   
    11    4    6 2   
    12    5   17 1   
    13    5   18 1   
    14    7    8 1   
    15    7   20 1   
    16    7   21 1   
    17    8    9 1   
    18    8   22 1   
    19    8   23 1   
    20    9   10 1   
    21    9   11 1   
    22    9   24 1   
    23   10   25 1   
    24   10   26 1   
    25   11   12 1   
    26   11   27 1   
    27   11   28 1   
    28   12   29 1   
    29   12   30 1   
@<TRIPOS>SUBSTRUCTURE
     1 05T         1 TEMP              0 ****  ****    0 ROOT
