@<TRIPOS>MOLECULE
05T
   30    30     1     0     0
SMALL
bcc


@<TRIPOS>ATOM
      1 CAA        -0.2780    1.4520   -0.0320 c3        1 05T     -0.091900
      2 CAB         0.7050    0.2690   -0.1280 c3        1 05T      0.196500
      3 NAC         2.0480    0.7120    0.2260 nh        1 05T     -0.792200
      4 CAD         3.1660   -0.1230   -0.1230 c2        1 05T      0.749100
      5 NAE         4.4200    0.2950    0.4450 nh        1 05T     -0.936800
      6 NAF         3.0170   -1.1720   -0.8950 n2        1 05T     -0.875100
      7 CAG         0.1640   -0.8850    0.7320 c3        1 05T     -0.091900
      8 CAH        -1.2130   -1.3000    0.2610 c3        1 05T     -0.072400
      9 CAI        -2.1920   -0.1350    0.3040 c3        1 05T     -0.070700
     10 CAJ        -1.6530    1.0320   -0.5070 c3        1 05T     -0.072400
     11 CAK        -3.5500   -0.6080   -0.2340 c3        1 05T      0.161800
     12 NAL        -4.6350    0.3060    0.0290 n3        1 05T     -0.916800
     13 HAA        -0.3400    1.8110    1.0290 hc        1 05T      0.047450
     14 HAAA        0.0870    2.3040   -0.6610 hc        1 05T      0.047450
     15 HAB         0.7250   -0.0720   -1.2060 h1        1 05T      0.087700
     16 HNAC        2.0870    1.0020    1.1860 hn        1 05T      0.386800
     17 HNAE        4.4490    1.2390    0.7650 hn        1 05T      0.388300
     18 HNAA        5.2040    0.0780   -0.1310 hn        1 05T      0.388300
     19 HNAF        3.8600   -1.6290   -1.1640 hn        1 05T      0.388400
     20 HAG         0.8540   -1.7660    0.6670 hc        1 05T      0.047450
     21 HAGA        0.1150   -0.5660    1.8060 hc        1 05T      0.047450
     22 HAH        -1.1480   -1.6970   -0.7860 hc        1 05T      0.042950
     23 HAHA       -1.5910   -2.1300    0.9140 hc        1 05T      0.042950
     24 HAI        -2.3120    0.1940    1.3740 hc        1 05T      0.064700
     25 HAJ        -2.3450    1.9110   -0.4200 hc        1 05T      0.042950
     26 HAJA       -1.6050    0.7450   -1.5910 hc        1 05T      0.042950
     27 HAK        -3.4270   -0.8300   -1.3370 h1        1 05T      0.025700
     28 HAKA       -3.8110   -1.5820    0.2720 h1        1 05T      0.025700
     29 HNAL       -4.4130    1.2320   -0.2790 hn        1 05T      0.347800
     30 H2         -5.4670   -0.0020   -0.4330 hn        1 05T      0.347800
@<TRIPOS>BOND
     1    1    2 1   
     2    1   10 1   
     3    1   13 1   
     4    1   14 1   
     5    2    3 1   
     6    2    7 1   
     7    2   15 1   
     8    3    4 1   
     9    3   16 1   
    10    4    5 1   
    11    4    6 2   
    12    5   17 1   
    13    5   18 1   
    14    6   19 1   
    15    7    8 1   
    16    7   20 1   
    17    7   21 1   
    18    8    9 1   
    19    8   22 1   
    20    8   23 1   
    21    9   10 1   
    22    9   11 1   
    23    9   24 1   
    24   10   25 1   
    25   10   26 1   
    26   11   12 1   
    27   11   27 1   
    28   11   28 1   
    29   12   29 1   
    30   12   30 1   
@<TRIPOS>SUBSTRUCTURE
     1 05T         1 TEMP              0 ****  ****    0 ROOT
