@<TRIPOS>MOLECULE
05U
   33    32     1     0     0
SMALL
bcc


@<TRIPOS>ATOM
      1 N3         -0.0600   -0.1390   -0.1570 n4        1 05U     -0.834600
      2 C11         1.4310   -0.0050   -0.0220 c3        1 05U      0.124500
      3 C12         1.9480    1.2560   -0.7160 c3        1 05U     -0.113400
      4 C13         1.5760    1.3730   -2.1870 c3        1 05U     -0.078700
      5 C15         2.2700    2.5890   -2.7730 c3        1 05U     -0.101100
      6 C14         1.9450    0.1340   -2.9740 c3        1 05U     -0.101100
      7 C16         1.8330    0.0210    1.4750 c3        1 05U      0.122100
      8 O6          1.0840    1.0890    2.0440 oh        1 05U     -0.631800
      9 C17         1.5450   -1.2900    2.2190 c3        1 05U     -0.110700
     10 C23         2.0170   -2.5020    1.4470 c3        1 05U     -0.102600
     11 C18         2.2160   -1.2520    3.5800 c3        1 05U     -0.102600
     12 H33        -0.3210   -0.1290   -1.1470 hn        1 05U      0.463467
     13 H34         1.8930   -0.9160   -0.5100 hx        1 05U      0.117700
     14 H35         1.5860    2.1640   -0.1610 hc        1 05U      0.092700
     15 H36         3.0690    1.2360   -0.6250 hc        1 05U      0.092700
     16 H37         0.4650    1.5440   -2.2790 hc        1 05U      0.030700
     17 H38         1.9460    2.7410   -3.8320 hc        1 05U      0.050367
     18 H39         2.0150    3.5060   -2.1890 hc        1 05U      0.050367
     19 H40         3.3780    2.4530   -2.7600 hc        1 05U      0.050367
     20 H41         1.7900    0.3150   -4.0660 hc        1 05U      0.050367
     21 H42         3.0190   -0.1300   -2.8150 hc        1 05U      0.050367
     22 H43         1.3160   -0.7390   -2.6760 hc        1 05U      0.050367
     23 H44         2.9370    0.2480    1.5180 h1        1 05U      0.089700
     24 H45         1.4310    1.2530    2.9310 ho        1 05U      0.451000
     25 H46         0.4330   -1.3660    2.3860 hc        1 05U      0.049700
     26 H47         3.0690   -2.3670    1.0950 hc        1 05U      0.052200
     27 H48         1.3620   -2.7010    0.5640 hc        1 05U      0.052200
     28 H49         1.9860   -3.4070    2.1040 hc        1 05U      0.052200
     29 H50         1.8480   -0.3870    4.1810 hc        1 05U      0.052200
     30 H51         1.9860   -2.1890    4.1440 hc        1 05U      0.052200
     31 H52         3.3250   -1.1720    3.4720 hc        1 05U      0.052200
     32 H2         -0.5050    0.6520    0.3270 hn        1 05U      0.463467
     33 H331       -0.3650   -1.0120    0.2800 hn        1 05U      0.463467
@<TRIPOS>BOND
     1    1    2 1   
     2    1   12 1   
     3    1   32 1   
     4    1   33 1   
     5    2    3 1   
     6    2    7 1   
     7    2   13 1   
     8    3    4 1   
     9    3   14 1   
    10    3   15 1   
    11    4    5 1   
    12    4    6 1   
    13    4   16 1   
    14    5   17 1   
    15    5   18 1   
    16    5   19 1   
    17    6   20 1   
    18    6   21 1   
    19    6   22 1   
    20    7    8 1   
    21    7    9 1   
    22    7   23 1   
    23    8   24 1   
    24    9   10 1   
    25    9   11 1   
    26    9   25 1   
    27   10   26 1   
    28   10   27 1   
    29   10   28 1   
    30   11   29 1   
    31   11   30 1   
    32   11   31 1   
@<TRIPOS>SUBSTRUCTURE
     1 05U         1 TEMP              0 ****  ****    0 ROOT
