@<TRIPOS>MOLECULE
05U
   33    32     1     0     0
SMALL
bcc


@<TRIPOS>ATOM
      1 N3         -0.0570   -0.1770   -0.1470 nz        1 05U     -0.834600
      2 C11         1.4320   -0.0100   -0.0210 c3        1 05U      0.124500
      3 C12         1.9180    1.2570   -0.7250 c3        1 05U     -0.113400
      4 C13         1.5360    1.3570   -2.1950 c3        1 05U     -0.078700
      5 C15         2.2020    2.5830   -2.7920 c3        1 05U     -0.101100
      6 C14         1.9280    0.1210   -2.9760 c3        1 05U     -0.101100
      7 C16         1.8400    0.0340    1.4750 c3        1 05U      0.121100
      8 O6          1.0710    1.0880    2.0400 oh        1 05U     -0.631800
      9 C17         1.5840   -1.2780    2.2280 c3        1 05U     -0.110700
     10 C23         2.0770   -2.4860    1.4610 c3        1 05U     -0.102600
     11 C18         2.2610   -1.2190    3.5850 c3        1 05U     -0.102600
     12 H33        -0.3230   -0.1780   -1.1360 hn        1 05U      0.463467
     13 H34         1.9090   -0.9150   -0.5050 hx        1 05U      0.117700
     14 H35         1.5400    2.1600   -0.1730 hc        1 05U      0.092700
     15 H36         3.0400    1.2600   -0.6390 hc        1 05U      0.092700
     16 H37         0.4220    1.5040   -2.2820 hc        1 05U      0.030700
     17 H38         1.8690    2.7210   -3.8490 hc        1 05U      0.050367
     18 H39         1.9300    3.4980   -2.2120 hc        1 05U      0.050367
     19 H40         3.3130    2.4710   -2.7830 hc        1 05U      0.050367
     20 H41         1.7640    0.2910   -4.0690 hc        1 05U      0.050367
     21 H42         3.0080   -0.1200   -2.8210 hc        1 05U      0.050367
     22 H43         1.3190   -0.7640   -2.6690 hc        1 05U      0.050367
     23 H44         2.9390    0.2830    1.5100 h1        1 05U      0.089700
     24 H45         1.4200    1.2660    2.9240 ho        1 05U      0.451000
     25 H46         0.4740   -1.3770    2.4010 hc        1 05U      0.049700
     26 H47         3.1230   -2.3310    1.1020 hc        1 05U      0.052200
     27 H48         1.4220   -2.7040    0.5830 hc        1 05U      0.052200
     28 H49         2.0680   -3.3870    2.1230 hc        1 05U      0.052200
     29 H50         1.8780   -0.3570    4.1830 hc        1 05U      0.052200
     30 H51         2.0520   -2.1570    4.1560 hc        1 05U      0.052200
     31 H52         3.3670   -1.1160    3.4700 hc        1 05U      0.052200
     32 H2         -0.5160    0.6070    0.3340 hn        1 05U      0.463467
     33 H331       -0.3420   -1.0540    0.2970 hn        1 05U      0.463467
@<TRIPOS>BOND
     1    1    2 1   
     2    1   12 1   
     3    1   32 1   
     4    1   33 1   
     5    2    3 1   
     6    2    7 1   
     7    2   13 1   
     8    3    4 1   
     9    3   14 1   
    10    3   15 1   
    11    4    5 1   
    12    4    6 1   
    13    4   16 1   
    14    5   17 1   
    15    5   18 1   
    16    5   19 1   
    17    6   20 1   
    18    6   21 1   
    19    6   22 1   
    20    7    8 1   
    21    7    9 1   
    22    7   23 1   
    23    8   24 1   
    24    9   10 1   
    25    9   11 1   
    26    9   25 1   
    27   10   26 1   
    28   10   27 1   
    29   10   28 1   
    30   11   29 1   
    31   11   30 1   
    32   11   31 1   
@<TRIPOS>SUBSTRUCTURE
     1 05U         1 TEMP              0 ****  ****    0 ROOT
