@<TRIPOS>MOLECULE
05U
   33    32     1     0     0
SMALL
bcc


@<TRIPOS>ATOM
      1 N3         -0.0590   -0.1550   -0.1490 n4        1 05U     -0.834600
      2 C11         1.4320   -0.0080   -0.0210 c3        1 05U      0.124500
      3 C12         1.9380    1.2390   -0.7470 c3        1 05U     -0.113400
      4 C13         1.5620    1.3170   -2.2190 c3        1 05U     -0.078700
      5 C15         2.2480    2.5230   -2.8360 c3        1 05U     -0.101100
      6 C14         1.9390    0.0610   -2.9760 c3        1 05U     -0.101100
      7 C16         1.8360    0.0570    1.4750 c3        1 05U      0.121100
      8 O6          1.0810    1.1330    2.0180 oh        1 05U     -0.631800
      9 C17         1.5580   -1.2370    2.2510 c3        1 05U     -0.110700
     10 C23         2.0350   -2.4650    1.5080 c3        1 05U     -0.102600
     11 C18         2.2320   -1.1620    3.6090 c3        1 05U     -0.102600
     12 H33        -0.5080    0.6440    0.3160 hn        1 05U      0.463467
     13 H34         1.8980   -0.9290   -0.4870 hx        1 05U      0.117700
     14 H35         3.0600    1.2280   -0.6570 hc        1 05U      0.092700
     15 H36         1.5720    2.1580   -0.2130 hc        1 05U      0.092700
     16 H37         0.4500    1.4780   -2.3120 hc        1 05U      0.030700
     17 H38         3.3570    2.3950   -2.8220 hc        1 05U      0.050367
     18 H39         1.9200    2.6460   -3.8970 hc        1 05U      0.050367
     19 H40         1.9880    3.4520   -2.2740 hc        1 05U      0.050367
     20 H41         1.7800    0.2140   -4.0720 hc        1 05U      0.050367
     21 H42         1.3160   -0.8090   -2.6550 hc        1 05U      0.050367
     22 H43         3.0150   -0.1910   -2.8130 hc        1 05U      0.050367
     23 H44         2.9380    0.2920    1.5100 h1        1 05U      0.089700
     24 H45         1.4290    1.3210    2.9010 ho        1 05U      0.451000
     25 H46         0.4470   -1.3160    2.4230 hc        1 05U      0.049700
     26 H47         2.0120   -3.3540    2.1870 hc        1 05U      0.052200
     27 H48         3.0850   -2.3330    1.1500 hc        1 05U      0.052200
     28 H49         1.3790   -2.6900    0.6320 hc        1 05U      0.052200
     29 H50         2.0090   -2.0860    4.1970 hc        1 05U      0.052200
     30 H51         3.3400   -1.0780    3.4960 hc        1 05U      0.052200
     31 H52         1.8610   -0.2840    4.1900 hc        1 05U      0.052200
     32 H2         -0.3580   -1.0200    0.3100 hn        1 05U      0.463467
     33 H331       -0.3220   -0.1720   -1.1380 hn        1 05U      0.463467
@<TRIPOS>BOND
     1    1    2 1   
     2    1   12 1   
     3    1   32 1   
     4    1   33 1   
     5    2    3 1   
     6    2    7 1   
     7    2   13 1   
     8    3    4 1   
     9    3   14 1   
    10    3   15 1   
    11    4    5 1   
    12    4    6 1   
    13    4   16 1   
    14    5   17 1   
    15    5   18 1   
    16    5   19 1   
    17    6   20 1   
    18    6   21 1   
    19    6   22 1   
    20    7    8 1   
    21    7    9 1   
    22    7   23 1   
    23    8   24 1   
    24    9   10 1   
    25    9   11 1   
    26    9   25 1   
    27   10   26 1   
    28   10   27 1   
    29   10   28 1   
    30   11   29 1   
    31   11   30 1   
    32   11   31 1   
@<TRIPOS>SUBSTRUCTURE
     1 05U         1 TEMP              0 ****  ****    0 ROOT
