@<TRIPOS>MOLECULE
05W
   34    33     1     0     0
SMALL
bcc


@<TRIPOS>ATOM
      1 N4         -0.0090   -0.3170   -0.0410 n4        1 05W     -0.832600
      2 C16         1.4650   -0.0480    0.0480 c3        1 05W      0.131500
      3 C25         1.8630    1.2070   -0.7310 c3        1 05W     -0.113400
      4 C26         1.4640    1.2010   -2.1980 c3        1 05W     -0.076700
      5 C28         2.0370    2.4370   -2.8680 c3        1 05W     -0.101100
      6 C27         1.9350   -0.0460   -2.9170 c3        1 05W     -0.101100
      7 C17         1.8980    0.1000    1.5290 c3        1 05W      0.127100
      8 C22         1.6870   -1.1620    2.3770 c3        1 05W     -0.120700
      9 C23         2.4360   -1.0210    3.6880 c3        1 05W     -0.104100
     10 C24         2.1480   -2.4380    1.6780 c3        1 05W      0.127400
     11 O7          1.1610   -2.7950    0.7140 oh        1 05W     -0.673800
     12 O4          1.1090    1.1660    2.0440 oh        1 05W     -0.626800
     13 H12        -0.2900   -0.3640   -1.0230 hn        1 05W      0.465467
     14 H13         1.9860   -0.9530   -0.3930 hx        1 05W      0.125700
     15 H14         2.9830    1.2870   -0.6580 hc        1 05W      0.088700
     16 H15         1.4320    2.1140   -0.2260 hc        1 05W      0.088700
     17 H16         0.3410    1.2650   -2.2800 hc        1 05W      0.030700
     18 H17         3.1530    2.4040   -2.8650 hc        1 05W      0.049700
     19 H18         1.6890    2.4930   -3.9280 hc        1 05W      0.049700
     20 H19         1.7050    3.3600   -2.3360 hc        1 05W      0.049700
     21 H20         3.0310   -0.2000   -2.7640 hc        1 05W      0.049700
     22 H21         1.3940   -0.9530   -2.5530 hc        1 05W      0.049700
     23 H22         1.7470    0.0520   -4.0150 hc        1 05W      0.049700
     24 H23         2.9890    0.3810    1.5290 h1        1 05W      0.084700
     25 H24         0.5870   -1.2560    2.6030 hc        1 05W      0.068700
     26 H25         2.1100   -0.0990    4.2290 hc        1 05W      0.057367
     27 H26         3.5370   -0.9630    3.5120 hc        1 05W      0.057367
     28 H27         2.2280   -1.8990    4.3480 hc        1 05W      0.057367
     29 H28         2.2690   -3.2600    2.4340 h1        1 05W      0.059200
     30 H29         3.1250   -2.2800    1.1470 h1        1 05W      0.059200
     31 H30         1.1780   -3.7550    0.6190 ho        1 05W      0.444000
     32 H31         1.4770    1.4190    2.9010 ho        1 05W      0.446000
     33 H2         -0.5170    0.4380    0.4320 hn        1 05W      0.465467
     34 H43        -0.2120   -1.2130    0.4230 hn        1 05W      0.465467
@<TRIPOS>BOND
     1    1    2 1   
     2    1   13 1   
     3    1   33 1   
     4    1   34 1   
     5    2    3 1   
     6    2    7 1   
     7    2   14 1   
     8    3    4 1   
     9    3   15 1   
    10    3   16 1   
    11    4    5 1   
    12    4    6 1   
    13    4   17 1   
    14    5   18 1   
    15    5   19 1   
    16    5   20 1   
    17    6   21 1   
    18    6   22 1   
    19    6   23 1   
    20    7    8 1   
    21    7   12 1   
    22    7   24 1   
    23    8    9 1   
    24    8   10 1   
    25    8   25 1   
    26    9   26 1   
    27    9   27 1   
    28    9   28 1   
    29   10   11 1   
    30   10   29 1   
    31   10   30 1   
    32   11   31 1   
    33   12   32 1   
@<TRIPOS>SUBSTRUCTURE
     1 05W         1 TEMP              0 ****  ****    0 ROOT
