@<TRIPOS>MOLECULE
05W
   34    33     1     0     0
SMALL
bcc


@<TRIPOS>ATOM
      1 N4         -0.0090   -0.3020   -0.0580 nz        1 05W     -0.832600
      2 C16         1.4660   -0.0460    0.0460 c3        1 05W      0.131500
      3 C25         1.8830    1.2070   -0.7260 c3        1 05W     -0.113400
      4 C26         1.4980    1.2070   -2.1980 c3        1 05W     -0.076700
      5 C28         2.0890    2.4390   -2.8590 c3        1 05W     -0.101100
      6 C27         1.9650   -0.0420   -2.9140 c3        1 05W     -0.101100
      7 C17         1.8860    0.0960    1.5320 c3        1 05W      0.127100
      8 C22         1.6550   -1.1670    2.3740 c3        1 05W     -0.120700
      9 C23         2.3920   -1.0340    3.6940 c3        1 05W     -0.104100
     10 C24         2.1120   -2.4460    1.6770 c3        1 05W      0.127400
     11 O7          1.1330   -2.7920    0.7030 oh        1 05W     -0.673800
     12 O4          1.1010    1.1670    2.0410 oh        1 05W     -0.626800
     13 H12        -0.2810   -0.3450   -1.0430 hn        1 05W      0.465467
     14 H13         1.9840   -0.9540   -0.3920 hx        1 05W      0.125700
     15 H14         1.4550    2.1160   -0.2240 hc        1 05W      0.088700
     16 H15         3.0030    1.2770   -0.6430 hc        1 05W      0.088700
     17 H16         0.3770    1.2820   -2.2900 hc        1 05W      0.030700
     18 H17         1.7600    3.3650   -2.3280 hc        1 05W      0.049700
     19 H18         3.2050    2.3960   -2.8450 hc        1 05W      0.049700
     20 H19         1.7520    2.5010   -3.9220 hc        1 05W      0.049700
     21 H20         1.4130   -0.9450   -2.5580 hc        1 05W      0.049700
     22 H21         3.0580   -0.2060   -2.7510 hc        1 05W      0.049700
     23 H22         1.7890    0.0600   -4.0140 hc        1 05W      0.049700
     24 H23         2.9790    0.3670    1.5430 h1        1 05W      0.084700
     25 H24         0.5520   -1.2520    2.5890 hc        1 05W      0.068700
     26 H25         3.4960   -0.9860    3.5290 hc        1 05W      0.057367
     27 H26         2.1710   -1.9120    4.3490 hc        1 05W      0.057367
     28 H27         2.0690   -0.1110    4.2330 hc        1 05W      0.057367
     29 H28         2.2190   -3.2690    2.4330 h1        1 05W      0.059200
     30 H29         3.0960   -2.2950    1.1570 h1        1 05W      0.059200
     31 H30         1.1420   -3.7510    0.6060 ho        1 05W      0.444000
     32 H31         1.4630    1.4160    2.9020 ho        1 05W      0.446000
     33 H2         -0.5150    0.4560    0.4110 hn        1 05W      0.465467
     34 H43        -0.2250   -1.1970    0.4020 hn        1 05W      0.465467
@<TRIPOS>BOND
     1    1    2 1   
     2    1   13 1   
     3    1   33 1   
     4    1   34 1   
     5    2    3 1   
     6    2    7 1   
     7    2   14 1   
     8    3    4 1   
     9    3   15 1   
    10    3   16 1   
    11    4    5 1   
    12    4    6 1   
    13    4   17 1   
    14    5   18 1   
    15    5   19 1   
    16    5   20 1   
    17    6   21 1   
    18    6   22 1   
    19    6   23 1   
    20    7    8 1   
    21    7   12 1   
    22    7   24 1   
    23    8    9 1   
    24    8   10 1   
    25    8   25 1   
    26    9   26 1   
    27    9   27 1   
    28    9   28 1   
    29   10   11 1   
    30   10   29 1   
    31   10   30 1   
    32   11   31 1   
    33   12   32 1   
@<TRIPOS>SUBSTRUCTURE
     1 05W         1 TEMP              0 ****  ****    0 ROOT
