@<TRIPOS>MOLECULE
05W
   34    33     1     0     0
SMALL
bcc


@<TRIPOS>ATOM
      1 N4         -0.0080   -0.3080   -0.0630 n4        1 05W     -0.832600
      2 C16         1.4670   -0.0470    0.0440 c3        1 05W      0.131500
      3 C25         1.8830    1.2010   -0.7350 c3        1 05W     -0.113400
      4 C26         1.5040    1.1890   -2.2080 c3        1 05W     -0.076700
      5 C28         2.0940    2.4180   -2.8770 c3        1 05W     -0.101100
      6 C27         1.9760   -0.0640   -2.9130 c3        1 05W     -0.101100
      7 C17         1.8800    0.1070    1.5310 c3        1 05W      0.127100
      8 C22         1.6490   -1.1500    2.3820 c3        1 05W     -0.120700
      9 C23         2.3810   -1.0060    3.7040 c3        1 05W     -0.104100
     10 C24         2.1120   -2.4330    1.6970 c3        1 05W      0.127400
     11 O7          1.1370   -2.7880    0.7210 oh        1 05W     -0.673800
     12 O4          1.0900    1.1800    2.0290 oh        1 05W     -0.626800
     13 H12        -0.2760   -0.3590   -1.0490 hn        1 05W      0.465467
     14 H13         1.9880   -0.9580   -0.3840 hx        1 05W      0.125700
     15 H14         1.4510    2.1130   -0.2410 hc        1 05W      0.088700
     16 H15         3.0020    1.2750   -0.6480 hc        1 05W      0.088700
     17 H16         0.3830    1.2600   -2.3060 hc        1 05W      0.030700
     18 H17         1.7620    3.3460   -2.3540 hc        1 05W      0.049700
     19 H18         3.2100    2.3770   -2.8580 hc        1 05W      0.049700
     20 H19         1.7610    2.4700   -3.9420 hc        1 05W      0.049700
     21 H20         1.4250   -0.9660   -2.5520 hc        1 05W      0.049700
     22 H21         3.0690   -0.2240   -2.7450 hc        1 05W      0.049700
     23 H22         1.8040    0.0290   -4.0140 hc        1 05W      0.049700
     24 H23         2.9730    0.3810    1.5440 h1        1 05W      0.084700
     25 H24         0.5450   -1.2360    2.5940 hc        1 05W      0.068700
     26 H25         3.4850   -0.9560    3.5420 hc        1 05W      0.057367
     27 H26         2.1590   -1.8790    4.3650 hc        1 05W      0.057367
     28 H27         2.0540   -0.0790    4.2340 hc        1 05W      0.057367
     29 H28         2.2180   -3.2510    2.4590 h1        1 05W      0.059200
     30 H29         3.0980   -2.2840    1.1790 h1        1 05W      0.059200
     31 H30         1.1490   -3.7490    0.6310 ho        1 05W      0.444000
     32 H31         1.4480    1.4360    2.8890 ho        1 05W      0.446000
     33 H2         -0.5170    0.4530    0.3990 hn        1 05W      0.465467
     34 H43        -0.2230   -1.2000    0.4030 hn        1 05W      0.465467
@<TRIPOS>BOND
     1    1    2 1   
     2    1   13 1   
     3    1   33 1   
     4    1   34 1   
     5    2    3 1   
     6    2    7 1   
     7    2   14 1   
     8    3    4 1   
     9    3   15 1   
    10    3   16 1   
    11    4    5 1   
    12    4    6 1   
    13    4   17 1   
    14    5   18 1   
    15    5   19 1   
    16    5   20 1   
    17    6   21 1   
    18    6   22 1   
    19    6   23 1   
    20    7    8 1   
    21    7   12 1   
    22    7   24 1   
    23    8    9 1   
    24    8   10 1   
    25    8   25 1   
    26    9   26 1   
    27    9   27 1   
    28    9   28 1   
    29   10   11 1   
    30   10   29 1   
    31   10   30 1   
    32   11   31 1   
    33   12   32 1   
@<TRIPOS>SUBSTRUCTURE
     1 05W         1 TEMP              0 ****  ****    0 ROOT
