@<TRIPOS>MOLECULE
060
   16    15     1     0     0
SMALL
bcc


@<TRIPOS>ATOM
      1 C          -2.6870    0.4250   -1.2020 c3        1 060     -0.040000
      2 N           1.7550    0.2030    1.6400 n3        1 060     -0.883800
      3 S          -0.9620    0.0200   -1.2420 ss        1 060     -0.339200
      4 C1         -0.2920    0.1220    0.3960 c3        1 060      0.029700
      5 C2          1.2170    0.1030    0.3260 c3        1 060      0.022500
      6 O4          1.5450   -2.2770    0.3130 o         1 060     -0.837300
      7 O5          2.1880   -1.1800   -1.4580 o         1 060     -0.837300
      8 C13         1.6760   -1.1900   -0.3080 c         1 060      0.890600
      9 H          -3.0790    0.2730   -2.0880 h1        1 060      0.045033
     10 HA         -2.7960    1.3670   -0.9540 h1        1 060      0.045033
     11 HB         -3.1400   -0.1410   -0.5420 h1        1 060      0.045033
     12 HN          2.6600    0.0690    1.6100 hn        1 060      0.332300
     13 H1         -0.5880    0.9540    0.8180 h1        1 060      0.067700
     14 H1A        -0.6040   -0.6400    0.9240 h1        1 060      0.067700
     15 H2          1.5280    0.8580   -0.2110 h1        1 060      0.058700
     16 H3          1.5800    1.0360    1.9780 hn        1 060      0.332300
@<TRIPOS>BOND
     1    1    3 1   
     2    1    9 1   
     3    1   10 1   
     4    1   11 1   
     5    2    5 1   
     6    2   12 1   
     7    2   16 1   
     8    3    4 1   
     9    4    5 1   
    10    4   13 1   
    11    4   14 1   
    12    5    8 1   
    13    5   15 1   
    14    6    8 1   
    15    7    8 1   
@<TRIPOS>SUBSTRUCTURE
     1 060         1 TEMP              0 ****  ****    0 ROOT
