@<TRIPOS>MOLECULE
060
   16    15     1     0     0
SMALL
bcc


@<TRIPOS>ATOM
      1 C           3.2580    1.0260    0.3580 c3        1 060     -0.040000
      2 N          -0.5510   -1.9290   -0.1230 n3        1 060     -0.883800
      3 S           2.2510   -0.3000   -0.1880 ss        1 060     -0.339200
      4 C1          0.6680    0.1540    0.4940 c3        1 060      0.029700
      5 C2         -0.4640   -0.4840   -0.2920 c3        1 060      0.022500
      6 C13        -1.7870    0.2890    0.0610 c         1 060      0.890600
      7 H           3.3600    1.0400    1.4660 h1        1 060      0.045033
      8 HA          4.2630    0.8780   -0.0970 h1        1 060      0.045033
      9 HB          2.8530    2.0110    0.0340 h1        1 060      0.045033
     10 HN         -0.5690   -2.1370    0.8600 hn        1 060      0.332300
     11 H1          0.6370   -0.1480    1.5680 h1        1 060      0.067700
     12 H1A         0.5390    1.2650    0.4370 h1        1 060      0.067700
     13 H2         -0.2830   -0.3010   -1.3920 h1        1 060      0.058700
     14 H3         -1.4470   -2.2130   -0.4880 hn        1 060      0.332300
     15 O4         -1.7400    1.5500    0.0760 o         1 060     -0.837300
     16 O5         -2.8230   -0.3960    0.2880 o         1 060     -0.837300
@<TRIPOS>BOND
     1    1    3 1   
     2    1    7 1   
     3    1    8 1   
     4    1    9 1   
     5    2    5 1   
     6    2   10 1   
     7    2   14 1   
     8    3    4 1   
     9    4    5 1   
    10    4   11 1   
    11    4   12 1   
    12    5    6 1   
    13    5   13 1   
    14    6   15 1   
    15    6   16 1   
@<TRIPOS>SUBSTRUCTURE
     1 060         1 TEMP              0 ****  ****    0 ROOT
