@<TRIPOS>MOLECULE
061
   58    51     1     0     0
SMALL
bcc


@<TRIPOS>ATOM
      1 N1         -0.7010    3.7370   -0.2480 nc        1 061     -0.156500
      2 N2          0.6120    3.7120   -0.5030 nc        1 061     -0.040500
      3 N3          1.2560    4.1830    0.5800 nc        1 061     -0.040500
      4 N4          0.3360    4.4970    1.5030 nc        1 061     -0.156500
      5 C5         -0.8740    4.2220    0.9930 c2        1 061     -0.014000
      6 C6         -2.0900    4.4350    1.6220 c1        1 061     -0.020000
      7 C7         -2.8770    3.3520    2.0030 c1        1 061     -0.043000
      8 C8         -4.0900    3.5650    2.6480 c1        1 061     -0.115500
      9 C9         -4.5180    4.8620    2.9130 c1        1 061     -0.121750
     10 C10        -3.7330    5.9450    2.5330 c1        1 061     -0.121750
     11 C11        -2.5180    5.7310    1.8870 c1        1 061     -0.083000
     12 C12        -2.4360    2.0240    1.7380 c1        1 061     -0.043000
     13 C13        -1.8890    1.2600    2.7560 c1        1 061     -0.121750
     14 C14        -1.4280   -0.0320    2.4900 c1        1 061     -0.121750
     15 C15        -1.5180   -0.5530    1.2000 c1        1 061     -0.097000
     16 C16        -2.0650    0.2100    0.1820 c1        1 061     -0.123000
     17 C17        -2.5260    1.5030    0.4480 c1        1 061     -0.115500
     18 C18        -0.9750   -1.9860    0.8970 c3        1 061      0.004000
     19 N19         0.3450   -1.8880    0.2990 n         1 061     -0.289000
     20 C20         0.6010   -2.4980   -0.9110 c2        1 061      0.125000
     21 C21        -0.0450   -3.7200   -1.6200 c3        1 061     -0.118000
     22 C22         0.5960   -3.9090   -3.0090 c3        1 061     -0.151000
     23 C23        -0.0090   -5.1490   -3.6860 c3        1 061     -0.161000
     24 C24         0.8900   -5.5930   -4.8330 c3        1 061     -0.210000
     25 N25         1.8330   -2.3560   -1.5080 n1        1 061     -0.186000
     26 C26         2.8070   -1.6080   -0.9000 c1        1 061      0.015000
     27 C27         4.0580   -1.4160   -1.5400 c2        1 061     -0.089000
     28 C28         5.0280   -0.6110   -0.9460 c1        1 061     -0.117000
     29 C29         4.7690    0.0030    0.2740 c1        1 061      0.061000
     30 O30         5.9530    0.6110    0.7380 oh        1 061     -0.248000
     31 C31         3.5430   -0.1860    0.9010 c1        1 061     -0.153000
     32 C32         2.5550   -1.0050    0.2970 c1        1 061     -0.133000
     33 C33         1.3040   -1.1510    0.9010 c2        1 061      0.343000
     34 O34         1.0560   -0.5600    1.9360 o         1 061     -0.363000
     35 HN4         0.5040    4.8380    2.3330 DU        1 061      0.294000
     36 H8         -4.6390    2.8090    2.9130 ha        1 061      0.147000
     37 H9         -5.3730    5.0130    3.3680 ha        1 061      0.148250
     38 H10        -4.0350    6.8600    2.7200 ha        1 061      0.148250
     39 H11        -1.9670    6.4910    1.6210 ha        1 061      0.161000
     40 H13        -1.8250    1.6260    3.6650 ha        1 061      0.148250
     41 H14        -1.0420   -0.5720    3.2110 ha        1 061      0.148250
     42 H16        -2.1270   -0.1530   -0.7180 ha        1 061      0.138000
     43 H17        -2.9110    2.0410   -0.2680 ha        1 061      0.147000
     44 H181       -1.5770   -2.4380    0.2800 h1        1 061      0.119000
     45 H182       -0.9180   -2.5000    1.7360 h1        1 061      0.119000
     46 H211        0.1020   -4.5250   -1.0810 hc        1 061      0.102500
     47 H212       -1.0040   -3.5670   -1.7220 hc        1 061      0.102500
     48 H221        0.4220   -3.1210   -3.5570 hc        1 061      0.101500
     49 H222        1.5600   -4.0300   -2.9090 hc        1 061      0.101500
     50 H231       -0.9000   -4.9290   -4.0350 hc        1 061      0.075500
     51 H232       -0.0840   -5.8740   -3.0300 hc        1 061      0.075500
     52 H241        0.4110   -6.2530   -5.3880 hc        1 061      0.076000
     53 H242        1.7020   -5.9990   -4.4720 hc        1 061      0.076000
     54 H243        1.1280   -4.8180   -5.3810 hc        1 061      0.076000
     55 H27         4.2390   -1.8460   -2.3940 ha        1 061      0.158000
     56 H28         5.8670   -0.4290   -1.4160 ha        1 061      0.157000
     57 HOU         5.8560    1.5000    0.7290 ho        1 061      0.222000
     58 H31         3.3620    0.2450    1.7570 ha        1 061      0.160000
@<TRIPOS>BOND
     1    1    2 1   
     2    1    5 1   
     3    2    3 1   
     4    3    4 1   
     5    4    5 1   
     6    5    6 1   
     7    6   11 1   
     8    7    8 1   
     9    8   36 1   
    10    9   10 1   
    11    9   37 1   
    12   10   38 1   
    13   11   39 1   
    14   12   17 1   
    15   13   14 1   
    16   13   40 1   
    17   14   41 1   
    18   15   16 1   
    19   15   18 1   
    20   16   42 1   
    21   17   43 1   
    22   18   19 1   
    23   18   44 1   
    24   18   45 1   
    25   19   20 1   
    26   19   33 1   
    27   20   21 1   
    28   20   25 1   
    29   21   22 1   
    30   21   46 1   
    31   21   47 1   
    32   22   23 1   
    33   22   48 1   
    34   22   49 1   
    35   23   24 1   
    36   23   50 1   
    37   23   51 1   
    38   24   52 1   
    39   24   53 1   
    40   24   54 1   
    41   26   27 1   
    42   26   32 1   
    43   27   28 1   
    44   27   55 1   
    45   28   56 1   
    46   29   30 1   
    47   29   31 1   
    48   30   57 1   
    49   31   58 1   
    50   32   33 1   
    51   33   34 1   
@<TRIPOS>SUBSTRUCTURE
     1 061         1 TEMP              0 ****  ****    0 ROOT
