@<TRIPOS>MOLECULE
061
   58    62     1     0     0
SMALL
bcc


@<TRIPOS>ATOM
      1 N1         -2.3610    2.5020   -0.2090 nc        1 061     -0.374000
      2 N2         -1.5290    2.8170   -1.1950 nc        1 061     -0.053000
      3 N3         -0.7610    1.8420   -1.5280 nd        1 061     -0.197800
      4 N4         -1.0620    0.8020   -0.7420 na        1 061     -0.170400
      5 C5         -2.1030    1.1940    0.1260 cd        1 061      0.446000
      6 C6         -2.7190    0.3760    1.1610 ca        1 061     -0.127500
      7 C7         -2.8260   -1.0220    1.0450 cp        1 061     -0.022000
      8 C8         -3.4140   -1.7500    2.0890 ca        1 061     -0.120000
      9 C9         -3.8970   -1.1020    3.2230 ca        1 061     -0.109000
     10 C10        -3.8010    0.2850    3.3290 ca        1 061     -0.131000
     11 C11        -3.2140    1.0230    2.3040 ca        1 061     -0.083000
     12 C12        -2.3610   -1.7530   -0.1380 cp        1 061     -0.065000
     13 C13        -3.1450   -1.7950   -1.2980 ca        1 061     -0.124000
     14 C14        -2.7130   -2.5130   -2.4120 ca        1 061     -0.117000
     15 C15        -1.4970   -3.2010   -2.3790 ca        1 061     -0.104300
     16 C16        -0.7170   -3.1700   -1.2170 ca        1 061     -0.117000
     17 C17        -1.1440   -2.4490   -0.1040 ca        1 061     -0.124000
     18 C18        -1.0550   -4.0200   -3.5590 c3        1 061      0.127300
     19 N19         0.2130   -3.6300   -4.1410 n         1 061     -0.402300
     20 C20         0.2980   -2.6040   -5.1140 cc        1 061      0.495900
     21 C21        -1.0040   -1.9240   -5.5120 c3        1 061     -0.114700
     22 C22        -0.8200   -0.6680   -6.3380 c3        1 061     -0.072400
     23 C23        -2.1630   -0.0260   -6.6240 c3        1 061     -0.082400
     24 C24        -2.0050    1.2210   -7.4550 c3        1 061     -0.092100
     25 N25         1.4210   -2.2320   -5.6960 nd        1 061     -0.614100
     26 C26         2.6180   -2.8570   -5.3370 ca        1 061      0.151400
     27 C27         3.8340   -2.4720   -5.9560 ca        1 061     -0.082000
     28 C28         5.0210   -3.0870   -5.6010 ca        1 061     -0.173000
     29 C29         5.0310   -4.1000   -4.6230 ca        1 061      0.101100
     30 O30         6.1850   -4.7440   -4.2360 oh        1 061     -0.491100
     31 C31         3.8500   -4.5020   -3.9940 ca        1 061     -0.091000
     32 C32         2.6520   -3.8780   -4.3540 ca        1 061     -0.156600
     33 C33         1.3900   -4.2780   -3.7030 c         1 061      0.706100
     34 O34         1.3230   -5.1450   -2.8090 o         1 061     -0.632500
     35 HN4        -0.6260   -0.0910   -0.8220 hn        1 061      0.343700
     36 H8         -3.4950   -2.8440    2.0030 ha        1 061      0.145000
     37 H9         -4.3570   -1.6870    4.0340 ha        1 061      0.141000
     38 H10        -4.1880    0.8010    4.2210 ha        1 061      0.143000
     39 H11        -3.1400    2.1200    2.3890 ha        1 061      0.161000
     40 H13        -4.1070   -1.2600   -1.3280 ha        1 061      0.147000
     41 H14        -3.3420   -2.5400   -3.3150 ha        1 061      0.151500
     42 H16         0.2310   -3.7340   -1.1840 ha        1 061      0.151500
     43 H17        -0.5320   -2.4390    0.8110 ha        1 061      0.147000
     44 H181       -0.9540   -5.0940   -3.2100 h1        1 061      0.079700
     45 H182       -1.8470   -3.9940   -4.3610 h1        1 061      0.079700
     46 H211       -1.6110   -2.6670   -6.0970 hc        1 061      0.063700
     47 H212       -1.5720   -1.6630   -4.5770 hc        1 061      0.063700
     48 H221       -0.1660    0.0600   -5.7900 hc        1 061      0.062200
     49 H222       -0.3100   -0.9120   -7.3070 hc        1 061      0.062200
     50 H231       -2.6720    0.2300   -5.6570 hc        1 061      0.036200
     51 H232       -2.8230   -0.7570   -7.1620 hc        1 061      0.036200
     52 H241       -1.3720    1.9710   -6.9220 hc        1 061      0.036700
     53 H242       -1.5210    0.9850   -8.4330 hc        1 061      0.036700
     54 H243       -3.0030    1.6810   -7.6560 hc        1 061      0.036700
     55 H27         3.8290   -1.6790   -6.7210 ha        1 061      0.157000
     56 H28         5.9630   -2.7860   -6.0840 ha        1 061      0.140000
     57 HOU         6.9190   -4.3710   -4.7450 ho        1 061      0.421000
     58 H31         3.8580   -5.2950   -3.2290 ha        1 061      0.176000
@<TRIPOS>BOND
     1    1    2 1   
     2    1    5 2   
     3    2    3 2   
     4    3    4 1   
     5    4    5 1   
     6    4   35 1   
     7    5    6 1   
     8    6    7 ar  
     9    6   11 ar  
    10    7    8 ar  
    11    7   12 1   
    12    8    9 ar  
    13    8   36 1   
    14    9   10 ar  
    15    9   37 1   
    16   10   11 ar  
    17   10   38 1   
    18   11   39 1   
    19   12   13 ar  
    20   12   17 ar  
    21   13   14 ar  
    22   13   40 1   
    23   14   15 ar  
    24   14   41 1   
    25   15   16 ar  
    26   15   18 1   
    27   16   17 ar  
    28   16   42 1   
    29   17   43 1   
    30   18   19 1   
    31   18   44 1   
    32   18   45 1   
    33   19   20 1   
    34   19   33 1   
    35   20   21 1   
    36   20   25 2   
    37   21   22 1   
    38   21   46 1   
    39   21   47 1   
    40   22   23 1   
    41   22   48 1   
    42   22   49 1   
    43   23   24 1   
    44   23   50 1   
    45   23   51 1   
    46   24   52 1   
    47   24   53 1   
    48   24   54 1   
    49   25   26 1   
    50   26   27 ar  
    51   26   32 ar  
    52   27   28 ar  
    53   27   55 1   
    54   28   29 ar  
    55   28   56 1   
    56   29   30 1   
    57   29   31 ar  
    58   30   57 1   
    59   31   32 ar  
    60   31   58 1   
    61   32   33 1   
    62   33   34 2   
@<TRIPOS>SUBSTRUCTURE
     1 061         1 TEMP              0 ****  ****    0 ROOT
