@<TRIPOS>MOLECULE
061
   58    62     1     0     0
SMALL
bcc


@<TRIPOS>ATOM
      1 N1         -2.4460    2.5020   -0.2490 nc        1 061     -0.374000
      2 N2         -1.6470    2.8310   -1.2580 nc        1 061     -0.053000
      3 N3         -0.8540    1.8780   -1.5950 nd        1 061     -0.197800
      4 N4         -1.1030    0.8390   -0.7890 na        1 061     -0.170400
      5 C5         -2.1370    1.2080    0.0960 cd        1 061      0.445000
      6 C6         -2.7010    0.3840    1.1550 ca        1 061     -0.127500
      7 C7         -2.7640   -1.0190    1.0600 cp        1 061     -0.022000
      8 C8         -3.3030   -1.7520    2.1260 ca        1 061     -0.120000
      9 C9         -3.7840   -1.1060    3.2620 ca        1 061     -0.109000
     10 C10        -3.7330    0.2850    3.3470 ca        1 061     -0.131000
     11 C11        -3.1940    1.0290    2.3000 ca        1 061     -0.083000
     12 C12        -2.3000   -1.7500   -0.1240 cp        1 061     -0.064000
     13 C13        -3.1030   -1.8250   -1.2690 ca        1 061     -0.123500
     14 C14        -2.6720   -2.5440   -2.3830 ca        1 061     -0.117000
     15 C15        -1.4370   -3.1990   -2.3640 ca        1 061     -0.104300
     16 C16        -0.6380   -3.1340   -1.2180 ca        1 061     -0.117000
     17 C17        -1.0640   -2.4120   -0.1060 ca        1 061     -0.123500
     18 C18        -0.9960   -4.0210   -3.5430 c3        1 061      0.127300
     19 N19         0.2540   -3.6090   -4.1500 n         1 061     -0.400300
     20 C20         0.3010   -2.5910   -5.1340 cc        1 061      0.494900
     21 C21        -1.0210   -1.9410   -5.5140 c3        1 061     -0.114700
     22 C22        -0.8770   -0.6870   -6.3510 c3        1 061     -0.072400
     23 C23        -2.2380   -0.0740   -6.6180 c3        1 061     -0.082400
     24 C24        -2.1190    1.1700   -7.4600 c3        1 061     -0.092100
     25 N25         1.4060   -2.2030   -5.7390 nd        1 061     -0.613100
     26 C26         2.6210   -2.8010   -5.3970 ca        1 061      0.154400
     27 C27         3.8200   -2.4000   -6.0430 ca        1 061     -0.089000
     28 C28         5.0240   -2.9870   -5.7090 ca        1 061     -0.117000
     29 C29         5.0690   -3.9940   -4.7190 ca        1 061      0.106100
     30 O30         6.3100   -4.5250   -4.4510 oh        1 061     -0.494100
     31 C31         3.9100   -4.4090   -4.0660 ca        1 061     -0.153000
     32 C32         2.6910   -3.8110   -4.4070 ca        1 061     -0.153600
     33 C33         1.4510   -4.2300   -3.7280 c         1 061      0.706100
     34 O34         1.4190   -5.0890   -2.8250 o         1 061     -0.638500
     35 HN4        -0.6390   -0.0400   -0.8690 hn        1 061      0.343700
     36 H8         -3.3480   -2.8500    2.0560 ha        1 061      0.145000
     37 H9         -4.2060   -1.6950    4.0900 ha        1 061      0.141000
     38 H10        -4.1180    0.7990    4.2410 ha        1 061      0.143000
     39 H11        -3.1560    2.1280    2.3700 ha        1 061      0.161000
     40 H13        -4.0800   -1.3170   -1.2880 ha        1 061      0.147000
     41 H14        -3.3160   -2.5990   -3.2750 ha        1 061      0.151000
     42 H16         0.3260   -3.6720   -1.1970 ha        1 061      0.151000
     43 H17        -0.4360   -2.3740    0.7980 ha        1 061      0.147000
     44 H181       -0.8660   -5.0880   -3.1850 h1        1 061      0.079700
     45 H182       -1.8010   -4.0210   -4.3320 h1        1 061      0.079700
     46 H211       -1.6230   -2.7010   -6.0840 hc        1 061      0.063200
     47 H212       -1.5790   -1.6850   -4.5710 hc        1 061      0.063200
     48 H221       -0.2280    0.0570   -5.8190 hc        1 061      0.062200
     49 H222       -0.3780   -0.9280   -7.3260 hc        1 061      0.062200
     50 H231       -2.7350    0.1780   -5.6440 hc        1 061      0.036200
     51 H232       -2.8910   -0.8220   -7.1400 hc        1 061      0.036200
     52 H241       -1.4920    1.9360   -6.9430 hc        1 061      0.036700
     53 H242       -1.6460    0.9360   -8.4440 hc        1 061      0.036700
     54 H243       -3.1280    1.6080   -7.6470 hc        1 061      0.036700
     55 H27         3.7840   -1.6130   -6.8140 ha        1 061      0.158000
     56 H28         5.9600   -2.6840   -6.2020 ha        1 061      0.157000
     57 HOU         6.2050   -5.1990   -3.7630 ho        1 061      0.423000
     58 H31         3.9310   -5.1920   -3.2920 ha        1 061      0.160000
@<TRIPOS>BOND
     1    1    2 1   
     2    1    5 2   
     3    2    3 2   
     4    3    4 1   
     5    4    5 1   
     6    4   35 1   
     7    5    6 1   
     8    6    7 ar  
     9    6   11 ar  
    10    7    8 ar  
    11    7   12 1   
    12    8    9 ar  
    13    8   36 1   
    14    9   10 ar  
    15    9   37 1   
    16   10   11 ar  
    17   10   38 1   
    18   11   39 1   
    19   12   13 ar  
    20   12   17 ar  
    21   13   14 ar  
    22   13   40 1   
    23   14   15 ar  
    24   14   41 1   
    25   15   16 ar  
    26   15   18 1   
    27   16   17 ar  
    28   16   42 1   
    29   17   43 1   
    30   18   19 1   
    31   18   44 1   
    32   18   45 1   
    33   19   20 1   
    34   19   33 1   
    35   20   21 1   
    36   20   25 2   
    37   21   22 1   
    38   21   46 1   
    39   21   47 1   
    40   22   23 1   
    41   22   48 1   
    42   22   49 1   
    43   23   24 1   
    44   23   50 1   
    45   23   51 1   
    46   24   52 1   
    47   24   53 1   
    48   24   54 1   
    49   25   26 1   
    50   26   27 ar  
    51   26   32 ar  
    52   27   28 ar  
    53   27   55 1   
    54   28   29 ar  
    55   28   56 1   
    56   29   30 1   
    57   29   31 ar  
    58   30   57 1   
    59   31   32 ar  
    60   31   58 1   
    61   32   33 1   
    62   33   34 2   
@<TRIPOS>SUBSTRUCTURE
     1 061         1 TEMP              0 ****  ****    0 ROOT
