@<TRIPOS>MOLECULE
061
   58    62     1     0     0
SMALL
bcc


@<TRIPOS>ATOM
      1 N1         -2.3690    2.5250   -0.2490 nc        1 061     -0.374000
      2 N2         -1.5470    2.8320   -1.2450 nc        1 061     -0.053000
      3 N3         -0.7760    1.8570   -1.5720 nd        1 061     -0.197800
      4 N4         -1.0650    0.8250   -0.7710 na        1 061     -0.170400
      5 C5         -2.1010    1.2220    0.1000 cd        1 061      0.446000
      6 C6         -2.7040    0.4140    1.1500 ca        1 061     -0.127500
      7 C7         -2.8040   -0.9860    1.0520 cp        1 061     -0.022000
      8 C8         -3.3790   -1.7050    2.1100 ca        1 061     -0.120000
      9 C9         -3.8570   -1.0460    3.2400 ca        1 061     -0.109000
     10 C10        -3.7680    0.3430    3.3270 ca        1 061     -0.131000
     11 C11        -3.1940    1.0720    2.2890 ca        1 061     -0.083000
     12 C12        -2.3440   -1.7290   -0.1260 cp        1 061     -0.065000
     13 C13        -3.1360   -1.7860   -1.2800 ca        1 061     -0.124000
     14 C14        -2.7080   -2.5140   -2.3890 ca        1 061     -0.117000
     15 C15        -1.4900   -3.1980   -2.3560 ca        1 061     -0.104300
     16 C16        -0.7030   -3.1520   -1.2000 ca        1 061     -0.117000
     17 C17        -1.1250   -2.4210   -0.0930 ca        1 061     -0.124000
     18 C18        -1.0530   -4.0290   -3.5300 c3        1 061      0.127300
     19 N19         0.2110   -3.6420   -4.1240 n         1 061     -0.402300
     20 C20         0.2880   -2.6260   -5.1080 cc        1 061      0.495900
     21 C21        -1.0170   -1.9520   -5.5050 c3        1 061     -0.114700
     22 C22        -0.8410   -0.7040   -6.3440 c3        1 061     -0.072400
     23 C23        -2.1870   -0.0670   -6.6270 c3        1 061     -0.082400
     24 C24        -2.0360    1.1720   -7.4710 c3        1 061     -0.092100
     25 N25         1.4070   -2.2580   -5.7000 nd        1 061     -0.614100
     26 C26         2.6080   -2.8770   -5.3420 ca        1 061      0.151400
     27 C27         3.8190   -2.4960   -5.9720 ca        1 061     -0.082000
     28 C28         5.0090   -3.1060   -5.6180 ca        1 061     -0.173000
     29 C29         5.0270   -4.1100   -4.6300 ca        1 061      0.101100
     30 O30         6.1840   -4.7470   -4.2430 oh        1 061     -0.491100
     31 C31         3.8500   -4.5070   -3.9900 ca        1 061     -0.091000
     32 C32         2.6490   -3.8890   -4.3490 ca        1 061     -0.156600
     33 C33         1.3910   -4.2850   -3.6870 c         1 061      0.706100
     34 O34         1.3310   -5.1420   -2.7840 o         1 061     -0.631500
     35 HN4        -0.6240   -0.0660   -0.8440 hn        1 061      0.343700
     36 H8         -3.4540   -2.8010    2.0380 ha        1 061      0.145000
     37 H9         -4.3070   -1.6240    4.0610 ha        1 061      0.141000
     38 H10        -4.1510    0.8670    4.2160 ha        1 061      0.143000
     39 H11        -3.1260    2.1690    2.3600 ha        1 061      0.161000
     40 H13        -4.0990   -1.2540   -1.3100 ha        1 061      0.147000
     41 H14        -3.3420   -2.5540   -3.2880 ha        1 061      0.151500
     42 H16         0.2470   -3.7140   -1.1670 ha        1 061      0.151500
     43 H17        -0.5070   -2.3990    0.8180 ha        1 061      0.147000
     44 H181       -0.9480   -5.0990   -3.1710 h1        1 061      0.079700
     45 H182       -1.8500   -4.0130   -4.3280 h1        1 061      0.079700
     46 H211       -1.6270   -2.7030   -6.0790 hc        1 061      0.063700
     47 H212       -1.5810   -1.6840   -4.5690 hc        1 061      0.063700
     48 H221       -0.1840    0.0300   -5.8070 hc        1 061      0.062200
     49 H222       -0.3360   -0.9570   -7.3130 hc        1 061      0.062200
     50 H231       -2.6890    0.1980   -5.6590 hc        1 061      0.036200
     51 H232       -2.8490   -0.8040   -7.1540 hc        1 061      0.036200
     52 H241       -1.5580    0.9260   -8.4500 hc        1 061      0.036700
     53 H242       -1.3990    1.9280   -6.9500 hc        1 061      0.036700
     54 H243       -3.0350    1.6290   -7.6700 hc        1 061      0.036700
     55 H27         3.8080   -1.7110   -6.7440 ha        1 061      0.157000
     56 H28         5.9480   -2.8080   -6.1090 ha        1 061      0.140000
     57 HOU         6.9140   -4.3780   -4.7610 ho        1 061      0.421000
     58 H31         3.8650   -5.2920   -3.2170 ha        1 061      0.176000
@<TRIPOS>BOND
     1    1    2 1   
     2    1    5 2   
     3    2    3 2   
     4    3    4 1   
     5    4    5 1   
     6    4   35 1   
     7    5    6 1   
     8    6    7 ar  
     9    6   11 ar  
    10    7    8 ar  
    11    7   12 1   
    12    8    9 ar  
    13    8   36 1   
    14    9   10 ar  
    15    9   37 1   
    16   10   11 ar  
    17   10   38 1   
    18   11   39 1   
    19   12   13 ar  
    20   12   17 ar  
    21   13   14 ar  
    22   13   40 1   
    23   14   15 ar  
    24   14   41 1   
    25   15   16 ar  
    26   15   18 1   
    27   16   17 ar  
    28   16   42 1   
    29   17   43 1   
    30   18   19 1   
    31   18   44 1   
    32   18   45 1   
    33   19   20 1   
    34   19   33 1   
    35   20   21 1   
    36   20   25 2   
    37   21   22 1   
    38   21   46 1   
    39   21   47 1   
    40   22   23 1   
    41   22   48 1   
    42   22   49 1   
    43   23   24 1   
    44   23   50 1   
    45   23   51 1   
    46   24   52 1   
    47   24   53 1   
    48   24   54 1   
    49   25   26 1   
    50   26   27 ar  
    51   26   32 ar  
    52   27   28 ar  
    53   27   55 1   
    54   28   29 ar  
    55   28   56 1   
    56   29   30 1   
    57   29   31 ar  
    58   30   57 1   
    59   31   32 ar  
    60   31   58 1   
    61   32   33 1   
    62   33   34 2   
@<TRIPOS>SUBSTRUCTURE
     1 061         1 TEMP              0 ****  ****    0 ROOT
