@<TRIPOS>MOLECULE
061
   58    62     1     0     0
SMALL
bcc


@<TRIPOS>ATOM
      1 N1          1.1710    3.2440   -3.9560 nc        1 061     -0.374000
      2 N2          1.0280    3.8940   -2.8060 nc        1 061     -0.053000
      3 N3          0.4580    3.1820   -1.9010 nd        1 061     -0.197800
      4 N4          0.1850    1.9860   -2.4360 na        1 061     -0.170400
      5 C5          0.6410    1.9890   -3.7710 cd        1 061      0.445000
      6 C6          0.5240    0.8970   -4.7260 ca        1 061     -0.127500
      7 C7          0.5300   -0.4520   -4.3240 cp        1 061     -0.022000
      8 C8          0.3930   -1.4540   -5.2950 ca        1 061     -0.120000
      9 C9          0.2660   -1.1250   -6.6430 ca        1 061     -0.109000
     10 C10         0.2740    0.2120   -7.0380 ca        1 061     -0.131000
     11 C11         0.4010    1.2200   -6.0860 ca        1 061     -0.083000
     12 C12         0.6900   -0.8570   -2.9240 cp        1 061     -0.064000
     13 C13         1.9600   -0.8720   -2.3330 ca        1 061     -0.123500
     14 C14         2.1140   -1.2830   -1.0100 ca        1 061     -0.117000
     15 C15         1.0030   -1.6890   -0.2650 ca        1 061     -0.104300
     16 C16        -0.2650   -1.6850   -0.8570 ca        1 061     -0.117000
     17 C17        -0.4220   -1.2690   -2.1760 ca        1 061     -0.123500
     18 C18         1.1740   -2.1870    1.1430 c3        1 061      0.127300
     19 N19         0.4440   -1.4460    2.1530 n         1 061     -0.400300
     20 C20         0.9780   -0.2760    2.7450 cc        1 061      0.494900
     21 C21         2.3490    0.1750    2.2630 c3        1 061     -0.114700
     22 C22         2.7410    1.5650    2.7200 c3        1 061     -0.072400
     23 C23         4.0840    1.9520    2.1330 c3        1 061     -0.082400
     24 C24         4.4990    3.3280    2.5850 c3        1 061     -0.092100
     25 N25         0.3690    0.4150    3.6900 nd        1 061     -0.613100
     26 C26        -0.8860    0.0010    4.1390 ca        1 061      0.154400
     27 C27        -1.5540    0.7290    5.1600 ca        1 061     -0.089000
     28 C28        -2.7960    0.3260    5.6090 ca        1 061     -0.117000
     29 C29        -3.4100   -0.8190    5.0520 ca        1 061      0.106100
     30 O30        -4.6460   -1.1490    5.5600 oh        1 061     -0.494100
     31 C31        -2.7820   -1.5530    4.0490 ca        1 061     -0.153000
     32 C32        -1.5230   -1.1410    3.5970 ca        1 061     -0.153600
     33 C33        -0.8390   -1.9000    2.5330 c         1 061      0.706100
     34 O34        -1.3340   -2.8990    1.9760 o         1 061     -0.638500
     35 HN4        -0.2310    1.2390   -1.9260 hn        1 061      0.343700
     36 H8          0.3930   -2.5090   -4.9830 ha        1 061      0.145000
     37 H9          0.1610   -1.9230   -7.3940 ha        1 061      0.141000
     38 H10         0.1790    0.4740   -8.1030 ha        1 061      0.143000
     39 H11         0.4080    2.2760   -6.4020 ha        1 061      0.161000
     40 H13         2.8400   -0.5590   -2.9170 ha        1 061      0.147000
     41 H14         3.1180   -1.2940   -0.5590 ha        1 061      0.151000
     42 H16        -1.1370   -2.0300   -0.2740 ha        1 061      0.151000
     43 H17        -1.4200   -1.2800   -2.6400 ha        1 061      0.147000
     44 H181        2.2680   -2.1930    1.4170 h1        1 061      0.079700
     45 H182        0.8060   -3.2580    1.1740 h1        1 061      0.079700
     46 H211        2.3600    0.1470    1.1380 hc        1 061      0.063200
     47 H212        3.1040   -0.5670    2.6410 hc        1 061      0.063200
     48 H221        2.7980    1.6020    3.8400 hc        1 061      0.062200
     49 H222        1.9640    2.3080    2.4000 hc        1 061      0.062200
     50 H231        4.0270    1.9260    1.0130 hc        1 061      0.036200
     51 H232        4.8600    1.2030    2.4430 hc        1 061      0.036200
     52 H241        5.4890    3.5980    2.1440 hc        1 061      0.036700
     53 H242        3.7500    4.0910    2.2620 hc        1 061      0.036700
     54 H243        4.5840    3.3700    3.6980 hc        1 061      0.036700
     55 H27        -1.0730    1.6220    5.5920 ha        1 061      0.158000
     56 H28        -3.3230    0.8820    6.3990 ha        1 061      0.157000
     57 HOU        -4.9550   -1.9440    5.1010 ho        1 061      0.423000
     58 H31        -3.2500   -2.4470    3.6070 ha        1 061      0.160000
@<TRIPOS>BOND
     1    1    2 1   
     2    1    5 2   
     3    2    3 2   
     4    3    4 1   
     5    4    5 1   
     6    4   35 1   
     7    5    6 1   
     8    6    7 ar  
     9    6   11 ar  
    10    7    8 ar  
    11    7   12 1   
    12    8    9 ar  
    13    8   36 1   
    14    9   10 ar  
    15    9   37 1   
    16   10   11 ar  
    17   10   38 1   
    18   11   39 1   
    19   12   13 ar  
    20   12   17 ar  
    21   13   14 ar  
    22   13   40 1   
    23   14   15 ar  
    24   14   41 1   
    25   15   16 ar  
    26   15   18 1   
    27   16   17 ar  
    28   16   42 1   
    29   17   43 1   
    30   18   19 1   
    31   18   44 1   
    32   18   45 1   
    33   19   20 1   
    34   19   33 1   
    35   20   21 1   
    36   20   25 2   
    37   21   22 1   
    38   21   46 1   
    39   21   47 1   
    40   22   23 1   
    41   22   48 1   
    42   22   49 1   
    43   23   24 1   
    44   23   50 1   
    45   23   51 1   
    46   24   52 1   
    47   24   53 1   
    48   24   54 1   
    49   25   26 1   
    50   26   27 ar  
    51   26   32 ar  
    52   27   28 ar  
    53   27   55 1   
    54   28   29 ar  
    55   28   56 1   
    56   29   30 1   
    57   29   31 ar  
    58   30   57 1   
    59   31   32 ar  
    60   31   58 1   
    61   32   33 1   
    62   33   34 2   
@<TRIPOS>SUBSTRUCTURE
     1 061         1 TEMP              0 ****  ****    0 ROOT
