@<TRIPOS>MOLECULE
062
   62    66     1     0     0
SMALL
bcc


@<TRIPOS>ATOM
      1 N1          0.8400   -1.2480   -0.1390 na        1 062      0.271600
      2 C2          2.2040   -1.2340    0.2060 ca        1 062     -0.204300
      3 C3          2.5970   -0.8810    1.4820 cp        1 062      0.041000
      4 C4          1.6300   -0.5440    2.4780 ca        1 062     -0.237300
      5 C5          0.2950   -0.5010    2.1310 ca        1 062     -0.054000
      6 C6         -0.0830   -0.8630    0.8310 ca        1 062     -0.263300
      7 C10         3.9340   -0.7520    2.0550 cp        1 062     -0.051000
      8 C11         3.8070   -0.3510    3.4190 ca        1 062     -0.138300
      9 C12         2.3330   -0.2250    3.7900 c3        1 062      0.243400
     10 C13         5.1840   -0.9120    1.4830 ca        1 062     -0.079000
     11 C14         6.3180   -0.6670    2.2750 ca        1 062     -0.102000
     12 C15         6.1920   -0.2680    3.6010 ca        1 062     -0.105000
     13 C16         4.9250   -0.1050    4.1890 ca        1 062     -0.081000
     14 O21         2.0010    1.0460    4.3040 oh        1 062     -0.590800
     15 C22         1.9350   -1.2990    4.8200 c         1 062      0.689100
     16 N23         0.7850   -1.1860    5.6010 n         1 062     -0.470800
     17 C24         0.5370   -2.1510    6.6590 c3        1 062      0.038700
     18 C25        -0.3530   -1.4680    7.7270 c3        1 062     -0.085400
     19 C26        -0.7900   -0.1430    7.1170 c3        1 062     -0.101400
     20 C27         0.1210    0.0850    5.9050 c3        1 062      0.079000
     21 C34        -0.1430   -3.4470    6.1810 c         1 062      0.553100
     22 N36         0.3330   -4.0110    4.8620 n4        1 062     -0.687800
     23 C37        -0.1810   -5.3690    4.5110 c3        1 062      0.158100
     24 C38         0.7010   -6.4720    5.0140 ca        1 062     -0.105300
     25 C41         1.9510   -6.5950    4.3950 ca        1 062     -0.121000
     26 C42         2.8480   -7.6030    4.7740 ca        1 062      0.061400
     27 C43         2.4900   -8.4990    5.7930 ca        1 062     -0.080000
     28 C44         1.2480   -8.3770    6.4060 ca        1 062     -0.101000
     29 C45         0.3390   -7.3760    6.0260 ca        1 062     -0.157300
     30 CL1         4.3400   -7.7320    4.0130 cl        1 062      0.026600
     31 C53        -0.9500   -7.3210    6.7790 c3        1 062      0.158100
     32 N54        -1.8490   -8.4680    6.4280 n4        1 062     -0.841600
     33 O60         0.4830   -1.6060   -1.2430 o         1 062     -0.216000
     34 O63         2.5500   -2.3890    4.8720 o         1 062     -0.651100
     35 O64        -0.9740   -4.1080    6.7880 o         1 062     -0.468100
     36 H2          2.9040   -1.4960   -0.6080 h4        1 062      0.208000
     37 H5         -0.4830   -0.1720    2.8350 ha        1 062      0.154000
     38 H6         -1.1330   -0.8270    0.4900 h4        1 062      0.199000
     39 H13         5.2950   -1.2130    0.4300 ha        1 062      0.156000
     40 H14         7.3200   -0.7850    1.8300 ha        1 062      0.161000
     41 H15         7.0930   -0.0680    4.2040 ha        1 062      0.159000
     42 H16         4.8390    0.2200    5.2370 ha        1 062      0.149000
     43 H21         2.4100    1.7070    3.7240 ho        1 062      0.455000
     44 H24         1.5140   -2.5150    7.1120 h1        1 062      0.124700
     45 H251       -1.2290   -2.1020    8.0090 hc        1 062      0.090700
     46 H252        0.2640   -1.3010    8.6480 hc        1 062      0.090700
     47 H261       -0.6800    0.6950    7.8500 hc        1 062      0.085700
     48 H262       -1.8630   -0.1810    6.8030 hc        1 062      0.085700
     49 H271        0.8850    0.8800    6.1430 h1        1 062      0.091700
     50 H272       -0.4560    0.4110    4.9980 h1        1 062      0.091700
     51 H36         0.0550   -3.3470    4.1250 hn        1 062      0.489300
     52 H371       -0.2210   -5.4290    3.3800 hx        1 062      0.110200
     53 H372       -1.2360   -5.4530    4.8950 hx        1 062      0.110200
     54 H41         2.2390   -5.9010    3.5840 ha        1 062      0.171000
     55 H43         3.1910   -9.2930    6.1090 ha        1 062      0.196000
     56 H44         0.9910   -9.0730    7.2230 ha        1 062      0.154000
     57 H531       -1.5210   -6.3640    6.6010 hx        1 062      0.124200
     58 H532       -0.7400   -7.3920    7.8910 hx        1 062      0.124200
     59 H541       -2.1310   -8.4190    5.4440 hn        1 062      0.467133
     60 H542       -2.6890   -8.4480    7.0180 hn        1 062      0.467133
     61 H362        1.3760   -4.0220    4.8850 hn        1 062      0.489300
     62 H543       -1.3570   -9.3570    6.5770 hn        1 062      0.467133
@<TRIPOS>BOND
     1    1    2 1   
     2    1    6 2   
     3    1   33 1   
     4    2    3 ar  
     5    2   36 1   
     6    3    4 ar  
     7    3    7 1   
     8    4    5 ar  
     9    4    9 1   
    10    5    6 ar  
    11    5   37 1   
    12    6   38 1   
    13    7    8 ar  
    14    7   10 ar  
    15    8    9 1   
    16    8   13 ar  
    17    9   14 1   
    18    9   15 1   
    19   10   11 ar  
    20   10   39 1   
    21   11   12 ar  
    22   11   40 1   
    23   12   13 ar  
    24   12   41 1   
    25   13   42 1   
    26   14   43 1   
    27   15   16 1   
    28   15   34 2   
    29   16   17 1   
    30   16   20 1   
    31   17   18 1   
    32   17   21 1   
    33   17   44 1   
    34   18   19 1   
    35   18   45 1   
    36   18   46 1   
    37   19   20 1   
    38   19   47 1   
    39   19   48 1   
    40   20   49 1   
    41   20   50 1   
    42   21   22 1   
    43   21   35 2   
    44   22   23 1   
    45   22   51 1   
    46   22   61 1   
    47   23   24 1   
    48   23   52 1   
    49   23   53 1   
    50   24   25 ar  
    51   24   29 ar  
    52   25   26 ar  
    53   25   54 1   
    54   26   27 ar  
    55   26   30 1   
    56   27   28 ar  
    57   27   55 1   
    58   28   29 ar  
    59   28   56 1   
    60   29   31 1   
    61   31   32 1   
    62   31   57 1   
    63   31   58 1   
    64   32   59 1   
    65   32   60 1   
    66   32   62 1   
@<TRIPOS>SUBSTRUCTURE
     1 062         1 TEMP              0 ****  ****    0 ROOT
