@<TRIPOS>MOLECULE
062
   62    66     1     0     0
SMALL
bcc


@<TRIPOS>ATOM
      1 N1          0.9140   -1.3600   -0.1860 na        1 062      0.271600
      2 C2          2.2710   -1.3220    0.1860 ca        1 062     -0.204300
      3 C3          2.6330   -0.9380    1.4620 cp        1 062      0.041000
      4 C4          1.6420   -0.5900    2.4300 ca        1 062     -0.237300
      5 C5          0.3140   -0.5700    2.0550 ca        1 062     -0.054000
      6 C6         -0.0330   -0.9650    0.7570 ca        1 062     -0.263300
      7 C10         3.9560   -0.7800    2.0590 cp        1 062     -0.051000
      8 C11         3.7960   -0.3510    3.4110 ca        1 062     -0.138300
      9 C12         2.3140   -0.2340    3.7490 c3        1 062      0.243400
     10 C13         5.2200   -0.9390    1.5170 ca        1 062     -0.079000
     11 C14         6.3340   -0.6630    2.3260 ca        1 062     -0.102000
     12 C15         6.1760   -0.2360    3.6400 ca        1 062     -0.105000
     13 C16         4.8960   -0.0740    4.1980 ca        1 062     -0.081000
     14 O21         1.9580    1.0440    4.2280 oh        1 062     -0.590800
     15 C22         1.9070   -1.2900    4.7940 c         1 062      0.689100
     16 N23         0.7410   -1.1730    5.5500 n         1 062     -0.470800
     17 C24         0.4830   -2.1170    6.6240 c3        1 062      0.038700
     18 C25        -0.4350   -1.4210    7.6590 c3        1 062     -0.085400
     19 C26        -0.8760   -0.1150    7.0120 c3        1 062     -0.101400
     20 C27         0.0570    0.0970    5.8120 c3        1 062      0.079000
     21 C34        -0.1730   -3.4320    6.1630 c         1 062      0.553100
     22 N36         0.3320   -4.0160    4.8630 n4        1 062     -0.687800
     23 C37        -0.1610   -5.3880    4.5320 c3        1 062      0.158100
     24 C38         0.7270   -6.4700    5.0710 ca        1 062     -0.105300
     25 C41         1.9880   -6.5900    4.4730 ca        1 062     -0.121000
     26 C42         2.8890   -7.5800    4.8870 ca        1 062      0.061400
     27 C43         2.5260   -8.4590    5.9180 ca        1 062     -0.080000
     28 C44         1.2730   -8.3390    6.5090 ca        1 062     -0.102000
     29 C45         0.3590   -7.3570    6.0960 ca        1 062     -0.157300
     30 CL1         4.3940   -7.7070    4.1520 cl        1 062      0.026600
     31 C53        -0.9420   -7.3030    6.8270 c3        1 062      0.158100
     32 N54        -1.8220   -8.4670    6.4860 n4        1 062     -0.841600
     33 O60         0.5840   -1.7460   -1.2890 o         1 062     -0.216000
     34 O63         2.5330   -2.3720    4.8820 o         1 062     -0.651100
     35 O64        -1.0050   -4.0900    6.7700 o         1 062     -0.468100
     36 H2          2.9890   -1.5950   -0.6070 h4        1 062      0.208000
     37 H5         -0.4820   -0.2340    2.7360 ha        1 062      0.154000
     38 H6         -1.0760   -0.9490    0.3930 h4        1 062      0.199000
     39 H13         5.3560   -1.2610    0.4730 ha        1 062      0.156000
     40 H14         7.3460   -0.7790    1.9040 ha        1 062      0.161000
     41 H15         7.0620   -0.0120    4.2560 ha        1 062      0.159000
     42 H16         4.7840    0.2720    5.2360 ha        1 062      0.149000
     43 H21         2.3700    1.6970    3.6420 ho        1 062      0.455000
     44 H24         1.4550   -2.4590    7.1040 h1        1 062      0.125700
     45 H251        0.1610   -1.2270    8.5880 hc        1 062      0.090700
     46 H252       -1.3090   -2.0590    7.9380 hc        1 062      0.090700
     47 H261       -0.7900    0.7400    7.7280 hc        1 062      0.085700
     48 H262       -1.9420   -0.1720    6.6770 hc        1 062      0.085700
     49 H271        0.8070    0.9050    6.0470 h1        1 062      0.091700
     50 H272       -0.5050    0.3960    4.8870 h1        1 062      0.091700
     51 H36         0.0600   -3.3720    4.1080 hn        1 062      0.489300
     52 H371       -1.2200   -5.4770    4.9020 hx        1 062      0.110200
     53 H372       -0.1820   -5.4700    3.4020 hx        1 062      0.110200
     54 H41         2.2800   -5.9100    3.6540 ha        1 062      0.171000
     55 H43         3.2320   -9.2380    6.2610 ha        1 062      0.196000
     56 H44         1.0120   -9.0230    7.3360 ha        1 062      0.154000
     57 H531       -1.5210   -6.3560    6.6210 hx        1 062      0.124200
     58 H532       -0.7480   -7.3490    7.9430 hx        1 062      0.124200
     59 H541       -2.6720   -8.4450    7.0620 hn        1 062      0.467133
     60 H542       -2.0890   -8.4410    5.4960 hn        1 062      0.467133
     61 H362        1.3750   -4.0160    4.9050 hn        1 062      0.489300
     62 H543       -1.3220   -9.3470    6.6600 hn        1 062      0.467133
@<TRIPOS>BOND
     1    1    2 1   
     2    1    6 2   
     3    1   33 1   
     4    2    3 ar  
     5    2   36 1   
     6    3    4 ar  
     7    3    7 1   
     8    4    5 ar  
     9    4    9 1   
    10    5    6 ar  
    11    5   37 1   
    12    6   38 1   
    13    7    8 ar  
    14    7   10 ar  
    15    8    9 1   
    16    8   13 ar  
    17    9   14 1   
    18    9   15 1   
    19   10   11 ar  
    20   10   39 1   
    21   11   12 ar  
    22   11   40 1   
    23   12   13 ar  
    24   12   41 1   
    25   13   42 1   
    26   14   43 1   
    27   15   16 1   
    28   15   34 2   
    29   16   17 1   
    30   16   20 1   
    31   17   18 1   
    32   17   21 1   
    33   17   44 1   
    34   18   19 1   
    35   18   45 1   
    36   18   46 1   
    37   19   20 1   
    38   19   47 1   
    39   19   48 1   
    40   20   49 1   
    41   20   50 1   
    42   21   22 1   
    43   21   35 2   
    44   22   23 1   
    45   22   51 1   
    46   22   61 1   
    47   23   24 1   
    48   23   52 1   
    49   23   53 1   
    50   24   25 ar  
    51   24   29 ar  
    52   25   26 ar  
    53   25   54 1   
    54   26   27 ar  
    55   26   30 1   
    56   27   28 ar  
    57   27   55 1   
    58   28   29 ar  
    59   28   56 1   
    60   29   31 1   
    61   31   32 1   
    62   31   57 1   
    63   31   58 1   
    64   32   59 1   
    65   32   60 1   
    66   32   62 1   
@<TRIPOS>SUBSTRUCTURE
     1 062         1 TEMP              0 ****  ****    0 ROOT
