@<TRIPOS>MOLECULE
062
   62    66     1     0     0
SMALL
bcc


@<TRIPOS>ATOM
      1 N1          0.8500   -1.2980   -0.1600 na        1 062      0.271600
      2 C2          2.2120   -1.2680    0.1920 ca        1 062     -0.204300
      3 C3          2.5940   -0.8990    1.4660 cp        1 062      0.041000
      4 C4          1.6180   -0.5600    2.4540 ca        1 062     -0.237300
      5 C5          0.2850   -0.5320    2.0980 ca        1 062     -0.054000
      6 C6         -0.0820   -0.9100    0.8000 ca        1 062     -0.263300
      7 C10         3.9260   -0.7520    2.0460 cp        1 062     -0.051000
      8 C11         3.7880   -0.3380    3.4050 ca        1 062     -0.138300
      9 C12         2.3110   -0.2210    3.7660 c3        1 062      0.243400
     10 C13         5.1810   -0.9070    1.4830 ca        1 062     -0.079000
     11 C14         6.3090   -0.6440    2.2790 ca        1 062     -0.102000
     12 C15         6.1710   -0.2320    3.6000 ca        1 062     -0.105000
     13 C16         4.8990   -0.0740    4.1790 ca        1 062     -0.081000
     14 O21         1.9650    1.0520    4.2650 oh        1 062     -0.590800
     15 C22         1.9160   -1.2880    4.8050 c         1 062      0.689100
     16 N23         0.7610   -1.1770    5.5790 n         1 062     -0.470800
     17 C24         0.5170   -2.1330    6.6450 c3        1 062      0.038700
     18 C25        -0.3840   -1.4470    7.7020 c3        1 062     -0.085400
     19 C26        -0.8310   -0.1330    7.0760 c3        1 062     -0.101400
     20 C27         0.0860    0.0910    5.8660 c3        1 062      0.079000
     21 C34        -0.1490   -3.4410    6.1780 c         1 062      0.553100
     22 N36         0.3360   -4.0120    4.8650 ny        1 062     -0.687800
     23 C37        -0.1660   -5.3780    4.5260 c3        1 062      0.158100
     24 C38         0.7260   -6.4680    5.0410 ca        1 062     -0.105300
     25 C41         1.9780   -6.5860    4.4240 ca        1 062     -0.121000
     26 C42         2.8820   -7.5830    4.8150 ca        1 062      0.061400
     27 C43         2.5310   -8.4720    5.8400 ca        1 062     -0.080000
     28 C44         1.2860   -8.3560    6.4500 ca        1 062     -0.102000
     29 C45         0.3690   -7.3660    6.0600 ca        1 062     -0.157300
     30 Cl1         4.3770   -7.7050    4.0580 cl        1 062      0.026600
     31 C53        -0.9210   -7.3160    6.8100 c3        1 062      0.158100
     32 N54        -1.8100   -8.4740    6.4670 nz        1 062     -0.841600
     33 O60         0.5020   -1.6700   -1.2630 o         1 062     -0.216000
     34 O63         2.5400   -2.3730    4.8710 o         1 062     -0.651100
     35 O64        -0.9760   -4.1030    6.7900 o         1 062     -0.468100
     36 H2          2.9180   -1.5320   -0.6150 h4        1 062      0.208000
     37 H5         -0.5000   -0.2030    2.7950 ha        1 062      0.154000
     38 H6         -1.1300   -0.8880    0.4530 h4        1 062      0.199000
     39 H13         5.3010   -1.2180    0.4340 ha        1 062      0.156000
     40 H14         7.3140   -0.7580    1.8410 ha        1 062      0.161000
     41 H15         7.0670   -0.0180    4.2050 ha        1 062      0.159000
     42 H16         4.8040    0.2610    5.2220 ha        1 062      0.149000
     43 H21         2.3710    1.7110    3.6810 ho        1 062      0.455000
     44 H24         1.4950   -2.4840    7.1070 h1        1 062      0.124700
     45 H251        0.2260   -1.2650    8.6240 hc        1 062      0.090700
     46 H252       -1.2560   -2.0860    7.9860 hc        1 062      0.090700
     47 H261       -0.7320    0.7150    7.8010 hc        1 062      0.085700
     48 H262       -1.9010   -0.1830    6.7570 hc        1 062      0.085700
     49 H271       -0.4900    0.4030    4.9530 h1        1 062      0.091700
     50 H272        0.8410    0.8950    6.0990 h1        1 062      0.091700
     51 H36         0.0550   -3.3580    4.1220 hn        1 062      0.489300
     52 H371       -1.2210   -5.4680    4.9090 hx        1 062      0.110200
     53 H372       -0.2030   -5.4480    3.3950 hx        1 062      0.110200
     54 H41         2.2610   -5.8970    3.6080 ha        1 062      0.171000
     55 H43         3.2380   -9.2580    6.1650 ha        1 062      0.196000
     56 H44         1.0340   -9.0470    7.2720 ha        1 062      0.154000
     57 H531       -0.7130   -7.3760    7.9220 hx        1 062      0.124200
     58 H532       -1.5000   -6.3660    6.6220 hx        1 062      0.124200
     59 H541       -2.6510   -8.4570    7.0550 hn        1 062      0.467133
     60 H542       -2.0900   -8.4360    5.4820 hn        1 062      0.467133
     61 H362        1.3790   -4.0140    4.8920 hn        1 062      0.489300
     62 H543       -1.3100   -9.3580    6.6250 hn        1 062      0.467133
@<TRIPOS>BOND
     1    1    2 1   
     2    1    6 2   
     3    1   33 1   
     4    2    3 ar  
     5    2   36 1   
     6    3    4 ar  
     7    3    7 1   
     8    4    5 ar  
     9    4    9 1   
    10    5    6 ar  
    11    5   37 1   
    12    6   38 1   
    13    7    8 ar  
    14    7   10 ar  
    15    8    9 1   
    16    8   13 ar  
    17    9   14 1   
    18    9   15 1   
    19   10   11 ar  
    20   10   39 1   
    21   11   12 ar  
    22   11   40 1   
    23   12   13 ar  
    24   12   41 1   
    25   13   42 1   
    26   14   43 1   
    27   15   16 1   
    28   15   34 2   
    29   16   17 1   
    30   16   20 1   
    31   17   18 1   
    32   17   21 1   
    33   17   44 1   
    34   18   19 1   
    35   18   45 1   
    36   18   46 1   
    37   19   20 1   
    38   19   47 1   
    39   19   48 1   
    40   20   49 1   
    41   20   50 1   
    42   21   22 1   
    43   21   35 2   
    44   22   23 1   
    45   22   51 1   
    46   22   61 1   
    47   23   24 1   
    48   23   52 1   
    49   23   53 1   
    50   24   25 ar  
    51   24   29 ar  
    52   25   26 ar  
    53   25   54 1   
    54   26   27 ar  
    55   26   30 1   
    56   27   28 ar  
    57   27   55 1   
    58   28   29 ar  
    59   28   56 1   
    60   29   31 1   
    61   31   32 1   
    62   31   57 1   
    63   31   58 1   
    64   32   59 1   
    65   32   60 1   
    66   32   62 1   
@<TRIPOS>SUBSTRUCTURE
     1 062         1 TEMP              0 ****  ****    0 ROOT
