@<TRIPOS>MOLECULE
062
   60    64     1     0     0
SMALL
bcc


@<TRIPOS>ATOM
      1 N1         -3.6070    0.5560    3.0990 na        1 062      0.261600
      2 C2         -3.6830   -0.7210    2.5220 ca        1 062     -0.201300
      3 C3         -3.4340   -0.8920    1.1730 cp        1 062      0.023000
      4 C4         -3.0940    0.2180    0.3440 ca        1 062     -0.186300
      5 C5         -3.0170    1.4750    0.9070 ca        1 062     -0.037000
      6 C6         -3.2770    1.6250    2.2770 ca        1 062     -0.238300
      7 C10        -3.4590   -2.1040    0.3590 cp        1 062     -0.043000
      8 C11        -3.1280   -1.7520   -0.9840 ca        1 062     -0.109300
      9 C12        -2.8690   -0.2510   -1.0880 c3        1 062      0.213400
     10 C13        -3.7400   -3.4170    0.6950 ca        1 062     -0.093000
     11 C14        -3.6960   -4.3900   -0.3160 ca        1 062     -0.119000
     12 C15        -3.3770   -4.0460   -1.6250 ca        1 062     -0.117000
     13 C16        -3.0880   -2.7160   -1.9720 ca        1 062     -0.080000
     14 O21        -3.7570    0.3640   -2.0040 oh        1 062     -0.583800
     15 C22        -1.4160    0.0440   -1.5140 c         1 062      0.683100
     16 N23        -1.0580    1.3090   -1.9450 n         1 062     -0.448800
     17 C24         0.3350    1.6050   -2.2830 c3        1 062      0.026700
     18 C25         0.3220    2.7390   -3.3290 c3        1 062     -0.086400
     19 C26        -1.1110    3.2540   -3.3810 c3        1 062     -0.091400
     20 C27        -1.9630    2.2270   -2.6220 c3        1 062      0.092000
     21 C34         1.1610    2.0160   -1.0390 c         1 062      0.654100
     22 N36         1.3050    1.0710   -0.0510 n         1 062     -0.553900
     23 C37         2.1350    1.2820    1.1050 c3        1 062      0.129300
     24 C38         3.4080    0.4770    1.1070 ca        1 062     -0.106300
     25 C41         3.3340   -0.8560    1.5280 ca        1 062     -0.118000
     26 C42         4.4900   -1.6360    1.5870 ca        1 062      0.016400
     27 C43         5.7290   -1.0950    1.2290 ca        1 062     -0.121000
     28 C44         5.7950    0.2280    0.8020 ca        1 062     -0.106000
     29 C45         4.6420    1.0200    0.7240 ca        1 062     -0.061300
     30 CL1         4.3910   -3.2540    2.1010 cl        1 062     -0.095400
     31 C53         4.7740    2.4260    0.2090 c3        1 062      0.182100
     32 N54         5.0640    3.3890    1.2500 n3        1 062     -0.905800
     33 O60        -3.8300    0.7120    4.2910 o         1 062     -0.273000
     34 O63        -0.5420   -0.8320   -1.3520 o         1 062     -0.605100
     35 O64         1.6620    3.1550   -0.9410 o         1 062     -0.626100
     36 H2         -3.9440   -1.5410    3.2100 h4        1 062      0.192000
     37 H5         -2.7520    2.3660    0.3160 ha        1 062      0.166000
     38 H6         -3.2280    2.6070    2.7790 h4        1 062      0.190000
     39 H13        -3.9900   -3.6960    1.7280 ha        1 062      0.143000
     40 H14        -3.9150   -5.4380   -0.0620 ha        1 062      0.140000
     41 H15        -3.3440   -4.8220   -2.4040 ha        1 062      0.140000
     42 H16        -2.8250   -2.4540   -3.0070 ha        1 062      0.148000
     43 H21        -4.6520    0.1070   -1.7430 ho        1 062      0.425000
     44 H24         0.8280    0.6820   -2.7150 h1        1 062      0.085700
     45 H251        1.0350    3.5530   -3.0470 hc        1 062      0.074200
     46 H252        0.6340    2.3280   -4.3210 hc        1 062      0.074200
     47 H261       -1.1870    4.2570   -2.8930 hc        1 062      0.058200
     48 H262       -1.4690    3.3540   -4.4340 hc        1 062      0.058200
     49 H271       -2.6200    2.7220   -1.8560 h1        1 062      0.058700
     50 H272       -2.6250    1.6710   -3.3430 h1        1 062      0.058700
     51 H36         1.0090    0.1350   -0.2280 hn        1 062      0.337500
     52 H371        1.5310    0.9870    2.0150 h1        1 062      0.067700
     53 H372        2.3700    2.3820    1.1930 h1        1 062      0.067700
     54 H41         2.3610   -1.2850    1.8150 ha        1 062      0.148000
     55 H43         6.6420   -1.7060    1.2860 ha        1 062      0.148000
     56 H44         6.7680    0.6630    0.5250 ha        1 062      0.146000
     57 H531        3.8410    2.6840   -0.3790 h1        1 062      0.049700
     58 H532        5.6380    2.4640   -0.5190 h1        1 062      0.049700
     59 H541        4.9580    4.3170    0.8880 hn        1 062      0.349800
     60 H542        4.4440    3.2730    2.0280 hn        1 062      0.349800
@<TRIPOS>BOND
     1    1    2 1   
     2    1    6 2   
     3    1   33 1   
     4    2    3 ar  
     5    2   36 1   
     6    3    4 ar  
     7    3    7 1   
     8    4    5 ar  
     9    4    9 1   
    10    5    6 ar  
    11    5   37 1   
    12    6   38 1   
    13    7    8 ar  
    14    7   10 ar  
    15    8    9 1   
    16    8   13 ar  
    17    9   14 1   
    18    9   15 1   
    19   10   11 ar  
    20   10   39 1   
    21   11   12 ar  
    22   11   40 1   
    23   12   13 ar  
    24   12   41 1   
    25   13   42 1   
    26   14   43 1   
    27   15   16 1   
    28   15   34 2   
    29   16   17 1   
    30   16   20 1   
    31   17   18 1   
    32   17   21 1   
    33   17   44 1   
    34   18   19 1   
    35   18   45 1   
    36   18   46 1   
    37   19   20 1   
    38   19   47 1   
    39   19   48 1   
    40   20   49 1   
    41   20   50 1   
    42   21   22 1   
    43   21   35 2   
    44   22   23 1   
    45   22   51 1   
    46   23   24 1   
    47   23   52 1   
    48   23   53 1   
    49   24   25 ar  
    50   24   29 ar  
    51   25   26 ar  
    52   25   54 1   
    53   26   27 ar  
    54   26   30 1   
    55   27   28 ar  
    56   27   55 1   
    57   28   29 ar  
    58   28   56 1   
    59   29   31 1   
    60   31   32 1   
    61   31   57 1   
    62   31   58 1   
    63   32   59 1   
    64   32   60 1   
@<TRIPOS>SUBSTRUCTURE
     1 062         1 TEMP              0 ****  ****    0 ROOT
