@<TRIPOS>MOLECULE
062
   60    55     1     0     0
SMALL
bcc


@<TRIPOS>ATOM
      1 N1         -2.9120    5.0470   -2.3850 n2        1 062      0.363000
      2 C2         -1.7100    4.6390   -2.8920 c1        1 062     -0.132500
      3 C3         -1.0250    3.5830   -2.2970 c1        1 062     -0.006500
      4 C4         -1.5640    2.9450   -1.1870 c1        1 062     -0.138000
      5 C5         -2.7680    3.3570   -0.6820 c1        1 062     -0.066000
      6 C6         -3.4490    4.4130   -1.2810 c1        1 062     -0.213000
      7 C10         0.1450    2.8070   -2.7480 c1        1 062     -0.006500
      8 C11         0.2910    1.7130   -1.9030 c1        1 062     -0.138000
      9 C12        -0.9420    1.5980   -1.0840 c3        1 062      0.176000
     10 C13         1.2390    3.2690   -3.4910 c1        1 062     -0.132500
     11 C14         2.4660    2.6360   -3.3840 c1        1 062     -0.115500
     12 C15         2.6140    1.5380   -2.5360 c1        1 062     -0.115500
     13 C16         1.5280    1.0760   -1.7970 c1        1 062     -0.066000
     14 O21        -1.7870    0.5530   -1.4810 oh        1 062     -0.308000
     15 C22        -0.6280    1.2150    0.3800 c2        1 062      0.326000
     16 N23        -1.7100    0.7330    1.2600 n         1 062     -0.305000
     17 C24        -1.5540    0.0800    2.6590 c3        1 062      0.006000
     18 C25        -3.0480    0.0820    3.2100 c3        1 062     -0.167000
     19 C26        -3.7010    0.8290    2.4240 c3        1 062     -0.173000
     20 C27        -2.9720    0.7670    1.0230 c3        1 062     -0.019000
     21 C34        -0.9350   -1.2130    2.6380 c2        1 062      0.297000
     22 N36         0.4280   -1.3610    2.1410 n         1 062     -0.371000
     23 C37         0.7150   -2.3140    1.0830 c3        1 062      0.007000
     24 C38         2.0870   -2.9010    1.2950 c2        1 062     -0.078000
     25 C41         2.9600   -2.3090    2.1950 c2        1 062     -0.121000
     26 C42         4.2520   -2.8070    2.3420 c1        1 062     -0.055000
     27 C43         4.6670   -3.9010    1.5830 c1        1 062     -0.115500
     28 C44         3.7930   -4.4940    0.6820 c1        1 062     -0.115500
     29 C45         2.5040   -3.9970    0.5350 c1        1 062     -0.081000
     30 CL1         5.3960   -1.9710    3.3670 cl        1 062     -0.015000
     31 C53         1.5190   -4.6860   -0.4330 c3        1 062     -0.045000
     32 N54         2.1830   -4.9520   -1.6870 n3        1 062     -0.344000
     33 O60        -3.5960    4.8980   -3.5510 o         1 062     -0.422000
     34 O63         0.5330    1.1150    0.7420 o         1 062     -0.373000
     35 O64        -1.5160   -2.1670    3.0980 o         1 062     -0.375000
     36 H2         -1.3290    5.0920   -3.6800 ha        1 062      0.168000
     37 H5         -3.1490    2.9100    0.0990 ha        1 062      0.153000
     38 H6         -4.2950    4.7030   -0.9260 ha        1 062      0.189000
     39 H13         1.1380    4.0370   -4.0830 ha        1 062      0.168000
     40 H14         3.2270    2.9580   -3.9020 ha        1 062      0.143750
     41 H15         3.4710    1.0980   -2.4620 ha        1 062      0.143750
     42 H16         1.6320    0.3070   -1.2030 ha        1 062      0.153000
     43 H21        -2.4490    0.8760   -1.9590 ho        1 062      0.223000
     44 H24        -0.9490    0.5810    3.2330 h1        1 062      0.127000
     45 H251       -3.0740    0.4510    4.1420 hc        1 062      0.115000
     46 H252       -3.4190   -0.8390    3.1940 hc        1 062      0.115000
     47 H261       -4.6350    0.4990    2.3380 hc        1 062      0.096500
     48 H262       -3.7000    1.7600    2.7650 hc        1 062      0.096500
     49 H271       -3.2480   -0.0510    0.5350 h1        1 062      0.098000
     50 H272       -3.1940    1.5670    0.4930 h1        1 062      0.098000
     51 H36         1.1210   -0.9140    2.5570 hn        1 062      0.253000
     52 H371        0.6850   -1.8590    0.2160 h1        1 062      0.107000
     53 H372        0.0480   -3.0290    1.0980 h1        1 062      0.107000
     54 H41         2.6660   -1.5360    2.7320 ha        1 062      0.152000
     55 H43         5.5730   -4.2500    1.6860 ha        1 062      0.143750
     56 H44         4.0860   -5.2650    0.1470 ha        1 062      0.143750
     57 H531        1.2090   -5.5340   -0.0390 h1        1 062      0.076500
     58 H532        0.7550   -4.1010   -0.5880 h1        1 062      0.076500
     59 H541        2.7720   -4.2750   -1.8690 hn        1 062      0.146000
     60 H542        1.5580   -5.0040   -2.3600 hn        1 062      0.146000
@<TRIPOS>BOND
     1    1    6 1   
     2    1   33 1   
     3    2    3 1   
     4    2   36 1   
     5    4    5 1   
     6    4    9 1   
     7    5   37 1   
     8    6   38 1   
     9    7   10 1   
    10    8    9 1   
    11    8   13 1   
    12    9   14 1   
    13    9   15 1   
    14   10   39 1   
    15   11   12 1   
    16   11   40 1   
    17   12   41 1   
    18   13   42 1   
    19   14   43 1   
    20   15   16 1   
    21   15   34 1   
    22   16   17 1   
    23   16   20 1   
    24   17   18 1   
    25   17   21 1   
    26   17   44 1   
    27   18   19 1   
    28   18   45 1   
    29   18   46 1   
    30   19   20 1   
    31   19   47 1   
    32   19   48 1   
    33   20   49 1   
    34   20   50 1   
    35   21   22 1   
    36   21   35 1   
    37   22   23 1   
    38   22   51 1   
    39   23   24 1   
    40   23   52 1   
    41   23   53 1   
    42   24   25 1   
    43   24   29 1   
    44   25   26 1   
    45   25   54 1   
    46   26   30 1   
    47   27   28 1   
    48   27   55 1   
    49   28   56 1   
    50   29   31 1   
    51   31   32 1   
    52   31   57 1   
    53   31   58 1   
    54   32   59 1   
    55   32   60 1   
@<TRIPOS>SUBSTRUCTURE
     1 062         1 TEMP              0 ****  ****    0 ROOT
