@<TRIPOS>MOLECULE
064
   57    58     1     0     0
SMALL
bcc


@<TRIPOS>ATOM
      1 C1         -0.1210    0.8130   -0.0920 c2        1 064     -0.024000
      2 N4          1.1700    1.1770   -0.0550 n2        1 064     -0.006000
      3 C5          0.7930    0.0020    1.8220 c2        1 064      0.182000
      4 C7         -0.8690    0.8310   -2.4440 c2        1 064      0.063000
      5 C8         -2.2810    1.8500   -0.6910 c2        1 064     -0.077000
      6 C10         1.2010   -0.5600    3.1150 c3        1 064     -0.149000
      7 C16         2.4710   -2.5860    2.3520 c3        1 064     -0.219000
      8 C17         2.5430   -1.2660    3.0750 c3        1 064     -0.156000
      9 C18        -3.1640   -1.8470    4.2770 c2        1 064      0.106000
     10 C19        -1.7600    0.8990   -4.7930 c1        1 064      0.279000
     11 C20        -3.5780   -2.3990    5.4600 c2        1 064     -0.280000
     12 C21        -4.1360   -1.1640    3.3780 c3        1 064     -0.213000
     13 C22        -4.9560   -2.3250    5.8340 c2        1 064      0.060000
     14 C23        -5.5200   -1.1010    3.8240 c1        1 064     -0.103000
     15 C24        -5.9130   -1.7050    5.0430 c2        1 064     -0.131000
     16 C26        -7.3150   -1.6480    5.4140 c2        1 064     -0.178000
     17 C27        -8.2420   -1.0380    4.6480 c2        1 064     -0.043000
     18 C28        -9.6540   -0.9580    4.9460 c2        1 064     -0.161000
     19 C29       -10.5180   -0.4570    4.0120 c2        1 064     -0.043000
     20 C30       -10.1300   -1.4920    6.2850 c3        1 064     -0.075000
     21 C32       -11.4660   -0.8880    6.6230 c2        1 064     -0.207000
     22 C2         -0.4410    0.0210    1.1250 c2        1 064     -0.259000
     23 C3         -1.0780    1.1430   -1.1410 c2        1 064     -0.053000
     24 O9          1.7200    0.7070    1.0680 os        1 064     -0.055000
     25 O11        -1.8590   -1.9260    3.9200 oh        1 064     -0.326000
     26 C12        -1.8000    1.1530   -3.4980 c2        1 064     -0.479000
     27 C14        -3.5150    1.3370   -0.7240 c2        1 064     -0.185000
     28 Cl25       -5.3370   -3.0520    7.3280 cl        1 064     -0.024000
     29 C31       -11.9640   -0.6420    4.2320 c2        1 064     -0.077000
     30 C33       -12.2000   -0.6960    5.5400 c1        1 064     -0.105000
     31 C34       -12.8730   -0.8290    3.0350 c2        1 064      0.373000
     32 O35       -12.4060   -0.4940    1.9080 o         1 064     -0.555500
     33 O36       -14.0310   -1.2910    3.2170 o         1 064     -0.555500
     34 H6         -1.7390   -1.4680    3.0220 ho        1 064      0.288000
     35 H6A        -2.5050   -0.5050    0.9180 ha        1 064      0.092000
     36 H10         1.2490    0.2930    3.8520 hc        1 064      0.147500
     37 H16         2.1660   -2.4370    1.2880 hc        1 064      0.081667
     38 H16A        0.3950   -1.2660    3.4680 hc        1 064      0.147500
     39 H16B        1.7300   -3.2650    2.8390 hc        1 064      0.081667
     40 H17         2.8760   -1.4380    4.1340 hc        1 064      0.096000
     41 H17A        3.4710   -3.0850    2.3660 hc        1 064      0.081667
     42 H17B        3.3040   -0.6020    2.5860 hc        1 064      0.096000
     43 H19        -3.7090    0.3240   -1.1050 ha        1 064      0.147000
     44 H20        -2.8620   -2.9030    6.1230 ha        1 064      0.150000
     45 H21        -3.7890   -0.1060    3.1890 hc        1 064      0.152500
     46 H23        -4.1380   -1.6820    2.3720 hc        1 064      0.152500
     47 H26        -7.5950   -2.1440    6.3570 ha        1 064      0.119000
     48 H27        -7.9250   -0.5600    3.7000 ha        1 064      0.146000
     49 H29       -10.2060   -0.0740    3.0300 ha        1 064      0.160000
     50 H30       -10.1400   -2.6120    6.2430 hc        1 064      0.084000
     51 H32        -9.4130   -1.1810    7.0900 hc        1 064      0.084000
     52 H12        -2.7090    1.7190   -3.1660 ha        1 064      0.219000
     53 H14        -4.3990    1.8870   -0.3680 ha        1 064      0.147000
     54 H33       -11.6660   -0.5350    7.6350 ha        1 064      0.125000
     55 C6         -1.6020   -0.5890    1.5380 c1        1 064     -0.127000
     56 Cl13        0.5360    0.0010   -2.9360 cl        1 064      0.009000
     57 Cl15       -1.9930    3.4210   -0.0890 cl        1 064     -0.008000
@<TRIPOS>BOND
     1    1    2 1   
     2    1   22 1   
     3    1   23 1   
     4    2   24 1   
     5    3    6 1   
     6    3   22 1   
     7    3   24 1   
     8    4   23 1   
     9    4   26 1   
    10    4   56 1   
    11    5   23 1   
    12    5   27 1   
    13    5   57 1   
    14    6    8 1   
    15    6   36 1   
    16    6   38 1   
    17    7    8 1   
    18    7   37 1   
    19    7   39 1   
    20    7   41 1   
    21    8   40 1   
    22    8   42 1   
    23    9   11 1   
    24    9   12 1   
    25    9   25 1   
    26   10   26 1   
    27   11   13 1   
    28   11   44 1   
    29   12   14 1   
    30   12   45 1   
    31   12   46 1   
    32   13   15 1   
    33   13   28 1   
    34   14   15 1   
    35   15   16 1   
    36   16   17 1   
    37   16   47 1   
    38   17   18 1   
    39   17   48 1   
    40   18   19 1   
    41   18   20 1   
    42   19   29 1   
    43   19   49 1   
    44   20   21 1   
    45   20   50 1   
    46   20   51 1   
    47   21   30 1   
    48   21   54 1   
    49   22   55 1   
    50   25   34 1   
    51   26   52 1   
    52   27   43 1   
    53   27   53 1   
    54   29   30 1   
    55   29   31 1   
    56   31   32 1   
    57   31   33 1   
    58   35   55 1   
@<TRIPOS>SUBSTRUCTURE
     1 064         1 TEMP              0 ****  ****    0 ROOT
