@<TRIPOS>MOLECULE
064
   57    60     1     0     0
SMALL
bcc


@<TRIPOS>ATOM
      1 C1          4.8990    0.4750    0.4150 cc        1 064      0.365800
      2 N4          6.0910   -0.1010    0.6760 nd        1 064     -0.333300
      3 C5          4.4990   -1.5260    1.3670 cd        1 064      0.304000
      4 C7          4.5240    1.9010   -1.5890 ca        1 064      0.045400
      5 C8          4.6870    2.9480    0.5840 ca        1 064      0.045400
      6 C10         4.0950   -2.8100    1.9760 c3        1 064     -0.107000
      7 C16         4.6440   -3.9800    1.1790 c3        1 064     -0.090600
      8 C17         4.5520   -2.8850    3.4210 c3        1 064     -0.090600
      9 C18         0.3240   -1.2530    0.3970 ca        1 064      0.107100
     10 C19         4.2880    4.2960   -1.3790 ca        1 064     -0.103000
     11 C20        -0.3160   -2.4630    0.0870 ca        1 064     -0.154000
     12 C21        -0.3960   -0.0540    0.4340 ca        1 064     -0.193000
     13 C22        -1.6850   -2.4580   -0.1790 ca        1 064      0.041400
     14 C23        -1.7590   -0.0740    0.1580 ca        1 064     -0.096000
     15 C24        -2.4360   -1.2650   -0.1490 ca        1 064     -0.030800
     16 C26        -3.8570   -1.2540   -0.4470 ce        1 064     -0.187200
     17 C27        -4.7180   -0.3520    0.0590 cf        1 064     -0.027200
     18 C28        -6.1370   -0.2820   -0.2260 ca        1 064     -0.122800
     19 C29        -6.8560    0.8450    0.2080 ca        1 064     -0.079000
     20 C30        -6.8190   -1.2960   -0.9180 ca        1 064     -0.125000
     21 C32        -8.1830   -1.1760   -1.1710 ca        1 064     -0.172000
     22 C2          3.8280   -0.4290    0.8560 cc        1 064     -0.304900
     23 C3          4.7050    1.7820   -0.2010 ca        1 064     -0.119500
     24 O9          5.8880   -1.2760    1.2320 os        1 064     -0.119100
     25 O11         1.6770   -1.3710    0.6750 os        1 064     -0.336900
     26 C12         4.3130    3.1540   -2.1750 ca        1 064     -0.130500
     27 C14         4.4760    4.2000   -0.0020 ca        1 064     -0.130500
     28 CL25       -2.4210   -3.9530   -0.5360 cl        1 064     -0.098400
     29 C31        -8.2220    0.9690   -0.0490 ca        1 064     -0.135600
     30 C33        -8.8830   -0.0490   -0.7410 ca        1 064     -0.085000
     31 C34        -8.9800    2.2030    0.4220 c         1 064      0.909200
     32 O35        -8.3290    3.0970    1.0330 o         1 064     -0.828800
     33 O36       -10.2170    2.2650    0.1740 o         1 064     -0.828800
     34 H6          2.0450    0.4220    1.6810 h1        1 064      0.057200
     35 H6A         2.1820    0.4940   -0.1520 h1        1 064      0.057200
     36 H10         2.9650   -2.8450    1.9440 hc        1 064      0.095700
     37 H16         5.7600   -3.9480    1.1580 hc        1 064      0.043200
     38 H16A        4.3180   -4.9390    1.6480 hc        1 064      0.043200
     39 H16B        4.2650   -3.9470    0.1300 hc        1 064      0.043200
     40 H17         4.1070   -2.0520    4.0160 hc        1 064      0.043200
     41 H17A        4.2270   -3.8560    3.8670 hc        1 064      0.043200
     42 H17B        5.6640   -2.8140    3.4830 hc        1 064      0.043200
     43 H19         4.1180    5.2810   -1.8400 ha        1 064      0.145000
     44 H20         0.2680   -3.3950    0.0620 ha        1 064      0.153000
     45 H21         0.0930    0.8980    0.6760 ha        1 064      0.136000
     46 H23        -2.3240    0.8730    0.1750 ha        1 064      0.149000
     47 H26        -4.2040   -2.0460   -1.1310 ha        1 064      0.137000
     48 H27        -4.3550    0.4270    0.7560 ha        1 064      0.118000
     49 H29        -6.3560    1.6600    0.7590 ha        1 064      0.152000
     50 H30        -6.2800   -2.1910   -1.2580 ha        1 064      0.109000
     51 H32        -8.7080   -1.9760   -1.7110 ha        1 064      0.108000
     52 H12         4.1650    3.2350   -3.2640 ha        1 064      0.153500
     53 H14         4.4590    5.1060    0.6230 ha        1 064      0.153500
     54 H33        -9.9630    0.0650   -0.9320 ha        1 064      0.153000
     55 C6          2.3900   -0.1290    0.7610 c3        1 064      0.207700
     56 CL13        4.5590    0.5260   -2.5830 cl        1 064     -0.067400
     57 CL15        4.9190    2.8580    2.2640 cl        1 064     -0.067400
@<TRIPOS>BOND
     1    1    2 2   
     2    1   22 1   
     3    1   23 1   
     4    2   24 1   
     5    3    6 1   
     6    3   22 2   
     7    3   24 1   
     8    4   23 ar  
     9    4   26 ar  
    10    4   56 1   
    11    5   23 ar  
    12    5   27 ar  
    13    5   57 1   
    14    6    7 1   
    15    6    8 1   
    16    6   36 1   
    17    7   37 1   
    18    7   38 1   
    19    7   39 1   
    20    8   40 1   
    21    8   41 1   
    22    8   42 1   
    23    9   11 ar  
    24    9   12 ar  
    25    9   25 1   
    26   10   26 ar  
    27   10   27 ar  
    28   10   43 1   
    29   11   13 ar  
    30   11   44 1   
    31   12   14 ar  
    32   12   45 1   
    33   13   15 ar  
    34   13   28 1   
    35   14   15 ar  
    36   14   46 1   
    37   15   16 1   
    38   16   17 2   
    39   16   47 1   
    40   17   18 1   
    41   17   48 1   
    42   18   19 ar  
    43   18   20 ar  
    44   19   29 ar  
    45   19   49 1   
    46   20   21 ar  
    47   20   50 1   
    48   21   30 ar  
    49   21   51 1   
    50   22   55 1   
    51   25   55 1   
    52   26   52 1   
    53   27   53 1   
    54   29   30 ar  
    55   29   31 1   
    56   30   54 1   
    57   31   32 1   
    58   31   33 1   
    59   34   55 1   
    60   35   55 1   
@<TRIPOS>SUBSTRUCTURE
     1 064         1 TEMP              0 ****  ****    0 ROOT
