@<TRIPOS>MOLECULE
064
   57    58     1     0     0
SMALL
bcc


@<TRIPOS>ATOM
      1 C1         -0.5600    0.8840    0.1940 c2        1 064     -0.017000
      2 N4          0.4140    1.6970    0.6260 n2        1 064      0.001000
      3 C5          0.2230    0.0690    2.1620 c2        1 064      0.182000
      4 C7         -1.2260    0.3200   -2.1320 c2        1 064      0.060000
      5 C8         -2.3460    2.1530   -0.9950 c2        1 064     -0.062000
      6 C10         0.5740   -0.5680    3.4380 c3        1 064     -0.151000
      7 C16         2.6770   -1.7720    2.7810 c3        1 064     -0.219000
      8 C17         2.0690   -0.7060    3.6550 c3        1 064     -0.156000
      9 C18        -3.0890   -2.7120    3.7720 c2        1 064      0.101000
     10 C19        -3.1920    1.2930   -3.2490 c1        1 064      0.217000
     11 C20        -3.5260   -3.2500    4.9520 c2        1 064     -0.278000
     12 C21        -3.9870   -1.8510    2.9520 c3        1 064     -0.212000
     13 C22        -4.8520   -2.9760    5.4100 c2        1 064      0.058000
     14 C23        -5.3120   -1.5760    3.4890 c1        1 064     -0.102000
     15 C24        -5.7320   -2.1630    4.7080 c2        1 064     -0.129000
     16 C26        -7.0770   -1.8850    5.1750 c2        1 064     -0.180000
     17 C27        -7.9280   -1.0840    4.5020 c2        1 064     -0.040000
     18 C28        -9.2800   -0.7700    4.9070 c2        1 064     -0.163000
     19 C29       -10.1000   -0.0790    4.0610 c2        1 064     -0.041000
     20 C30        -9.7520   -1.2770    6.2580 c3        1 064     -0.075000
     21 C32       -10.9290   -0.4620    6.7190 c2        1 064     -0.207000
     22 C2         -0.7390   -0.2300    1.1640 c2        1 064     -0.261000
     23 C3         -1.3580    1.0700   -1.0070 c2        1 064     -0.092000
     24 O9          0.8860    1.2270    1.7860 os        1 064     -0.056000
     25 O11        -1.8280   -2.9660    3.3450 oh        1 064     -0.320000
     26 C12        -2.0880    0.5500   -3.2710 c2        1 064     -0.460000
     27 C14        -3.6740    1.9460   -1.0740 c2        1 064     -0.156000
     28 CL25       -5.2710   -3.7110    6.8890 cl        1 064     -0.022000
     29 C31       -11.5380   -0.0140    4.3830 c2        1 064     -0.077000
     30 C33       -11.6890   -0.0890    5.7030 c1        1 064     -0.105000
     31 C34       -12.5460    0.0240    3.2540 c2        1 064      0.373000
     32 O35       -12.1050    0.3370    2.1100 o         1 064     -0.554500
     33 O36       -13.7510   -0.2420    3.5050 o         1 064     -0.554500
     34 H6         -1.6740   -2.4590    2.4800 ho        1 064      0.288000
     35 H6A        -2.2840   -1.4580    0.3320 ha        1 064      0.092000
     36 H10         0.1340    0.0640    4.2620 hc        1 064      0.148000
     37 H16         2.5400   -1.5230    1.7010 hc        1 064      0.080667
     38 H16A        0.0740   -1.5790    3.4830 hc        1 064      0.148000
     39 H16B        2.2010   -2.7640    2.9760 hc        1 064      0.080667
     40 H17         2.2400   -0.9650    4.7340 hc        1 064      0.097000
     41 H17A        3.7710   -1.8580    2.9870 hc        1 064      0.080667
     42 H17B        2.5700    0.2790    3.4610 hc        1 064      0.097000
     43 H19        -4.1140    0.9360   -1.0310 ha        1 064      0.158000
     44 H20        -2.8670   -3.8940    5.5510 ha        1 064      0.151000
     45 H21        -3.4820   -0.8600    2.7560 hc        1 064      0.151500
     46 H23        -4.1390   -2.3350    1.9410 hc        1 064      0.151500
     47 H26        -7.3810   -2.3720    6.1150 ha        1 064      0.120000
     48 H27        -7.5930   -0.6220    3.5520 ha        1 064      0.146000
     49 H29        -9.7920    0.2910    3.0720 ha        1 064      0.160000
     50 H30        -9.9680   -2.3740    6.1750 hc        1 064      0.084500
     51 H32        -8.9370   -1.1400    7.0170 hc        1 064      0.084500
     52 H12        -1.8040    0.0700   -4.2300 ha        1 064      0.202000
     53 H14        -4.4000    2.7720   -1.1130 ha        1 064      0.158000
     54 H33       -10.9930   -0.1300    7.7550 ha        1 064      0.125000
     55 C6         -1.5870   -1.3120    1.1650 c1        1 064     -0.133000
     56 CL13       -0.0770   -0.9200   -2.2690 cl        1 064      0.013000
     57 CL15       -1.6980    3.7240   -0.9190 cl        1 064      0.013000
@<TRIPOS>BOND
     1    1    2 1   
     2    1   22 1   
     3    1   23 1   
     4    2   24 1   
     5    3    6 1   
     6    3   22 1   
     7    3   24 1   
     8    4   23 1   
     9    4   26 1   
    10    4   56 1   
    11    5   23 1   
    12    5   27 1   
    13    5   57 1   
    14    6    8 1   
    15    6   36 1   
    16    6   38 1   
    17    7    8 1   
    18    7   37 1   
    19    7   39 1   
    20    7   41 1   
    21    8   40 1   
    22    8   42 1   
    23    9   11 1   
    24    9   12 1   
    25    9   25 1   
    26   10   26 1   
    27   11   13 1   
    28   11   44 1   
    29   12   14 1   
    30   12   45 1   
    31   12   46 1   
    32   13   15 1   
    33   13   28 1   
    34   14   15 1   
    35   15   16 1   
    36   16   17 1   
    37   16   47 1   
    38   17   18 1   
    39   17   48 1   
    40   18   19 1   
    41   18   20 1   
    42   19   29 1   
    43   19   49 1   
    44   20   21 1   
    45   20   50 1   
    46   20   51 1   
    47   21   30 1   
    48   21   54 1   
    49   22   55 1   
    50   25   34 1   
    51   26   52 1   
    52   27   43 1   
    53   27   53 1   
    54   29   30 1   
    55   29   31 1   
    56   31   32 1   
    57   31   33 1   
    58   35   55 1   
@<TRIPOS>SUBSTRUCTURE
     1 064         1 TEMP              0 ****  ****    0 ROOT
