@<TRIPOS>MOLECULE
064
   57    50     1     0     0
SMALL
bcc


@<TRIPOS>ATOM
      1 C1          2.8770    0.5880   -3.1570 c2        1 064     -0.036000
      2 N4          4.2260    0.5140   -3.1760 n2        1 064     -0.007000
      3 C5          3.5870    0.3710   -1.0280 c1        1 064     -0.006000
      4 C6          1.0210    0.5400   -1.3360 c3        1 064      0.049000
      5 C7          1.9640   -0.1810   -5.1530 c1        1 064     -0.046000
      6 C8          1.8190    2.1750   -4.7570 c1        1 064     -0.038000
      7 C10         4.3720    0.1460    0.3010 c2        1 064     -0.046000
      8 C16         5.2930   -1.0790    0.1570 c3        1 064     -0.208000
      9 C17         5.1690    1.3050    0.5890 c3        1 064     -0.208000
     10 C18        -0.4510   -0.2820    0.3990 c1        1 064      0.063000
     11 C19         1.4600    1.3150   -6.9590 c1        1 064     -0.114667
     12 C20        -0.0770    0.0600    1.6860 c1        1 064     -0.148000
     13 C21        -1.3840   -1.2950    0.1890 c1        1 064     -0.114667
     14 C22        -0.6330   -0.6100    2.7730 c1        1 064     -0.039000
     15 C23        -1.9440   -1.9690    1.2770 c1        1 064     -0.114667
     16 C24        -1.5750   -1.6320    2.5590 c1        1 064     -0.034000
     17 C26        -2.0690   -2.4780    3.7410 c2        1 064     -0.148000
     18 C27        -3.2150   -2.1700    4.3450 c1        1 064     -0.073000
     19 C28        -4.0180   -0.9920    3.8720 c1        1 064     -0.091000
     20 C29        -5.1800   -1.1910    3.1940 c2        1 064     -0.096000
     21 C30        -3.6710    0.3140    4.3140 c1        1 064     -0.135000
     22 C32        -4.5240    1.3920    4.0520 c1        1 064     -0.114667
     23 C2          2.4580    0.5000   -1.8220 c2        1 064     -0.192000
     24 C3          2.0360    0.8810   -4.2890 c2        1 064     -0.048000
     25 O9          4.6780    0.3780   -1.8430 os        1 064     -0.070000
     26 O11         0.8800   -0.2820   -0.1570 os        1 064     -0.230000
     27 C12         1.6750    0.0360   -6.4970 c1        1 064     -0.148000
     28 CL13        2.4460   -1.7350   -4.6280 cl        1 064     -0.038000
     29 C14         1.5320    2.3860   -6.0900 c1        1 064     -0.114667
     30 CL15        2.1870    3.7400   -4.2820 cl        1 064     -0.001000
     31 CL25       -0.0650   -0.2820    4.3810 cl        1 064     -0.038000
     32 C31        -6.0450   -0.0930    2.9300 c1        1 064     -0.112000
     33 C33        -5.7000    1.1890    3.3660 c1        1 064     -0.114667
     34 C34        -7.3380   -0.3020    2.0740 c2        1 064      0.356000
     35 O35        -8.4930   -0.3990    2.6570 o         1 064     -0.570500
     36 O36        -7.2760   -0.2320    0.8460 o         1 064     -0.570500
     37 H6          0.7830    1.4370   -1.1270 h1        1 064      0.109500
     38 H6A         0.3880    0.1770   -2.0940 h1        1 064      0.109500
     39 H10         3.7470   -0.0040    1.0230 ha        1 064      0.117000
     40 H16         4.7590   -1.8560   -0.1610 hc        1 064      0.081000
     41 H16A        6.0270   -0.8770   -0.5130 hc        1 064      0.081000
     42 H16B        5.6980   -1.2930    1.0360 hc        1 064      0.081000
     43 H17         4.6410    2.1370    0.3890 hc        1 064      0.081000
     44 H17A        5.4290    1.3010    1.5460 hc        1 064      0.081000
     45 H17B        5.9450    1.2870    0.0540 hc        1 064      0.081000
     46 H19         1.2550    1.4680   -7.9190 ha        1 064      0.164000
     47 H20         0.5780    0.7690    1.8300 ha        1 064      0.148000
     48 H21        -1.6120   -1.5550   -0.7050 ha        1 064      0.164000
     49 H23        -2.6160   -2.6940    1.1250 ha        1 064      0.164000
     50 H26        -1.5490   -3.2390    4.0460 ha        1 064      0.120000
     51 H27        -3.5520   -2.7450    5.1510 ha        1 064      0.116000
     52 H29        -5.4310   -2.1260    2.8760 ha        1 064      0.148000
     53 H30        -2.8420    0.4500    4.9050 ha        1 064      0.112000
     54 H32        -4.2890    2.2730    4.3500 ha        1 064      0.164000
     55 H12         1.6240   -0.7350   -7.1270 ha        1 064      0.143000
     56 H14         1.2880    3.2670   -6.3960 ha        1 064      0.164000
     57 H33        -6.2890    1.9350    3.1860 ha        1 064      0.164000
@<TRIPOS>BOND
     1    1    2 1   
     2    1   23 1   
     3    1   24 1   
     4    2   25 1   
     5    3   23 1   
     6    3   25 1   
     7    4   23 1   
     8    4   26 1   
     9    4   37 1   
    10    4   38 1   
    11    5   24 1   
    12    5   27 1   
    13    6   24 1   
    14    6   30 1   
    15    7    8 1   
    16    7    9 1   
    17    7   39 1   
    18    8   40 1   
    19    8   41 1   
    20    8   42 1   
    21    9   43 1   
    22    9   44 1   
    23    9   45 1   
    24   10   12 1   
    25   10   26 1   
    26   11   29 1   
    27   11   46 1   
    28   12   47 1   
    29   13   15 1   
    30   13   48 1   
    31   14   16 1   
    32   14   31 1   
    33   15   49 1   
    34   16   17 1   
    35   17   18 1   
    36   17   50 1   
    37   18   51 1   
    38   19   20 1   
    39   19   21 1   
    40   20   32 1   
    41   20   52 1   
    42   21   53 1   
    43   22   33 1   
    44   22   54 1   
    45   27   55 1   
    46   29   56 1   
    47   32   34 1   
    48   33   57 1   
    49   34   35 1   
    50   34   36 1   
@<TRIPOS>SUBSTRUCTURE
     1 064         1 TEMP              0 ****  ****    0 ROOT
