@<TRIPOS>MOLECULE
064
   57    59     1     0     0
SMALL
bcc


@<TRIPOS>ATOM
      1 C1         -1.2240    0.8300    0.4740 c2        1 064     -0.020000
      2 N4         -0.5580    1.8420    1.0500 n2        1 064     -0.004000
      3 C5         -0.1970    0.0380    2.3370 c2        1 064      0.170000
      4 C7         -1.4240    0.9000   -1.9630 c2        1 064      0.055000
      5 C8         -3.4660    1.0150   -0.5180 c2        1 064     -0.173000
      6 C10         0.3600   -0.6290    3.5210 c3        1 064     -0.147000
      7 C16         2.6210   -1.2860    2.6440 c3        1 064     -0.219000
      8 C17         1.8630   -0.4620    3.6510 c3        1 064     -0.155000
      9 C18        -2.9270   -3.1220    3.6020 c2        1 064      0.103000
     10 C19        -3.4220    1.0050   -3.3980 c1        1 064     -0.080000
     11 C20        -3.4740   -3.7080    4.7140 c2        1 064     -0.277000
     12 C21        -3.7030   -2.1230    2.8160 c3        1 064     -0.216000
     13 C22        -4.7920   -3.3460    5.1320 c2        1 064      0.062000
     14 C23        -5.0220   -1.7630    3.3160 c1        1 064     -0.113000
     15 C24        -5.5560   -2.4000    4.4610 c2        1 064     -0.131000
     16 C26        -6.8930   -2.0270    4.8880 c2        1 064     -0.179000
     17 C27        -7.5620   -0.9980    4.3280 c2        1 064     -0.041000
     18 C28        -8.8940   -0.5610    4.6770 c2        1 064     -0.164000
     19 C29        -9.4750    0.4570    3.9740 c2        1 064     -0.040000
     20 C30        -9.6220   -1.3000    5.7850 c3        1 064     -0.074000
     21 C32       -10.7300   -0.4370    6.3240 c2        1 064     -0.207000
     22 C2         -1.0220   -0.4070    1.2750 c2        1 064     -0.268000
     23 C3         -2.0320    0.9150   -0.7430 c2        1 064     -0.096000
     24 O9          0.0580    1.3880    2.1450 os        1 064     -0.055000
     25 O11        -1.6700   -3.4520    3.2160 oh        1 064     -0.308000
     26 C12        -2.0940    0.9430   -3.2390 c2        1 064     -0.358000
     27 C14        -4.0780    1.0890    0.6680 c2        1 064     -0.148000
     28 CL25       -5.3550   -4.1480    6.5250 cl        1 064     -0.018000
     29 C31       -10.9190    0.6930    4.1520 c2        1 064     -0.080000
     30 C33       -11.2730    0.3080    5.3750 c1        1 064     -0.100000
     31 C34       -11.7260    1.2000    2.9740 c2        1 064      0.374000
     32 O35       -11.0700    1.6420    1.9860 o         1 064     -0.554500
     33 O36       -12.9830    1.1670    3.0400 o         1 064     -0.554500
     34 H6         -1.4470   -2.9320    2.3790 ho        1 064      0.288000
     35 H6A        -2.0390   -1.9480    0.1900 ha        1 064      0.094000
     36 H10        -0.1420   -0.1900    4.4300 hc        1 064      0.142500
     37 H16         0.0870   -1.7230    3.4730 hc        1 064      0.142500
     38 H16A        2.3600   -0.9780    1.6030 hc        1 064      0.081000
     39 H16B        2.3810   -2.3720    2.7590 hc        1 064      0.081000
     40 H17         2.1580   -0.7750    4.6880 hc        1 064      0.097000
     41 H17A        3.7200   -1.1500    2.7870 hc        1 064      0.081000
     42 H17B        2.1300    0.6230    3.5370 hc        1 064      0.097000
     43 H19        -3.5140    1.0720    1.6120 ha        1 064      0.154000
     44 H20        -2.9070   -4.4540    5.2880 ha        1 064      0.153000
     45 H21        -3.1090   -1.1650    2.7330 hc        1 064      0.151000
     46 H23        -3.8470   -2.5130    1.7640 hc        1 064      0.151000
     47 H26        -7.3420   -2.6320    5.6900 ha        1 064      0.121000
     48 H27        -7.0730   -0.4240    3.5150 ha        1 064      0.141000
     49 H29        -8.9780    1.0000    3.1580 ha        1 064      0.158000
     50 H30        -9.9730   -2.2880    5.3890 hc        1 064      0.084500
     51 H32        -8.9160   -1.4980    6.6340 hc        1 064      0.084500
     52 H12        -1.4660    0.9230   -4.1470 ha        1 064      0.183000
     53 H14        -5.1710    1.1580    0.7850 ha        1 064      0.154000
     54 H33       -10.8990   -0.3720    7.3990 ha        1 064      0.126000
     55 C6         -1.4740   -1.6960    1.0950 c1        1 064     -0.135000
     56 CL13        0.2790    0.8010   -2.0500 cl        1 064     -0.005000
     57 CL15       -4.4600    1.0510   -1.9570 cl        1 064      0.387000
@<TRIPOS>BOND
     1    1    2 1   
     2    1   22 1   
     3    1   23 1   
     4    2   24 1   
     5    3    6 1   
     6    3   22 1   
     7    3   24 1   
     8    4   23 1   
     9    4   26 1   
    10    4   56 1   
    11    5   23 1   
    12    5   27 1   
    13    5   57 1   
    14    6    8 1   
    15    6   36 1   
    16    6   37 1   
    17    7    8 1   
    18    7   38 1   
    19    7   39 1   
    20    7   41 1   
    21    8   40 1   
    22    8   42 1   
    23    9   11 1   
    24    9   12 1   
    25    9   25 1   
    26   10   26 1   
    27   10   57 1   
    28   11   13 1   
    29   11   44 1   
    30   12   14 1   
    31   12   45 1   
    32   12   46 1   
    33   13   15 1   
    34   13   28 1   
    35   14   15 1   
    36   15   16 1   
    37   16   17 1   
    38   16   47 1   
    39   17   18 1   
    40   17   48 1   
    41   18   19 1   
    42   18   20 1   
    43   19   29 1   
    44   19   49 1   
    45   20   21 1   
    46   20   50 1   
    47   20   51 1   
    48   21   30 1   
    49   21   54 1   
    50   22   55 1   
    51   25   34 1   
    52   26   52 1   
    53   27   43 1   
    54   27   53 1   
    55   29   30 1   
    56   29   31 1   
    57   31   32 1   
    58   31   33 1   
    59   35   55 1   
@<TRIPOS>SUBSTRUCTURE
     1 064         1 TEMP              0 ****  ****    0 ROOT
