@<TRIPOS>MOLECULE
065
   78    81     1     0     0
SMALL
bcc


@<TRIPOS>ATOM
      1 C2         -0.4740   -1.5710   -0.2310 ca        1 065      0.240100
      2 O39         0.5410   -2.2900   -0.7720 os        1 065     -0.272900
      3 C40         1.7070   -2.1470    0.1050 c3        1 065      0.319200
      4 O41         1.3100   -1.2640    1.1840 os        1 065     -0.306900
      5 C3         -0.0220   -0.9360    0.9770 ca        1 065      0.031100
      6 C4         -0.8390   -0.1580    1.7420 ca        1 065      0.005000
      7 C5         -2.1950    0.0200    1.2990 ca        1 065     -0.634500
      8 C6         -2.6100   -0.6100    0.0910 ca        1 065      0.063000
      9 C7         -1.7820   -1.4060   -0.6860 ca        1 065     -0.159000
     10 S8         -3.1880    0.8300    2.1670 s4        1 065      1.679300
     11 O9         -4.4950    0.8640    1.8000 o         1 065     -0.442400
     12 O10        -2.8000    1.2160    3.4140 o         1 065     -0.442400
     13 N11        -2.7350    3.0860    1.3890 n3        1 065     -0.901200
     14 C12        -2.5440    3.3020   -0.0480 c3        1 065      0.127800
     15 C13        -3.7790    3.5410   -0.9230 c3        1 065     -0.068700
     16 C14        -3.3040    3.7990   -2.3420 c3        1 065     -0.105100
     17 C15        -4.7560    2.3890   -0.9050 c3        1 065     -0.105100
     18 C16        -3.6920    3.9620    2.0530 c3        1 065      0.110800
     19 C17        -3.1930    5.3940    2.3150 c3        1 065      0.087100
     20 O18        -3.3140    6.2560    1.2070 oh        1 065     -0.591800
     21 C19        -3.9170    6.0100    3.5420 c3        1 065      0.103500
     22 N20        -3.2660    7.3280    3.9110 n4        1 065     -0.640800
     23 C21        -1.9820    7.0970    4.6360 c         1 065      0.614100
     24 O22        -1.8960    7.1120    5.8540 o         1 065     -0.391000
     25 O23        -0.9630    6.9090    3.7670 os        1 065     -0.407900
     26 C24         0.1650    6.1100    4.2450 c3        1 065      0.133100
     27 C25        -0.3160    4.6960    4.6080 c3        1 065      0.094400
     28 O26        -0.2700    3.9140    3.4090 os        1 065     -0.448600
     29 C27         0.6940    4.4790    2.5180 c3        1 065      0.316900
     30 O28        -0.0410    4.6220    1.3140 os        1 065     -0.458600
     31 C29         0.0650    5.9740    0.8230 c3        1 065      0.118400
     32 C30         0.8700    6.8000    1.8260 c3        1 065     -0.100400
     33 C31         1.0840    5.8920    3.0300 c3        1 065     -0.110700
     34 C32        -5.4160    6.2150    3.2840 c3        1 065     -0.050100
     35 C33        -6.3430    8.2710    4.3700 ca        1 065     -0.132500
     36 C34        -7.0020    8.9020    5.4230 ca        1 065     -0.107500
     37 C35        -7.4100    8.1650    6.5360 ca        1 065     -0.087000
     38 C36        -7.1610    6.7930    6.5920 ca        1 065     -0.107500
     39 C37        -6.5030    6.1570    5.5400 ca        1 065     -0.132500
     40 C38        -6.0860    6.8940    4.4250 ca        1 065     -0.174300
     41 H27         1.5290    3.7500    2.3690 h2        1 065      0.116700
     42 H31         2.1460    5.9270    3.3830 hc        1 065      0.121700
     43 H24         0.6430    6.6600    5.0950 h1        1 065      0.126700
     44 H141       -2.7710    2.9060   -2.7480 hc        1 065      0.051367
     45 H142       -4.1790    4.0170   -3.0010 hc        1 065      0.051367
     46 H143       -2.6110    4.6740   -2.3750 hc        1 065      0.051367
     47 H13        -4.3080    4.4700   -0.5640 hc        1 065      0.037700
     48 H151       -5.2150    2.2540    0.1050 hc        1 065      0.051367
     49 H152       -5.5800    2.5770   -1.6370 hc        1 065      0.051367
     50 H153       -4.2480    1.4380   -1.1970 hc        1 065      0.051367
     51 H121       -2.0100    2.3820   -0.4280 h1        1 065      0.071200
     52 H122       -1.8510    4.1860   -0.1970 h1        1 065      0.071200
     53 H161       -4.6490    3.9950    1.4580 h1        1 065      0.086700
     54 H162       -3.9220    3.4840    3.0520 h1        1 065      0.086700
     55 H17        -2.0710    5.3680    2.5150 h1        1 065      0.122700
     56 H18        -4.1690    6.1040    0.7780 ho        1 065      0.430000
     57 H19        -3.7890    5.3270    4.4350 hx        1 065      0.115700
     58 H321       -5.5660    6.8030    2.3380 hc        1 065      0.086700
     59 H322       -5.8620    5.1950    3.1250 hc        1 065      0.086700
     60 H35        -7.9400    8.6640    7.3640 ha        1 065      0.167000
     61 H36        -7.4950    6.2070    7.4640 ha        1 065      0.162500
     62 H37        -6.3280    5.0710    5.5810 ha        1 065      0.133500
     63 H20        -3.9120    7.8610    4.5240 hn        1 065      0.491800
     64 H251        0.3660    4.2320    5.3680 h1        1 065      0.083700
     65 H252       -1.3750    4.6640    4.9690 h1        1 065      0.083700
     66 H291       -0.9850    6.3500    0.7040 h1        1 065      0.072200
     67 H292        0.5680    5.9120   -0.1760 h1        1 065      0.072200
     68 H301        0.3350    7.7430    2.0960 hc        1 065      0.085700
     69 H302        1.8590    7.0900    1.3870 hc        1 065      0.085700
     70 H6         -3.6600   -0.4670   -0.2400 ha        1 065      0.180000
     71 H7         -2.1350   -1.8930   -1.6100 ha        1 065      0.207000
     72 H401        1.9500   -3.1560    0.5240 h2        1 065      0.120700
     73 H402        2.5240   -1.6600   -0.4840 h2        1 065      0.120700
     74 H4         -0.4870    0.3120    2.6770 ha        1 065      0.193000
     75 H33        -6.0680    8.8510    3.4750 ha        1 065      0.133500
     76 H111       -1.8240    3.2290    1.8270 hn        1 065      0.417800
     77 H202       -3.0870    7.8570    3.0440 hn        1 065      0.491800
     78 H34        -7.2150    9.9820    5.3690 ha        1 065      0.162500
@<TRIPOS>BOND
     1    1    2 1   
     2    1    5 ar  
     3    1    9 ar  
     4    2    3 1   
     5    3    4 1   
     6    3   72 1   
     7    3   73 1   
     8    4    5 1   
     9    5    6 ar  
    10    6    7 ar  
    11    6   74 1   
    12    7    8 ar  
    13    7   10 1   
    14    8    9 ar  
    15    8   70 1   
    16    9   71 1   
    17   10   11 1   
    18   10   12 1   
    19   13   14 1   
    20   13   18 1   
    21   13   76 1   
    22   14   15 1   
    23   14   51 1   
    24   14   52 1   
    25   15   16 1   
    26   15   17 1   
    27   15   47 1   
    28   16   44 1   
    29   16   45 1   
    30   16   46 1   
    31   17   48 1   
    32   17   49 1   
    33   17   50 1   
    34   18   19 1   
    35   18   53 1   
    36   18   54 1   
    37   19   20 1   
    38   19   21 1   
    39   19   55 1   
    40   20   56 1   
    41   21   22 1   
    42   21   34 1   
    43   21   57 1   
    44   22   23 1   
    45   22   63 1   
    46   22   77 1   
    47   23   24 2   
    48   23   25 1   
    49   25   26 1   
    50   26   27 1   
    51   26   33 1   
    52   26   43 1   
    53   27   28 1   
    54   27   64 1   
    55   27   65 1   
    56   28   29 1   
    57   29   30 1   
    58   29   33 1   
    59   29   41 1   
    60   30   31 1   
    61   31   32 1   
    62   31   66 1   
    63   31   67 1   
    64   32   33 1   
    65   32   68 1   
    66   32   69 1   
    67   33   42 1   
    68   34   40 1   
    69   34   58 1   
    70   34   59 1   
    71   35   36 ar  
    72   35   40 ar  
    73   35   75 1   
    74   36   37 ar  
    75   36   78 1   
    76   37   38 ar  
    77   37   60 1   
    78   38   39 ar  
    79   38   61 1   
    80   39   40 ar  
    81   39   62 1   
@<TRIPOS>SUBSTRUCTURE
     1 065         1 TEMP              0 ****  ****    0 ROOT
