@<TRIPOS>MOLECULE
065
   76    73     1     0     0
SMALL
bcc


@<TRIPOS>ATOM
      1 C2         -3.1930   -2.4870   -6.6970 c1        1 065      0.084000
      2 O39        -3.9690   -2.6770   -7.8910 o         1 065     -0.209000
      3 C40        -4.6700   -1.5160   -8.1340 c3        1 065      0.097000
      4 O41        -4.3980   -0.6220   -7.0830 os        1 065     -0.210000
      5 C3         -3.4640   -1.2380   -6.2130 c2        1 065     -0.018000
      6 C4         -2.7910   -0.7640   -5.0650 c1        1 065     -0.010000
      7 C5         -1.8520   -1.5660   -4.4260 c1        1 065     -0.833000
      8 C6         -1.5760   -2.8360   -4.9180 c1        1 065      0.000000
      9 C7         -2.2400   -3.3030   -6.0500 c1        1 065     -0.149000
     10 S8         -0.8240   -0.8630   -3.1040 s4        1 065      2.070800
     11 O9          0.4910   -0.5260   -3.5850 o         1 065     -0.549400
     12 O10        -1.3120    0.4260   -2.7000 o         1 065     -0.549400
     13 N11        -0.7430   -1.9130   -1.8080 n2        1 065     -0.832000
     14 C12        -0.5970   -3.3610   -2.0440 c3        1 065     -0.003000
     15 C13         0.8890   -3.7560   -1.9030 c3        1 065     -0.134000
     16 C14         0.9880   -5.1430   -1.2920 c3        1 065     -0.210500
     17 C15         1.5280   -3.7620   -3.2460 c3        1 065     -0.210500
     18 C16        -0.9540   -1.4050   -0.4320 c3        1 065     -0.061000
     19 C17        -0.0080   -0.2560   -0.1640 c3        1 065     -0.028000
     20 O18        -0.3180    0.7970   -0.9910 oh        1 065     -0.345000
     21 C19        -0.1420    0.1910    1.3140 c3        1 065      0.035000
     22 N20         0.4660    1.4820    1.4840 n         1 065     -0.310000
     23 C21         1.4320    1.7110    2.6030 c2        1 065      0.383000
     24 O22         1.9230    0.7660    3.1830 o         1 065     -0.405000
     25 O23         1.8220    3.0480    2.9550 os        1 065     -0.270000
     26 C24         2.9610    3.1080    3.8910 c3        1 065      0.019000
     27 C25         4.0040    2.6020    3.3500 c3        1 065     -0.029000
     28 O26         5.1700    3.4210    3.9000 os        1 065     -0.276000
     29 C27         4.5190    4.6570    4.5870 c3        1 065      0.139000
     30 O28         5.1160    5.9690    4.0580 os        1 065     -0.277000
     31 C29         4.0950    6.5100    3.0900 c3        1 065     -0.025000
     32 C30         3.2770    5.5470    2.9040 c3        1 065     -0.183000
     33 C31         3.3390    4.6570    4.2220 c3        1 065     -0.171000
     34 C32        -1.5880    0.2700    1.6850 c3        1 065     -0.126000
     35 C33        -2.2890    1.2350    3.8210 c1        1 065     -0.122000
     36 C34        -2.8450    1.1470    5.0940 c1        1 065     -0.127500
     37 C35        -2.8560   -0.0740    5.7710 c1        1 065     -0.127500
     38 C36        -2.3080   -1.2090    5.1700 c1        1 065     -0.127500
     39 C37        -1.7480   -1.1230    3.8890 c1        1 065     -0.127500
     40 C38        -1.7380    0.0930    3.2170 c1        1 065     -0.070000
     41 H27         4.5900    4.6010    5.5560 h2        1 065      0.140000
     42 H31         2.7530    5.0220    4.9240 hc        1 065      0.124000
     43 H24         2.7470    2.6310    4.7180 h1        1 065      0.132000
     44 H141        0.6620   -5.1190   -0.3830 hc        1 065      0.076167
     45 H142        0.4490   -5.7670   -1.8150 hc        1 065      0.076167
     46 H143        1.9280   -5.4370   -1.2960 hc        1 065      0.076167
     47 H13         1.3430   -3.1150   -1.3300 hc        1 065      0.114000
     48 H151        0.9230   -4.1830   -3.8930 hc        1 065      0.076167
     49 H152        1.7130   -2.8500   -3.5220 hc        1 065      0.076167
     50 H153        2.3520   -4.2580   -3.2070 hc        1 065      0.076167
     51 H121       -1.1260   -3.8500   -1.3940 h1        1 065      0.087500
     52 H122       -0.9080   -3.5770   -2.9430 h1        1 065      0.087500
     53 H161       -1.8860   -1.0940   -0.3380 h1        1 065      0.111500
     54 H162       -0.7800   -2.1350    0.2230 h1        1 065      0.111500
     55 H17         0.9140   -0.5450   -0.3360 h1        1 065      0.103000
     56 H18         0.4630    1.1430   -1.3570 ho        1 065      0.239000
     57 H19         0.3150   -0.4680    1.9020 h1        1 065      0.121000
     58 H321       -2.0990   -0.4610    1.2090 hc        1 065      0.109000
     59 H322       -1.9390    1.1280    1.4260 hc        1 065      0.109000
     60 H33        -2.2810    2.1050    3.3400 ha        1 065      0.132000
     61 H34        -3.2300    1.9470    5.5180 ha        1 065      0.130500
     62 H35        -3.2520   -0.1350    6.6790 ha        1 065      0.130500
     63 H36        -2.3160   -2.0880    5.6570 ha        1 065      0.130500
     64 H37        -1.3640   -1.9190    3.4670 ha        1 065      0.130500
     65 H20         0.2160    2.1950    0.9260 hn        1 065      0.240000
     66 H251        3.9560    2.6900    2.3890 h1        1 065      0.104000
     67 H252        4.0960    1.6620    3.6010 h1        1 065      0.104000
     68 H291        4.5320    6.7620    2.2330 h1        1 065      0.091000
     69 H292        3.6390    7.2700    3.4720 h1        1 065      0.091000
     70 H301        3.5490    5.0200    2.1270 hc        1 065      0.105500
     71 H302        2.3820    5.8920    2.7760 hc        1 065      0.105500
     72 H6         -0.9420   -3.3790   -4.4880 ha        1 065      0.166000
     73 H7         -2.0400   -4.2260   -6.4070 ha        1 065      0.168000
     74 H401       -4.3510   -1.1130   -9.0040 h2        1 065      0.120500
     75 H402       -5.6200   -1.7130   -8.1460 h2        1 065      0.120500
     76 H4         -2.9840    0.1250   -4.7210 ha        1 065      0.180000
@<TRIPOS>BOND
     1    1    5 1   
     2    1    9 1   
     3    2    3 1   
     4    3    4 1   
     5    3   74 1   
     6    3   75 1   
     7    4    5 1   
     8    5    6 1   
     9    6   76 1   
    10    7    8 1   
    11    7   10 1   
    12    8   72 1   
    13    9   73 1   
    14   10   11 1   
    15   10   12 1   
    16   13   14 1   
    17   13   18 1   
    18   14   15 1   
    19   14   51 1   
    20   14   52 1   
    21   15   16 1   
    22   15   17 1   
    23   15   47 1   
    24   16   44 1   
    25   16   45 1   
    26   16   46 1   
    27   17   48 1   
    28   17   49 1   
    29   17   50 1   
    30   18   19 1   
    31   18   53 1   
    32   18   54 1   
    33   19   20 1   
    34   19   21 1   
    35   19   55 1   
    36   20   56 1   
    37   21   22 1   
    38   21   34 1   
    39   21   57 1   
    40   22   23 1   
    41   22   65 1   
    42   23   24 1   
    43   23   25 1   
    44   25   26 1   
    45   26   27 1   
    46   26   33 1   
    47   26   43 1   
    48   27   28 1   
    49   27   66 1   
    50   27   67 1   
    51   28   29 1   
    52   29   30 1   
    53   29   33 1   
    54   29   41 1   
    55   30   31 1   
    56   31   32 1   
    57   31   68 1   
    58   31   69 1   
    59   32   33 1   
    60   32   70 1   
    61   32   71 1   
    62   33   42 1   
    63   34   40 1   
    64   34   58 1   
    65   34   59 1   
    66   35   40 1   
    67   35   60 1   
    68   36   37 1   
    69   36   61 1   
    70   37   62 1   
    71   38   39 1   
    72   38   63 1   
    73   39   64 1   
@<TRIPOS>SUBSTRUCTURE
     1 065         1 TEMP              0 ****  ****    0 ROOT
