@<TRIPOS>MOLECULE
065
   78    81     1     0     0
SMALL
bcc


@<TRIPOS>ATOM
      1 C2         -0.3840   -1.5710   -0.1150 ca        1 065      0.240100
      2 O39         0.6430   -2.2800   -0.6460 os        1 065     -0.272900
      3 C40         1.8100   -2.0940    0.2220 c3        1 065      0.319200
      4 O41         1.3990   -1.1950    1.2840 os        1 065     -0.306900
      5 C3          0.0590   -0.9010    1.0760 ca        1 065      0.031100
      6 C4         -0.7710   -0.1230    1.8280 ca        1 065      0.005000
      7 C5         -2.1320    0.0150    1.3890 ca        1 065     -0.634500
      8 C6         -2.5390   -0.6480    0.1970 ca        1 065      0.063000
      9 C7         -1.6970   -1.4440   -0.5670 ca        1 065     -0.159000
     10 S8         -3.1380    0.8230    2.2450 s4        1 065      1.679300
     11 O9         -4.4480    0.8200    1.8840 o         1 065     -0.442400
     12 O10        -2.7520    1.2450    3.4800 o         1 065     -0.442400
     13 N11        -2.7350    3.0670    1.4110 n3        1 065     -0.901200
     14 C12        -2.5710    3.2530   -0.0340 c3        1 065      0.127800
     15 C13        -3.8230    3.4540   -0.8930 c3        1 065     -0.068700
     16 C14        -3.3740    3.6830   -2.3260 c3        1 065     -0.104600
     17 C15        -4.7830    2.2890   -0.8310 c3        1 065     -0.104600
     18 C16        -3.6960    3.9440    2.0700 c3        1 065      0.110800
     19 C17        -3.2150    5.3890    2.2920 c3        1 065      0.087100
     20 O18        -3.3650    6.2230    1.1670 oh        1 065     -0.591800
     21 C19        -3.9290    6.0220    3.5150 c3        1 065      0.103500
     22 N20        -3.2920    7.3570    3.8460 n4        1 065     -0.640800
     23 C21        -1.9950    7.1610    4.5560 c         1 065      0.614100
     24 O22        -1.8900    7.2050    5.7710 o         1 065     -0.391000
     25 O23        -0.9860    6.9680    3.6750 os        1 065     -0.408900
     26 C24         0.1610    6.1970    4.1540 c3        1 065      0.134100
     27 C25        -0.2930    4.7850    4.5560 c3        1 065      0.094400
     28 O26        -0.2530    3.9760    3.3740 os        1 065     -0.448600
     29 C27         0.6890    4.5350    2.4560 c3        1 065      0.316900
     30 O28        -0.0660    4.6400    1.2610 os        1 065     -0.458600
     31 C29         0.0120    5.9820    0.7380 c3        1 065      0.118400
     32 C30         0.8190    6.8420    1.7100 c3        1 065     -0.100400
     33 C31         1.0650    5.9650    2.9300 c3        1 065     -0.110700
     34 C32        -5.4350    6.2000    3.2760 c3        1 065     -0.050100
     35 C33        -6.3750    8.2660    4.3290 ca        1 065     -0.132500
     36 C34        -7.0280    8.9120    5.3770 ca        1 065     -0.107500
     37 C35        -7.4090    8.1940    6.5130 ca        1 065     -0.087000
     38 C36        -7.1400    6.8270    6.5960 ca        1 065     -0.107500
     39 C37        -6.4870    6.1770    5.5480 ca        1 065     -0.132500
     40 C38        -6.0980    6.8940    4.4110 ca        1 065     -0.174300
     41 H27         1.5320    3.8150    2.3110 h2        1 065      0.116700
     42 H31         2.1310    6.0240    3.2670 hc        1 065      0.121700
     43 H24         0.6430    6.7730    4.9840 h1        1 065      0.126700
     44 H141       -2.8370    2.7870   -2.7200 hc        1 065      0.051367
     45 H142       -2.6940    4.5660   -2.3920 hc        1 065      0.051367
     46 H143       -4.2630    3.8730   -2.9760 hc        1 065      0.051367
     47 H13        -4.3590    4.3840   -0.5480 hc        1 065      0.037700
     48 H151       -5.2280    2.1760    0.1880 hc        1 065      0.051367
     49 H152       -5.6200    2.4450   -1.5570 hc        1 065      0.051367
     50 H153       -4.2660    1.3370   -1.1030 hc        1 065      0.051367
     51 H121       -2.0290    2.3330   -0.4010 h1        1 065      0.071200
     52 H122       -1.8930    4.1430   -0.2140 h1        1 065      0.071200
     53 H161       -3.9030    3.4860    3.0830 h1        1 065      0.086700
     54 H162       -4.6620    3.9500    1.4890 h1        1 065      0.086700
     55 H17        -2.0890    5.3840    2.4760 h1        1 065      0.122700
     56 H18        -4.2230    6.0500    0.7540 ho        1 065      0.430000
     57 H19        -3.7780    5.3610    4.4220 hx        1 065      0.115700
     58 H321       -5.8680    5.1700    3.1460 hc        1 065      0.086700
     59 H322       -5.6070    6.7640    2.3190 hc        1 065      0.086700
     60 H35        -7.9340    8.7040    7.3370 ha        1 065      0.167000
     61 H36        -7.4520    6.2560    7.4860 ha        1 065      0.162500
     62 H37        -6.2970    5.0950    5.6120 ha        1 065      0.133500
     63 H20        -3.9370    7.8940    4.4560 hn        1 065      0.491800
     64 H251        0.4070    4.3480    5.3160 h1        1 065      0.083700
     65 H252       -1.3450    4.7450    4.9340 h1        1 065      0.083700
     66 H291        0.5010    5.9050   -0.2670 h1        1 065      0.072200
     67 H292       -1.0450    6.3400    0.6270 h1        1 065      0.072200
     68 H301        1.7970    7.1370    1.2490 hc        1 065      0.085700
     69 H302        0.2740    7.7830    1.9670 hc        1 065      0.085700
     70 H6         -3.5930   -0.5350   -0.1330 ha        1 065      0.180000
     71 H7         -2.0440   -1.9570   -1.4790 ha        1 065      0.207000
     72 H401        2.0760   -3.0870    0.6620 h2        1 065      0.120700
     73 H402        2.6140   -1.6020   -0.3810 h2        1 065      0.120700
     74 H4         -0.4240    0.3740    2.7510 ha        1 065      0.193000
     75 H33        -6.1220    8.8300    3.4180 ha        1 065      0.133500
     76 H111       -1.8200    3.2350    1.8310 hn        1 065      0.417800
     77 H202       -3.1340    7.8690    2.9650 hn        1 065      0.491800
     78 H34        -7.2580    9.9870    5.3030 ha        1 065      0.162500
@<TRIPOS>BOND
     1    1    2 1   
     2    1    5 ar  
     3    1    9 ar  
     4    2    3 1   
     5    3    4 1   
     6    3   72 1   
     7    3   73 1   
     8    4    5 1   
     9    5    6 ar  
    10    6    7 ar  
    11    6   74 1   
    12    7    8 ar  
    13    7   10 1   
    14    8    9 ar  
    15    8   70 1   
    16    9   71 1   
    17   10   11 1   
    18   10   12 1   
    19   13   14 1   
    20   13   18 1   
    21   13   76 1   
    22   14   15 1   
    23   14   51 1   
    24   14   52 1   
    25   15   16 1   
    26   15   17 1   
    27   15   47 1   
    28   16   44 1   
    29   16   45 1   
    30   16   46 1   
    31   17   48 1   
    32   17   49 1   
    33   17   50 1   
    34   18   19 1   
    35   18   53 1   
    36   18   54 1   
    37   19   20 1   
    38   19   21 1   
    39   19   55 1   
    40   20   56 1   
    41   21   22 1   
    42   21   34 1   
    43   21   57 1   
    44   22   23 1   
    45   22   63 1   
    46   22   77 1   
    47   23   24 2   
    48   23   25 1   
    49   25   26 1   
    50   26   27 1   
    51   26   33 1   
    52   26   43 1   
    53   27   28 1   
    54   27   64 1   
    55   27   65 1   
    56   28   29 1   
    57   29   30 1   
    58   29   33 1   
    59   29   41 1   
    60   30   31 1   
    61   31   32 1   
    62   31   66 1   
    63   31   67 1   
    64   32   33 1   
    65   32   68 1   
    66   32   69 1   
    67   33   42 1   
    68   34   40 1   
    69   34   58 1   
    70   34   59 1   
    71   35   36 ar  
    72   35   40 ar  
    73   35   75 1   
    74   36   37 ar  
    75   36   78 1   
    76   37   38 ar  
    77   37   60 1   
    78   38   39 ar  
    79   38   61 1   
    80   39   40 ar  
    81   39   62 1   
@<TRIPOS>SUBSTRUCTURE
     1 065         1 TEMP              0 ****  ****    0 ROOT
