@<TRIPOS>MOLECULE
065
   76    80     1     0     0
SMALL
bcc


@<TRIPOS>ATOM
      1 C2         -2.3330    3.9040   -0.8100 ca        1 065      0.123100
      2 O39        -1.7440    5.1460   -0.6540 os        1 065     -0.327900
      3 C40        -0.3280    4.9790   -0.9250 c3        1 065      0.316200
      4 O41        -0.1020    3.5850   -1.2310 os        1 065     -0.328900
      5 C3         -1.3400    2.9500   -1.1620 ca        1 065      0.028100
      6 C4         -1.6430    1.6240   -1.3810 ca        1 065     -0.007000
      7 C5         -2.9980    1.2490   -1.2370 ca        1 065     -0.390500
      8 C6         -3.9650    2.1990   -0.8930 ca        1 065     -0.013000
      9 C7         -3.6620    3.5510   -0.6700 ca        1 065     -0.149000
     10 S8         -3.4720   -0.3460   -1.5270 sy        1 065      1.505200
     11 O9         -4.8680   -0.3510   -1.7400 o         1 065     -0.650300
     12 O10        -2.6860   -0.8970   -2.5620 o         1 065     -0.650300
     13 N11        -3.1140   -1.1070   -0.1210 n3        1 065     -0.800500
     14 C12        -3.8230   -0.8240    1.1020 c3        1 065      0.220800
     15 C13        -4.8120   -1.9080    1.5700 c3        1 065     -0.081700
     16 C14        -5.0690   -1.7280    3.0520 c3        1 065     -0.096100
     17 C15        -6.1110   -1.8370    0.7990 c3        1 065     -0.096100
     18 C16        -2.0160   -2.0260   -0.0240 c3        1 065      0.192800
     19 C17        -0.7500   -1.4500    0.6470 c3        1 065      0.077100
     20 O18        -0.8330   -1.4740    2.0580 oh        1 065     -0.591800
     21 C19         0.5170   -2.1950    0.1380 c3        1 065      0.069700
     22 N20         1.7440   -1.4930    0.4670 n         1 065     -0.499900
     23 C21         1.9730   -0.2750   -0.1490 c         1 065      0.731100
     24 O22         1.4220    0.1820   -1.1650 o         1 065     -0.587000
     25 O23         2.9840    0.4470    0.4610 os        1 065     -0.433900
     26 C24         3.3890    1.6550   -0.1940 c3        1 065      0.130100
     27 C25         2.7530    2.8640    0.5170 c3        1 065      0.101400
     28 O26         3.7510    3.8830    0.6030 os        1 065     -0.421600
     29 C27         5.0450    3.3320    0.4010 c3        1 065      0.320900
     30 O28         5.6770    3.3750    1.6690 os        1 065     -0.420600
     31 C29         5.8190    2.0510    2.2010 c3        1 065      0.124400
     32 C30         5.5820    1.0550    1.0670 c3        1 065     -0.102400
     33 C31         4.9080    1.8520   -0.0430 c3        1 065     -0.115700
     34 C32         0.5370   -3.6390    0.6650 c3        1 065     -0.041100
     35 C33         2.6640   -4.9580    0.7720 ca        1 065     -0.121500
     36 C34         3.6380   -5.7530    0.1700 ca        1 065     -0.125000
     37 C35         3.5470   -6.0650   -1.1860 ca        1 065     -0.126000
     38 C36         2.4770   -5.5800   -1.9400 ca        1 065     -0.125000
     39 C37         1.5020   -4.7860   -1.3400 ca        1 065     -0.121500
     40 C38         1.5890   -4.4690    0.0210 ca        1 065     -0.083300
     41 H27         5.6020    4.0210   -0.2830 h2        1 065      0.100700
     42 H31         5.4090    1.6720   -1.0250 hc        1 065      0.080700
     43 H24         3.1000    1.6280   -1.2800 h1        1 065      0.100700
     44 H141       -5.4680   -0.7070    3.2610 hc        1 065      0.040367
     45 H142       -5.8180   -2.4780    3.4030 hc        1 065      0.040367
     46 H143       -4.1270   -1.8670    3.6360 hc        1 065      0.040367
     47 H13        -4.3550   -2.9250    1.4110 hc        1 065      0.046700
     48 H151       -6.6490   -0.8840    1.0220 hc        1 065      0.040367
     49 H152       -5.9250   -1.8800   -0.3030 hc        1 065      0.040367
     50 H153       -6.7740   -2.6890    1.0840 hc        1 065      0.040367
     51 H121       -3.0660   -0.6550    1.9250 h1        1 065      0.055700
     52 H122       -4.3960    0.1380    0.9550 h1        1 065      0.055700
     53 H161       -2.3460   -2.9330    0.5630 h1        1 065      0.069700
     54 H162       -1.7430   -2.3710   -1.0660 h1        1 065      0.069700
     55 H17        -0.6430   -0.3500    0.4020 h1        1 065      0.096700
     56 H18        -1.0720   -2.3700    2.3240 ho        1 065      0.399000
     57 H19         0.4570   -2.2200   -0.9950 h1        1 065      0.098700
     58 H321        0.6720   -3.6360    1.7800 hc        1 065      0.055700
     59 H322       -0.4700   -4.0880    0.4470 hc        1 065      0.055700
     60 H34         4.4790   -6.1340    0.7670 ha        1 065      0.134500
     61 H35         4.3160   -6.6910   -1.6610 ha        1 065      0.134000
     62 H36         2.4030   -5.8230   -3.0100 ha        1 065      0.134500
     63 H37         0.6600   -4.4050   -1.9380 ha        1 065      0.131500
     64 H20         2.0870   -1.5980    1.3960 hn        1 065      0.320500
     65 H251        1.9040    3.3010   -0.0690 h1        1 065      0.067700
     66 H252        2.4210    2.5950    1.5520 h1        1 065      0.067700
     67 H291        6.8560    1.9960    2.6160 h1        1 065      0.051200
     68 H292        5.0700    1.9290    3.0240 h1        1 065      0.051200
     69 H301        6.5550    0.6400    0.7020 hc        1 065      0.066200
     70 H302        4.9550    0.1980    1.4140 hc        1 065      0.066200
     71 H6         -5.0200    1.8780   -0.8080 ha        1 065      0.164000
     72 H7         -4.4360    4.2820   -0.4060 ha        1 065      0.164000
     73 H401       -0.0650    5.5930   -1.8210 h2        1 065      0.081700
     74 H402        0.2430    5.2410   -0.0000 h2        1 065      0.081700
     75 H4         -0.8630    0.8960   -1.6700 ha        1 065      0.192000
     76 H33         2.7420   -4.7160    1.8430 ha        1 065      0.131500
@<TRIPOS>BOND
     1    1    2 1   
     2    1    5 ar  
     3    1    9 ar  
     4    2    3 1   
     5    3    4 1   
     6    3   73 1   
     7    3   74 1   
     8    4    5 1   
     9    5    6 ar  
    10    6    7 ar  
    11    6   75 1   
    12    7    8 ar  
    13    7   10 1   
    14    8    9 ar  
    15    8   71 1   
    16    9   72 1   
    17   10   11 2   
    18   10   12 2   
    19   10   13 1   
    20   13   14 1   
    21   13   18 1   
    22   14   15 1   
    23   14   51 1   
    24   14   52 1   
    25   15   16 1   
    26   15   17 1   
    27   15   47 1   
    28   16   44 1   
    29   16   45 1   
    30   16   46 1   
    31   17   48 1   
    32   17   49 1   
    33   17   50 1   
    34   18   19 1   
    35   18   53 1   
    36   18   54 1   
    37   19   20 1   
    38   19   21 1   
    39   19   55 1   
    40   20   56 1   
    41   21   22 1   
    42   21   34 1   
    43   21   57 1   
    44   22   23 1   
    45   22   64 1   
    46   23   24 2   
    47   23   25 1   
    48   25   26 1   
    49   26   27 1   
    50   26   33 1   
    51   26   43 1   
    52   27   28 1   
    53   27   65 1   
    54   27   66 1   
    55   28   29 1   
    56   29   30 1   
    57   29   33 1   
    58   29   41 1   
    59   30   31 1   
    60   31   32 1   
    61   31   67 1   
    62   31   68 1   
    63   32   33 1   
    64   32   69 1   
    65   32   70 1   
    66   33   42 1   
    67   34   40 1   
    68   34   58 1   
    69   34   59 1   
    70   35   36 ar  
    71   35   40 ar  
    72   35   76 1   
    73   36   37 ar  
    74   36   60 1   
    75   37   38 ar  
    76   37   61 1   
    77   38   39 ar  
    78   38   62 1   
    79   39   40 ar  
    80   39   63 1   
@<TRIPOS>SUBSTRUCTURE
     1 065         1 TEMP              0 ****  ****    0 ROOT
