@<TRIPOS>MOLECULE
065
   78    81     1     0     0
SMALL
bcc


@<TRIPOS>ATOM
      1 C2         -0.0410   -1.1190    0.4210 ca        1 065      0.246100
      2 O39         1.0120   -1.6680   -0.2310 os        1 065     -0.270900
      3 C40         2.1490   -0.7500   -0.0930 c3        1 065      0.317200
      4 O41         1.6750    0.3850    0.6730 os        1 065     -0.302900
      5 C3          0.3440    0.1430    0.9860 ca        1 065      0.024100
      6 C4         -0.5170    0.9180    1.7060 ca        1 065      0.019000
      7 C5         -1.8540    0.4230    1.8960 ca        1 065     -0.652500
      8 C6         -2.2110   -0.8320    1.3110 ca        1 065      0.054000
      9 C7         -1.3380   -1.6160    0.5790 ca        1 065     -0.157000
     10 S8         -2.8640    1.1920    2.7630 s4        1 065      1.692300
     11 O9         -4.0750    0.6180    2.9970 o         1 065     -0.453400
     12 O10        -2.4800    2.2860    3.4790 o         1 065     -0.453400
     13 N11        -3.9870    2.6640    1.1170 n7        1 065     -0.902200
     14 C12        -3.1870    3.0000   -0.0580 c3        1 065      0.112800
     15 C13        -3.9590    3.4570   -1.3040 c3        1 065     -0.083700
     16 C14        -2.9640    3.7690   -2.4030 c3        1 065     -0.103600
     17 C15        -4.9510    2.4120   -1.7660 c3        1 065     -0.103600
     18 C16        -4.6230    3.8020    1.7790 c3        1 065      0.110800
     19 C17        -3.6540    4.8930    2.2650 c3        1 065      0.110100
     20 O18        -3.2330    5.7690    1.2420 oh        1 065     -0.598800
     21 C19        -4.3150    5.7070    3.4130 c3        1 065      0.103500
     22 N20        -3.3670    6.7870    3.8840 ny        1 065     -0.636800
     23 C21        -2.2390    6.2240    4.6810 c         1 065      0.616100
     24 O22        -2.3390    5.9340    5.8640 o         1 065     -0.410000
     25 O23        -1.1350    6.1090    3.9160 os        1 065     -0.402900
     26 C24         0.0480    5.5130    4.5420 c3        1 065      0.139100
     27 C25        -0.1960    4.0260    4.8300 c3        1 065      0.098400
     28 O26         0.4390    3.2550    3.8070 os        1 065     -0.433600
     29 C27         1.2670    4.0800    2.9980 c3        1 065      0.320900
     30 O28         0.6700    3.9900    1.7110 os        1 065     -0.447600
     31 C29         0.3330    5.3000    1.2220 c3        1 065      0.123400
     32 C30         0.8720    6.3340    2.2100 c3        1 065     -0.098400
     33 C31         1.1630    5.5490    3.4830 c3        1 065     -0.112700
     34 C32        -5.6510    6.3330    2.9820 c3        1 065     -0.051100
     35 C33        -5.9960    8.6380    3.8940 ca        1 065     -0.132000
     36 C34        -6.5420    9.5080    4.8350 ca        1 065     -0.108000
     37 C35        -7.2910    9.0050    5.9020 ca        1 065     -0.086000
     38 C36        -7.4950    7.6300    6.0220 ca        1 065     -0.108000
     39 C37        -6.9520    6.7560    5.0800 ca        1 065     -0.132000
     40 C38        -6.1960    7.2550    4.0130 ca        1 065     -0.177300
     41 H27         2.2910    3.6270    2.9600 h2        1 065      0.125700
     42 H31         2.1090    5.8940    3.9720 hc        1 065      0.119700
     43 H24         0.2800    6.1080    5.4620 h1        1 065      0.114700
     44 H141       -2.4090    2.8490   -2.7070 hc        1 065      0.052033
     45 H142       -2.2270    4.5360   -2.0630 hc        1 065      0.052033
     46 H143       -3.5000    4.1660   -3.3000 hc        1 065      0.052033
     47 H13        -4.5190    4.4020   -1.0520 hc        1 065      0.040700
     48 H151       -5.8060    2.3190   -1.0550 hc        1 065      0.052033
     49 H152       -4.4580    1.4150   -1.8710 hc        1 065      0.052033
     50 H153       -5.3680    2.6990   -2.7640 hc        1 065      0.052033
     51 H121       -2.4500    3.8070    0.2260 h1        1 065      0.076700
     52 H122       -2.6030    2.0710   -0.3250 h1        1 065      0.076700
     53 H161       -5.3840    4.2880    1.0990 h1        1 065      0.078700
     54 H162       -5.1740    3.3880    2.6740 h1        1 065      0.078700
     55 H17        -2.6880    4.4400    2.6550 h1        1 065      0.121700
     56 H18        -3.9660    5.9190    0.6270 ho        1 065      0.433000
     57 H19        -4.4920    5.0240    4.2980 hx        1 065      0.124700
     58 H321       -5.5190    6.8720    2.0050 hc        1 065      0.085200
     59 H322       -6.3720    5.4870    2.8110 hc        1 065      0.085200
     60 H35        -7.7300    9.6960    6.6410 ha        1 065      0.168000
     61 H36        -8.0980    7.2330    6.8550 ha        1 065      0.163500
     62 H37        -7.1360    5.6750    5.1700 ha        1 065      0.134500
     63 H20        -2.9930    7.2740    3.0540 hn        1 065      0.491800
     64 H251        0.2640    3.7310    5.8110 h1        1 065      0.086700
     65 H252       -1.2840    3.7570    4.8130 h1        1 065      0.086700
     66 H291        0.7980    5.3890    0.2080 h1        1 065      0.061200
     67 H292       -0.7860    5.3450    1.1430 h1        1 065      0.061200
     68 H301        0.1430    7.1630    2.3730 hc        1 065      0.079700
     69 H302        1.8200    6.7880    1.8230 hc        1 065      0.079700
     70 H6         -3.2450   -1.2050    1.4650 ha        1 065      0.181000
     71 H7         -1.6390   -2.5850    0.1480 ha        1 065      0.209000
     72 H401        2.9490   -1.2780    0.4850 h2        1 065      0.120700
     73 H402        2.4410   -0.4070   -1.1170 h2        1 065      0.120700
     74 H4         -0.1990    1.8910    2.1390 ha        1 065      0.223000
     75 H33        -5.4490    9.0470    3.0300 ha        1 065      0.134500
     76 H111       -4.7360    2.0430    0.8280 hn        1 065      0.403800
     77 H202       -3.8960    7.4550    4.4760 hn        1 065      0.491800
     78 H34        -6.3960   10.5950    4.7300 ha        1 065      0.163500
@<TRIPOS>BOND
     1    1    2 1   
     2    1    5 ar  
     3    1    9 ar  
     4    2    3 1   
     5    3    4 1   
     6    3   72 1   
     7    3   73 1   
     8    4    5 1   
     9    5    6 ar  
    10    6    7 ar  
    11    6   74 1   
    12    7    8 ar  
    13    7   10 1   
    14    8    9 ar  
    15    8   70 1   
    16    9   71 1   
    17   10   11 1   
    18   10   12 1   
    19   13   14 1   
    20   13   18 1   
    21   13   76 1   
    22   14   15 1   
    23   14   51 1   
    24   14   52 1   
    25   15   16 1   
    26   15   17 1   
    27   15   47 1   
    28   16   44 1   
    29   16   45 1   
    30   16   46 1   
    31   17   48 1   
    32   17   49 1   
    33   17   50 1   
    34   18   19 1   
    35   18   53 1   
    36   18   54 1   
    37   19   20 1   
    38   19   21 1   
    39   19   55 1   
    40   20   56 1   
    41   21   22 1   
    42   21   34 1   
    43   21   57 1   
    44   22   23 1   
    45   22   63 1   
    46   22   77 1   
    47   23   24 2   
    48   23   25 1   
    49   25   26 1   
    50   26   27 1   
    51   26   33 1   
    52   26   43 1   
    53   27   28 1   
    54   27   64 1   
    55   27   65 1   
    56   28   29 1   
    57   29   30 1   
    58   29   33 1   
    59   29   41 1   
    60   30   31 1   
    61   31   32 1   
    62   31   66 1   
    63   31   67 1   
    64   32   33 1   
    65   32   68 1   
    66   32   69 1   
    67   33   42 1   
    68   34   40 1   
    69   34   58 1   
    70   34   59 1   
    71   35   36 ar  
    72   35   40 ar  
    73   35   75 1   
    74   36   37 ar  
    75   36   78 1   
    76   37   38 ar  
    77   37   60 1   
    78   38   39 ar  
    79   38   61 1   
    80   39   40 ar  
    81   39   62 1   
@<TRIPOS>SUBSTRUCTURE
     1 065         1 TEMP              0 ****  ****    0 ROOT
