@<TRIPOS>MOLECULE
066
   63    66     1     0     0
SMALL
bcc


@<TRIPOS>ATOM
      1 O5          5.6380    1.7310   -0.1930 o         1 066     -0.631100
      2 C26         5.1830    1.0690   -1.1530 c         1 066      0.688700
      3 N4          5.6720    1.2990   -2.4160 n         1 066     -0.668000
      4 C8          4.1320    0.0330   -0.9930 ca        1 066     -0.374900
      5 C9          4.2600   -1.1910   -1.7080 ca        1 066      0.484200
      6 N2          3.3920   -2.1830   -1.6730 nb        1 066     -0.702000
      7 C10         2.2870   -2.0460   -0.8570 ca        1 066      0.477600
      8 C16         2.0640   -0.8770   -0.0610 ca        1 066     -0.214300
      9 C15         0.9510   -0.8520    0.8120 ca        1 066      0.039000
     10 C14         0.0450   -1.8930    0.8710 ca        1 066     -0.392500
     11 S          -1.2750   -1.8500    1.9050 sy        1 066      1.442600
     12 O3         -1.1530   -0.7620    2.7790 o         1 066     -0.651300
     13 C17        -2.5190   -1.5630    0.7940 ca        1 066     -0.364500
     14 C22        -2.5390   -0.4320   -0.0270 ca        1 066      0.029000
     15 C21        -3.5810   -0.2290   -0.9380 ca        1 066     -0.161600
     16 C23        -3.5650    1.0020   -1.7800 c         1 066      0.675700
     17 N3         -3.7690    0.8950   -3.1460 n         1 066     -0.476800
     18 C25        -3.8350    2.0760   -3.9650 c3        1 066      0.078300
     19 C24        -3.8480   -0.3610   -3.8320 c3        1 066      0.078300
     20 O4         -3.3680    2.1220   -1.2600 o         1 066     -0.609100
     21 C20        -4.6430   -1.1370   -0.9980 ca        1 066     -0.045000
     22 C19        -4.6430   -2.2570   -0.1670 ca        1 066     -0.162000
     23 C18        -3.5850   -2.4700    0.7120 ca        1 066     -0.009000
     24 O2         -1.4830   -3.1140    2.4800 o         1 066     -0.651300
     25 C13         0.2630   -3.0340    0.0630 ca        1 066     -0.028000
     26 C11         1.3430   -3.1310   -0.7830 ca        1 066     -0.141600
     27 C12         1.5480   -4.3480   -1.6050 c3        1 066     -0.044800
     28 C7          3.0230    0.2130   -0.1410 ca        1 066      0.304600
     29 N1          2.9230    1.3510    0.6360 nh        1 066     -0.642000
     30 C6          1.7560    2.1110    0.8480 ca        1 066      0.163600
     31 C27         1.7380    3.0050    1.9380 ca        1 066     -0.186000
     32 C5          0.6310    2.0340   -0.0030 ca        1 066     -0.221000
     33 C4         -0.4880    2.8220    0.2470 ca        1 066     -0.073000
     34 C3         -0.5200    3.7070    1.3220 ca        1 066     -0.209000
     35 C2          0.5980    3.7930    2.1600 ca        1 066      0.153100
     36 O1          0.6950    4.6420    3.2450 os        1 066     -0.325900
     37 C1         -0.4900    5.3480    3.5950 c3        1 066      0.112700
     38 HN4         6.3690    1.9900   -2.5460 hn        1 066      0.316000
     39 HN4A        5.2940    0.8420   -3.2040 hn        1 066      0.316000
     40 H9          5.1480   -1.3630   -2.3490 h4        1 066      0.026100
     41 H15         0.7940    0.0140    1.4860 ha        1 066      0.179000
     42 H22        -1.7310    0.3210    0.0430 ha        1 066      0.160000
     43 H25        -2.9160    2.1560   -4.6050 h1        1 066      0.045367
     44 H25A       -4.7360    2.0170   -4.6330 h1        1 066      0.045367
     45 H25B       -3.9120    2.9930   -3.3220 h1        1 066      0.045367
     46 H24        -4.9210   -0.6270   -4.0360 h1        1 066      0.045367
     47 H24A       -3.3070   -0.2900   -4.8150 h1        1 066      0.045367
     48 H24B       -3.3800   -1.1830   -3.2270 h1        1 066      0.045367
     49 H20        -5.4790   -0.9670   -1.6950 ha        1 066      0.144000
     50 H19        -5.4790   -2.9710   -0.2050 ha        1 066      0.147000
     51 H18        -3.5810   -3.3660    1.3620 ha        1 066      0.168000
     52 H13        -0.4510   -3.8740    0.1400 ha        1 066      0.150000
     53 H12         2.5190   -4.8360   -1.3390 hc        1 066      0.052033
     54 H12A        0.7250   -5.0860   -1.4420 hc        1 066      0.052033
     55 H12B        1.5800   -4.0840   -2.6920 hc        1 066      0.052033
     56 HN1         3.7820    1.8500    0.7980 hn        1 066      0.476800
     57 H27         2.5950    3.0990    2.6220 ha        1 066      0.161000
     58 H5          0.6350    1.3490   -0.8640 ha        1 066      0.135000
     59 H4         -1.3680    2.7470   -0.4170 ha        1 066      0.164000
     60 H3         -1.4160    4.3160    1.5010 ha        1 066      0.147000
     61 H1         -0.7710    6.0650    2.7850 h1        1 066      0.047033
     62 H1A        -1.3290    4.6390    3.8000 h1        1 066      0.047033
     63 H1B        -0.1980    5.8980    4.5250 h1        1 066      0.047033
@<TRIPOS>BOND
     1    1    2 2   
     2    2    3 1   
     3    2    4 1   
     4    3   38 1   
     5    3   39 1   
     6    4    5 ar  
     7    4   28 ar  
     8    5    6 ar  
     9    5   40 1   
    10    6    7 ar  
    11    7    8 ar  
    12    7   26 ar  
    13    8    9 ar  
    14    8   28 ar  
    15    9   10 ar  
    16    9   41 1   
    17   10   11 1   
    18   10   25 ar  
    19   11   12 2   
    20   11   13 1   
    21   11   24 2   
    22   13   14 ar  
    23   13   23 ar  
    24   14   15 ar  
    25   14   42 1   
    26   15   16 1   
    27   15   21 ar  
    28   16   17 1   
    29   16   20 2   
    30   17   18 1   
    31   17   19 1   
    32   18   43 1   
    33   18   44 1   
    34   18   45 1   
    35   19   46 1   
    36   19   47 1   
    37   19   48 1   
    38   21   22 ar  
    39   21   49 1   
    40   22   23 ar  
    41   22   50 1   
    42   23   51 1   
    43   25   26 ar  
    44   25   52 1   
    45   26   27 1   
    46   27   53 1   
    47   27   54 1   
    48   27   55 1   
    49   28   29 1   
    50   29   30 1   
    51   29   56 1   
    52   30   31 ar  
    53   30   32 ar  
    54   31   35 ar  
    55   31   57 1   
    56   32   33 ar  
    57   32   58 1   
    58   33   34 ar  
    59   33   59 1   
    60   34   35 ar  
    61   34   60 1   
    62   35   36 1   
    63   36   37 1   
    64   37   61 1   
    65   37   62 1   
    66   37   63 1   
@<TRIPOS>SUBSTRUCTURE
     1 066         1 TEMP              0 ****  ****    0 ROOT
