@<TRIPOS>MOLECULE
066
   65    68     1     0     0
SMALL
bcc


@<TRIPOS>ATOM
      1 O5          0.9230   -1.2280    1.0730 o         1 066     -0.501100
      2 C26         1.9850   -1.1270    0.4550 c         1 066      0.587700
      3 N4          3.1030   -1.8930    1.1560 n4        1 066     -0.753400
      4 C8          2.3070   -0.4770   -0.7730 ca        1 066     -0.483900
      5 C9          3.6730   -0.3350   -1.2080 ca        1 066      0.490200
      6 N2          4.0570    0.1040   -2.3730 nb        1 066     -0.665000
      7 C10         3.0800    0.4090   -3.3200 ca        1 066      0.491600
      8 C16         1.6860    0.3960   -3.0020 ca        1 066     -0.224300
      9 C15         0.7610    0.6260   -4.0360 ca        1 066      0.035000
     10 C14         1.1630    0.8820   -5.3440 ca        1 066     -0.381500
     11 S          -0.0220    1.0040   -6.5360 sy        1 066      1.432600
     12 O3         -1.1580    1.6090   -5.9870 o         1 066     -0.629300
     13 C17         0.6620    2.1100   -7.6470 ca        1 066     -0.352500
     14 C22         0.3970    3.4780   -7.5450 ca        1 066      0.057000
     15 C21         0.8530    4.3670   -8.5310 ca        1 066     -0.225600
     16 C23         0.5290    5.7860   -8.3610 c         1 066      0.573700
     17 N3          0.2250    6.5640   -9.6400 n4        1 066     -0.591200
     18 C25        -1.1170    7.1990   -9.5460 c3        1 066      0.082100
     19 C24         1.2800    7.5830   -9.8790 c3        1 066      0.082100
     20 O4          0.4420    6.4160   -7.3170 o         1 066     -0.410100
     21 C20         1.6150    3.8880   -9.6100 ca        1 066     -0.043000
     22 C19         1.8870    2.5290   -9.7090 ca        1 066     -0.137000
     23 C18         1.4000    1.6440   -8.7420 ca        1 066      0.035000
     24 O2         -0.1560   -0.2160   -7.1930 o         1 066     -0.629300
     25 C13         2.5380    0.9400   -5.6240 ca        1 066     -0.004000
     26 C11         3.4980    0.7200   -4.6490 ca        1 066     -0.119600
     27 C12         4.9390    0.7800   -4.9920 c3        1 066     -0.057800
     28 C7          1.2820    0.0840   -1.6240 ca        1 066      0.383600
     29 N1          0.0530    0.3090   -1.1290 nh        1 066     -0.564000
     30 C6         -1.0770    0.9180   -1.7500 ca        1 066      0.073600
     31 C27        -2.1510    0.1060   -2.1540 ca        1 066     -0.162000
     32 C5         -1.1660    2.3210   -1.8430 ca        1 066     -0.156000
     33 C4         -2.3340    2.8980   -2.3350 ca        1 066     -0.075000
     34 C3         -3.4130    2.1160   -2.7380 ca        1 066     -0.165000
     35 C2         -3.3170    0.7200   -2.6500 ca        1 066      0.158100
     36 O1         -4.3050   -0.1610   -3.0180 os        1 066     -0.313900
     37 C1         -5.5230    0.4080   -3.4980 c3        1 066      0.107700
     38 HN4         2.7000   -2.4290    1.9360 hn        1 066      0.467133
     39 HN4A        3.7980   -1.2400    1.5270 hn        1 066      0.467133
     40 H9          4.5090   -0.5690   -0.5200 h4        1 066      0.012100
     41 H15        -0.3280    0.5850   -3.8360 ha        1 066      0.179000
     42 H22        -0.1970    3.8580   -6.6910 ha        1 066      0.183000
     43 H25        -1.1420    7.8850   -8.6560 hx        1 066      0.111867
     44 H25A       -1.8970    6.3990   -9.4280 hx        1 066      0.111867
     45 H25B       -1.3170    7.7880  -10.4820 hx        1 066      0.111867
     46 H24         2.2690    7.0670  -10.0070 hx        1 066      0.111867
     47 H24A        1.0350    8.1680  -10.8060 hx        1 066      0.111867
     48 H24B        1.3280    8.2800   -8.9980 hx        1 066      0.111867
     49 H20         2.0260    4.5730  -10.3690 ha        1 066      0.142000
     50 H19         2.4810    2.1440  -10.5560 ha        1 066      0.180000
     51 H18         1.5830    0.5550   -8.8540 ha        1 066      0.189000
     52 H13         2.8690    1.1560   -6.6560 ha        1 066      0.145000
     53 H12         5.4640    1.5270   -4.3450 hc        1 066      0.066367
     54 H12A        5.4200   -0.2180   -4.8280 hc        1 066      0.066367
     55 H12B        5.0880    1.0710   -6.0610 hc        1 066      0.066367
     56 HN1        -0.1520    0.0170   -0.1860 hn        1 066      0.484800
     57 H27        -2.1190   -0.9920   -2.0830 ha        1 066      0.169000
     58 H5         -0.3340    2.9630   -1.5180 ha        1 066      0.149000
     59 H4         -2.4070    3.9960   -2.3960 ha        1 066      0.153000
     60 H3         -4.3270    2.5950   -3.1200 ha        1 066      0.161000
     61 H1         -5.9950    1.0450   -2.7110 h1        1 066      0.059700
     62 H1A        -5.3400    0.9950   -4.4300 h1        1 066      0.059700
     63 H1B        -6.1540   -0.4930   -3.7120 h1        1 066      0.059700
     64 H43         3.5590   -2.5330    0.5010 hn        1 066      0.467133
     65 H31         0.2160    5.9030  -10.4280 hn        1 066      0.455800
@<TRIPOS>BOND
     1    1    2 2   
     2    2    3 1   
     3    2    4 1   
     4    3   38 1   
     5    3   39 1   
     6    3   64 1   
     7    4    5 ar  
     8    4   28 ar  
     9    5    6 ar  
    10    5   40 1   
    11    6    7 ar  
    12    7    8 ar  
    13    7   26 ar  
    14    8    9 ar  
    15    8   28 ar  
    16    9   10 ar  
    17    9   41 1   
    18   10   11 1   
    19   10   25 ar  
    20   11   12 2   
    21   11   13 1   
    22   11   24 2   
    23   13   14 ar  
    24   13   23 ar  
    25   14   15 ar  
    26   14   42 1   
    27   15   16 1   
    28   15   21 ar  
    29   16   17 1   
    30   16   20 2   
    31   17   18 1   
    32   17   19 1   
    33   17   65 1   
    34   18   43 1   
    35   18   44 1   
    36   18   45 1   
    37   19   46 1   
    38   19   47 1   
    39   19   48 1   
    40   21   22 ar  
    41   21   49 1   
    42   22   23 ar  
    43   22   50 1   
    44   23   51 1   
    45   25   26 ar  
    46   25   52 1   
    47   26   27 1   
    48   27   53 1   
    49   27   54 1   
    50   27   55 1   
    51   28   29 1   
    52   29   30 1   
    53   29   56 1   
    54   30   31 ar  
    55   30   32 ar  
    56   31   35 ar  
    57   31   57 1   
    58   32   33 ar  
    59   32   58 1   
    60   33   34 ar  
    61   33   59 1   
    62   34   35 ar  
    63   34   60 1   
    64   35   36 1   
    65   36   37 1   
    66   37   61 1   
    67   37   62 1   
    68   37   63 1   
@<TRIPOS>SUBSTRUCTURE
     1 066         1 TEMP              0 ****  ****    0 ROOT
