@<TRIPOS>MOLECULE
066
   63    57     1     0     0
SMALL
bcc


@<TRIPOS>ATOM
      1 O5         -0.8710    3.1940    5.7270 o         1 066     -0.391000
      2 C26        -0.3310    2.1400    5.3450 c1        1 066      0.361000
      3 N4         -0.4200    0.9650    6.1430 n2        1 066     -0.427000
      4 C8          0.3230    2.0780    3.9890 c2        1 066     -0.275000
      5 C9          1.6870    2.1660    4.3070 c1        1 066      0.013000
      6 N2          2.6100    2.2890    3.3130 n1        1 066     -0.167000
      7 C10         2.2050    2.3250    1.9940 c1        1 066      0.080000
      8 C16         0.8500    2.2360    1.6740 c1        1 066     -0.139000
      9 C15         0.4400    2.1590    0.2980 c2        1 066      0.058000
     10 C14         1.3950    2.1730   -0.7140 c1        1 066     -0.833000
     11 S           0.9140    2.2990   -2.4650 ss        1 066      2.888000
     12 O3          1.5450    3.3890   -3.0900 o         1 066     -0.935000
     13 C17         1.2760    0.7380   -3.3310 c1        1 066     -0.815000
     14 C22         0.3180   -0.2910   -3.3550 c2        1 066      0.005000
     15 C21         0.5730   -1.4560   -4.0480 c1        1 066     -0.140000
     16 C23        -0.4970   -2.5580   -4.1200 c1        1 066      0.353000
     17 N3         -0.2290   -3.7640   -4.8400 n3        1 066     -0.328000
     18 C25        -0.2470   -5.0110   -4.1610 c3        1 066     -0.080000
     19 C24        -0.1250   -3.7320   -6.3030 c3        1 066     -0.080000
     20 O4         -1.6320   -2.3620   -3.6270 o         1 066     -0.385000
     21 C20         1.7700   -1.6130   -4.7190 c2        1 066     -0.028000
     22 C19         2.7230   -0.5910   -4.6960 c1        1 066     -0.160000
     23 C18         2.4670    0.5830   -3.9980 c1        1 066      0.005000
     24 O2         -0.4520    2.6560   -2.6010 o         1 066     -0.935000
     25 C13         2.7770    2.2640   -0.3850 c2        1 066     -0.039000
     26 C11         3.1770    2.3390    0.9650 c2        1 066     -0.065000
     27 C12         4.7190    2.2560    1.1580 c3        1 066     -0.172000
     28 C7         -0.0800    2.1140    2.6700 c2        1 066      0.205000
     29 N1         -1.4760    2.4340    2.4970 n3        1 066     -0.269000
     30 C6         -2.4910    1.4040    2.7180 c2        1 066      0.064000
     31 C27        -2.2980    0.1140    2.2170 c2        1 066     -0.204000
     32 C5         -3.6500    1.7170    3.3650 c1        1 066     -0.181000
     33 C4         -4.6510    0.7400    3.5260 c1        1 066     -0.146500
     34 C3         -4.4600   -0.5350    3.0290 c1        1 066     -0.146500
     35 C2         -3.2900   -0.8520    2.3760 c1        1 066      0.106000
     36 O1         -3.1540   -2.0720    1.7760 os        1 066     -0.213000
     37 C1         -2.5890   -3.0700    2.6220 c3        1 066     -0.089000
     38 HN4        -0.6710    1.0280    7.0520 hn        1 066      0.230000
     39 HN4A       -0.2750    0.1000    5.7450 hn        1 066      0.230000
     40 H9          1.9590    2.2550    5.2240 ha        1 066      0.164000
     41 H15        -0.5310    2.1140    0.0680 ha        1 066      0.166000
     42 H22        -0.5360   -0.1460   -2.9810 ha        1 066      0.168000
     43 H25         0.2200   -5.6820   -4.6980 h1        1 066      0.086833
     44 H25A       -1.1370   -5.2820   -4.0260 h1        1 066      0.086833
     45 H25B        0.2110   -4.9170   -3.2740 h1        1 066      0.086833
     46 H24        -0.5270   -4.5350   -6.6730 h1        1 066      0.086833
     47 H24A       -0.6190   -2.8990   -6.6670 h1        1 066      0.086833
     48 H24B        0.7950   -3.6920   -6.5570 h1        1 066      0.086833
     49 H20         1.9500   -2.4420   -5.2110 ha        1 066      0.152000
     50 H19         3.5850   -0.7040   -5.1780 ha        1 066      0.147000
     51 H18         3.1150    1.2800   -3.9820 ha        1 066      0.147000
     52 H13         3.4660    2.2730   -1.1120 ha        1 066      0.160000
     53 H12         5.1400    3.0460    0.7650 hc        1 066      0.092000
     54 H12A        4.9320    2.2160    2.1350 hc        1 066      0.092000
     55 H12B        5.0670    1.4370    0.7100 hc        1 066      0.092000
     56 HN1        -1.7370    3.3280    2.3670 hn        1 066      0.262000
     57 H27        -1.4720   -0.1100    1.7540 ha        1 066      0.154000
     58 H5         -3.7900    2.6490    3.7280 ha        1 066      0.147000
     59 H4         -5.4300    0.9500    3.9590 ha        1 066      0.148000
     60 H3         -5.1860   -1.2440    3.1460 ha        1 066      0.148000
     61 H1         -2.5660   -3.9220    2.1480 h1        1 066      0.094000
     62 H1A        -3.1280   -3.1600    3.4210 h1        1 066      0.094000
     63 H1B        -1.6590   -2.8050    2.8760 h1        1 066      0.094000
@<TRIPOS>BOND
     1    1    2 1   
     2    2    4 1   
     3    3   38 1   
     4    3   39 1   
     5    4    5 1   
     6    4   28 1   
     7    5   40 1   
     8    6    7 1   
     9    7   26 1   
    10    8    9 1   
    11    8   28 1   
    12    9   10 1   
    13    9   41 1   
    14   10   25 1   
    15   11   12 1   
    16   11   24 1   
    17   13   14 1   
    18   13   23 1   
    19   14   15 1   
    20   14   42 1   
    21   15   21 1   
    22   16   17 1   
    23   16   20 1   
    24   17   18 1   
    25   17   19 1   
    26   18   43 1   
    27   18   44 1   
    28   18   45 1   
    29   19   46 1   
    30   19   47 1   
    31   19   48 1   
    32   21   22 1   
    33   21   49 1   
    34   22   50 1   
    35   23   51 1   
    36   25   26 1   
    37   25   52 1   
    38   26   27 1   
    39   27   53 1   
    40   27   54 1   
    41   27   55 1   
    42   28   29 1   
    43   29   30 1   
    44   29   56 1   
    45   30   31 1   
    46   30   32 1   
    47   31   35 1   
    48   31   57 1   
    49   32   58 1   
    50   33   34 1   
    51   33   59 1   
    52   34   60 1   
    53   35   36 1   
    54   36   37 1   
    55   37   61 1   
    56   37   62 1   
    57   37   63 1   
@<TRIPOS>SUBSTRUCTURE
     1 066         1 TEMP              0 ****  ****    0 ROOT
