@<TRIPOS>MOLECULE
066
   65    68     1     0     0
SMALL
bcc


@<TRIPOS>ATOM
      1 O5          0.9430   -1.2020    1.0860 o         1 066     -0.501100
      2 C26         2.0000   -1.1180    0.4580 c         1 066      0.587700
      3 N4          3.1160   -1.8940    1.1510 nz        1 066     -0.753400
      4 C8          2.3180   -0.4780   -0.7770 ca        1 066     -0.483900
      5 C9          3.6810   -0.3560   -1.2270 ca        1 066      0.490200
      6 N2          4.0590    0.0720   -2.3980 nb        1 066     -0.665000
      7 C10         3.0750    0.3850   -3.3370 ca        1 066      0.491600
      8 C16         1.6850    0.3910   -3.0040 ca        1 066     -0.224300
      9 C15         0.7520    0.6260   -4.0300 ca        1 066      0.035000
     10 C14         1.1440    0.8700   -5.3430 ca        1 066     -0.381500
     11 S          -0.0510    1.0000   -6.5240 sy        1 066      1.432600
     12 O3         -1.1740    1.6220   -5.9680 o         1 066     -0.629300
     13 C17         0.6350    2.0910   -7.6490 ca        1 066     -0.352500
     14 C22         0.3870    3.4620   -7.5530 ca        1 066      0.057000
     15 C21         0.8430    4.3390   -8.5490 ca        1 066     -0.225600
     16 C23         0.5380    5.7630   -8.3840 c         1 066      0.573700
     17 N3          0.2300    6.5370   -9.6660 nx        1 066     -0.591200
     18 C25        -1.1030    7.1870   -9.5630 c3        1 066      0.082100
     19 C24         1.2950    7.5420   -9.9210 c3        1 066      0.082100
     20 O4          0.4700    6.4010   -7.3440 o         1 066     -0.410100
     21 C20         1.5900    3.8450   -9.6320 ca        1 066     -0.043000
     22 C19         1.8440    2.4820   -9.7260 ca        1 066     -0.137000
     23 C18         1.3560    1.6090   -8.7480 ca        1 066      0.035000
     24 O2         -0.2080   -0.2230   -7.1720 o         1 066     -0.629300
     25 C13         2.5170    0.9110   -5.6370 ca        1 066     -0.004000
     26 C11         3.4830    0.6840   -4.6710 ca        1 066     -0.119600
     27 C12         4.9220    0.7250   -5.0290 c3        1 066     -0.057800
     28 C7          1.2910    0.0920   -1.6200 ca        1 066      0.383600
     29 N1          0.0700    0.3340   -1.1140 nu        1 066     -0.564000
     30 C6         -1.0580    0.9560   -1.7270 ca        1 066      0.073600
     31 C27        -2.1480    0.1580   -2.1150 ca        1 066     -0.162000
     32 C5         -1.1270    2.3590   -1.8270 ca        1 066     -0.156000
     33 C4         -2.2930    2.9510   -2.3100 ca        1 066     -0.075000
     34 C3         -3.3860    2.1820   -2.6970 ca        1 066     -0.165000
     35 C2         -3.3100    0.7850   -2.6020 ca        1 066      0.158100
     36 O1         -4.3140   -0.0840   -2.9550 os        1 066     -0.313900
     37 C1         -5.5290    0.5000   -3.4250 c3        1 066      0.107700
     38 HN4         3.5560   -2.5430    0.4950 hn        1 066      0.467133
     39 HN4A        2.7140   -2.4220    1.9380 hn        1 066      0.467133
     40 H9          4.5210   -0.5980   -0.5460 h4        1 066      0.012100
     41 H15        -0.3350    0.6000   -3.8190 ha        1 066      0.179000
     42 H22        -0.1940    3.8550   -6.6950 ha        1 066      0.183000
     43 H25        -1.1120    7.8790   -8.6770 hx        1 066      0.111867
     44 H25A       -1.8900    6.3970   -9.4330 hx        1 066      0.111867
     45 H25B       -1.3050    7.7730  -10.5000 hx        1 066      0.111867
     46 H24         1.0480    8.1250  -10.8490 hx        1 066      0.111867
     47 H24A        1.3590    8.2440   -9.0440 hx        1 066      0.111867
     48 H24B        2.2770    7.0150  -10.0550 hx        1 066      0.111867
     49 H20         2.0010    4.5200  -10.4000 ha        1 066      0.142000
     50 H19         2.4250    2.0840  -10.5760 ha        1 066      0.180000
     51 H18         1.5240    0.5180   -8.8550 ha        1 066      0.189000
     52 H13         2.8400    1.1170   -6.6740 ha        1 066      0.145000
     53 H12         5.4630    1.4690   -4.3910 hc        1 066      0.066367
     54 H12A        5.0630    1.0080   -6.1010 hc        1 066      0.066367
     55 H12B        5.3930   -0.2770   -4.8640 hc        1 066      0.066367
     56 HN1        -0.1290    0.0500   -0.1680 hn        1 066      0.484800
     57 H27        -2.1300   -0.9400   -2.0370 ha        1 066      0.169000
     58 H5         -0.2830    2.9920   -1.5150 ha        1 066      0.149000
     59 H4         -2.3500    4.0500   -2.3770 ha        1 066      0.153000
     60 H3         -4.2980    2.6710   -3.0720 ha        1 066      0.161000
     61 H1         -5.9830    1.1480   -2.6370 h1        1 066      0.059700
     62 H1A        -6.1750   -0.3930   -3.6270 h1        1 066      0.059700
     63 H1B        -5.3460    1.0790   -4.3620 h1        1 066      0.059700
     64 H43         3.8230   -1.2480    1.5110 hn        1 066      0.467133
     65 H31         0.2070    5.8720  -10.4500 hn        1 066      0.455800
@<TRIPOS>BOND
     1    1    2 2   
     2    2    3 1   
     3    2    4 1   
     4    3   38 1   
     5    3   39 1   
     6    3   64 1   
     7    4    5 ar  
     8    4   28 ar  
     9    5    6 ar  
    10    5   40 1   
    11    6    7 ar  
    12    7    8 ar  
    13    7   26 ar  
    14    8    9 ar  
    15    8   28 ar  
    16    9   10 ar  
    17    9   41 1   
    18   10   11 1   
    19   10   25 ar  
    20   11   12 2   
    21   11   13 1   
    22   11   24 2   
    23   13   14 ar  
    24   13   23 ar  
    25   14   15 ar  
    26   14   42 1   
    27   15   16 1   
    28   15   21 ar  
    29   16   17 1   
    30   16   20 2   
    31   17   18 1   
    32   17   19 1   
    33   17   65 1   
    34   18   43 1   
    35   18   44 1   
    36   18   45 1   
    37   19   46 1   
    38   19   47 1   
    39   19   48 1   
    40   21   22 ar  
    41   21   49 1   
    42   22   23 ar  
    43   22   50 1   
    44   23   51 1   
    45   25   26 ar  
    46   25   52 1   
    47   26   27 1   
    48   27   53 1   
    49   27   54 1   
    50   27   55 1   
    51   28   29 1   
    52   29   30 1   
    53   29   56 1   
    54   30   31 ar  
    55   30   32 ar  
    56   31   35 ar  
    57   31   57 1   
    58   32   33 ar  
    59   32   58 1   
    60   33   34 ar  
    61   33   59 1   
    62   34   35 ar  
    63   34   60 1   
    64   35   36 1   
    65   36   37 1   
    66   37   61 1   
    67   37   62 1   
    68   37   63 1   
@<TRIPOS>SUBSTRUCTURE
     1 066         1 TEMP              0 ****  ****    0 ROOT
