@<TRIPOS>MOLECULE
066
   66    69     1     0     0
SMALL
bcc


@<TRIPOS>ATOM
      1 O5          0.4580   -2.7260   -0.9450 o         1 066     -0.429100
      2 C26         1.3140   -1.8610   -0.7890 c         1 066      0.578700
      3 N4          2.1060   -1.9960    0.4830 n4        1 066     -0.744400
      4 C8          1.6340   -0.7530   -1.6900 ca        1 066     -0.301900
      5 C9          2.9370   -0.1440   -1.6490 ca        1 066      0.443200
      6 N2          3.3300    0.8250   -2.4430 nb        1 066     -0.573000
      7 C10         2.4620    1.3110   -3.3980 ca        1 066      0.471600
      8 C16         1.1320    0.7710   -3.5490 ca        1 066     -0.168300
      9 C15         0.2990    1.3170   -4.5600 ca        1 066     -0.045000
     10 C14         0.7230    2.3470   -5.3740 ca        1 066     -0.264500
     11 S          -0.4280    3.0410   -6.4750 sy        1 066      1.420600
     12 O3         -0.7270    4.3140   -6.0040 o         1 066     -0.615800
     13 C17         0.4200    3.1740   -7.9190 ca        1 066     -0.399500
     14 C22         0.9050    4.4230   -8.3320 ca        1 066      0.049000
     15 C21         1.4690    4.5880   -9.6040 ca        1 066     -0.213600
     16 C23         1.9620    5.9290   -9.9590 c         1 066      0.562700
     17 N3          1.7040    6.3940  -11.3840 n4        1 066     -0.585200
     18 C25         0.9140    7.6570  -11.3740 c3        1 066      0.081100
     19 C24         2.9940    6.5860  -12.1010 c3        1 066      0.081100
     20 O4          2.5340    6.7150   -9.2190 o         1 066     -0.396100
     21 C20         1.5910    3.4870  -10.4660 ca        1 066     -0.021000
     22 C19         1.1260    2.2400  -10.0560 ca        1 066     -0.132000
     23 C18         0.5350    2.0890   -8.8000 ca        1 066      0.046000
     24 O2         -1.4330    2.0780   -6.5920 o         1 066     -0.615800
     25 C13         2.0220    2.8690   -5.2120 ca        1 066     -0.011000
     26 C11         2.8950    2.3780   -4.2560 ca        1 066     -0.073600
     27 C12         4.2540    2.9500   -4.1110 c3        1 066     -0.077800
     28 C7          0.7330   -0.2800   -2.6590 ca        1 066      0.164600
     29 N1         -0.6170   -0.8540   -2.7800 n4        1 066     -0.535800
     30 C6         -1.5900   -0.2850   -1.8240 ca        1 066     -0.043400
     31 C27        -2.1960   -1.1520   -0.9020 ca        1 066     -0.178000
     32 C5         -1.9390    1.0720   -1.8970 ca        1 066     -0.146000
     33 C4         -2.9280    1.5570   -1.0380 ca        1 066     -0.053000
     34 C3         -3.5540    0.7250   -0.1170 ca        1 066     -0.140000
     35 C2         -3.1840   -0.6310   -0.0430 ca        1 066      0.180100
     36 O1         -3.7020   -1.5400    0.8350 os        1 066     -0.309900
     37 C1         -4.8210   -1.1190    1.6280 c3        1 066      0.101700
     38 HN4         3.0580   -2.3300    0.2780 hn        1 066      0.492133
     39 HN4A        2.1660   -1.0940    0.9710 hn        1 066      0.492133
     40 H9          3.7120   -0.4870   -0.9340 h4        1 066      0.048100
     41 H15        -0.7290    0.9390   -4.7260 ha        1 066      0.167000
     42 H22         0.8170    5.2960   -7.6520 ha        1 066      0.190000
     43 H25         0.7530    8.0020  -12.4320 hx        1 066      0.116533
     44 H25A        1.4780    8.4450  -10.8030 hx        1 066      0.116533
     45 H25B       -0.0780    7.4700  -10.8830 hx        1 066      0.116533
     46 H24         2.7910    6.9570  -13.1430 hx        1 066      0.116533
     47 H24A        3.5420    5.6070  -12.1490 hx        1 066      0.116533
     48 H24B        3.6170    7.3440  -11.5510 hx        1 066      0.116533
     49 H20         2.0660    3.5850  -11.4570 ha        1 066      0.156000
     50 H19         1.2160    1.3700  -10.7310 ha        1 066      0.189000
     51 H18         0.1290    1.1010   -8.5080 ha        1 066      0.176000
     52 H13         2.3500    3.7020   -5.8620 ha        1 066      0.172000
     53 H12         4.3910    3.3770   -3.0830 hc        1 066      0.085033
     54 H12A        5.0330    2.1590   -4.2620 hc        1 066      0.085033
     55 H12B        4.4310    3.7660   -4.8550 hc        1 066      0.085033
     56 HN1        -0.5720   -1.8800   -2.6350 hn        1 066      0.484800
     57 H27        -1.9570   -2.2270   -0.8390 ha        1 066      0.177000
     58 H5         -1.4630    1.7550   -2.6170 ha        1 066      0.154000
     59 H4         -3.2170    2.6220   -1.0990 ha        1 066      0.186000
     60 H3         -4.3410    1.1270    0.5450 ha        1 066      0.191000
     61 H1         -5.6630   -0.7920    0.9730 h1        1 066      0.076033
     62 H1A        -5.0880   -2.0540    2.1880 h1        1 066      0.076033
     63 H1B        -4.5110   -0.3080    2.3300 h1        1 066      0.076033
     64 H43         1.6470   -2.6880    1.1020 hn        1 066      0.492133
     65 H31         1.1580    5.6730  -11.8720 hn        1 066      0.455800
     66 H121       -0.9790   -0.6900   -3.7340 hn        1 066      0.484800
@<TRIPOS>BOND
     1    1    2 2   
     2    2    3 1   
     3    2    4 1   
     4    3   38 1   
     5    3   39 1   
     6    3   64 1   
     7    4    5 ar  
     8    4   28 ar  
     9    5    6 ar  
    10    5   40 1   
    11    6    7 ar  
    12    7    8 ar  
    13    7   26 ar  
    14    8    9 ar  
    15    8   28 ar  
    16    9   10 ar  
    17    9   41 1   
    18   10   11 1   
    19   10   25 ar  
    20   11   12 2   
    21   11   13 1   
    22   11   24 2   
    23   13   14 ar  
    24   13   23 ar  
    25   14   15 ar  
    26   14   42 1   
    27   15   16 1   
    28   15   21 ar  
    29   16   17 1   
    30   16   20 2   
    31   17   18 1   
    32   17   19 1   
    33   17   65 1   
    34   18   43 1   
    35   18   44 1   
    36   18   45 1   
    37   19   46 1   
    38   19   47 1   
    39   19   48 1   
    40   21   22 ar  
    41   21   49 1   
    42   22   23 ar  
    43   22   50 1   
    44   23   51 1   
    45   25   26 ar  
    46   25   52 1   
    47   26   27 1   
    48   27   53 1   
    49   27   54 1   
    50   27   55 1   
    51   28   29 1   
    52   29   30 1   
    53   29   56 1   
    54   29   66 1   
    55   30   31 ar  
    56   30   32 ar  
    57   31   35 ar  
    58   31   57 1   
    59   32   33 ar  
    60   32   58 1   
    61   33   34 ar  
    62   33   59 1   
    63   34   35 ar  
    64   34   60 1   
    65   35   36 1   
    66   36   37 1   
    67   37   61 1   
    68   37   62 1   
    69   37   63 1   
@<TRIPOS>SUBSTRUCTURE
     1 066         1 TEMP              0 ****  ****    0 ROOT
