@<TRIPOS>MOLECULE
068
   42    43     1     0     0
SMALL
bcc


@<TRIPOS>ATOM
      1 C19         0.0060   -0.2320    0.0670 c3        1 068     -0.198100
      2 C1          1.4800    0.0360    0.0840 c         1 068      0.579700
      3 O2          2.0710    0.2510    1.1510 o         1 068     -0.548100
      4 C14         2.1850    0.0340   -1.2120 ca        1 068     -0.190600
      5 C15         3.5510    0.3510   -1.2450 ca        1 068     -0.081500
      6 C16         4.2480    0.3590   -2.4490 ca        1 068     -0.143500
      7 C13         1.5320   -0.2760   -2.4120 ca        1 068     -0.081500
      8 C12         2.2270   -0.2680   -3.6160 ca        1 068     -0.143500
      9 C11         3.5950    0.0490   -3.6510 cp        1 068      0.020000
     10 C8          4.3210    0.0540   -4.9180 cp        1 068     -0.080000
     11 C9          3.7130    0.5370   -6.0860 ca        1 068     -0.112000
     12 C10         4.4050    0.5380   -7.2920 ca        1 068     -0.135500
     13 C7          5.6370   -0.4240   -4.9870 ca        1 068     -0.112000
     14 C6          6.3250   -0.4270   -6.1960 ca        1 068     -0.135500
     15 C5          5.7180    0.0530   -7.3640 ca        1 068     -0.038300
     16 C4          6.4460    0.0390   -8.6610 c3        1 068     -0.048100
     17 C3          6.8150    1.4340   -9.1270 c3        1 068     -0.076400
     18 C2          7.5580    1.3850  -10.4630 c3        1 068      0.172100
     19 O1          8.7780    0.6930  -10.2330 oh        1 068     -0.660800
     20 C17         7.7900    2.7850  -11.0070 c3        1 068     -0.235400
     21 C18         8.3430    2.7520  -12.4410 c         1 068      0.909600
     22 O19         7.8920    3.5870  -13.2710 o         1 068     -0.846800
     23 O20         9.2360    1.8930  -12.7160 o         1 068     -0.846800
     24 H191       -0.4120   -0.1640    1.1000 hc        1 068      0.061700
     25 H192       -0.5100    0.5160   -0.5830 hc        1 068      0.061700
     26 H193       -0.1890   -1.2560   -0.3340 hc        1 068      0.061700
     27 H15         4.0660    0.5960   -0.3010 ha        1 068      0.139500
     28 H13         0.4610   -0.5300   -2.4120 ha        1 068      0.139500
     29 H16         5.3170    0.6190   -2.4620 ha        1 068      0.141500
     30 H12         1.7050   -0.5200   -4.5510 ha        1 068      0.141500
     31 H9          2.6860    0.9290   -6.0450 ha        1 068      0.126500
     32 H7          6.1260   -0.8090   -4.0790 ha        1 068      0.126500
     33 H10         3.9250    0.9270   -8.2030 ha        1 068      0.140000
     34 H6          7.3580   -0.8050   -6.2380 ha        1 068      0.140000
     35 H41C        5.8000   -0.4510   -9.4390 hc        1 068      0.060200
     36 H42C        7.3870   -0.5690   -8.5800 hc        1 068      0.060200
     37 H31C        7.4690    1.9280   -8.3630 hc        1 068      0.039200
     38 H32C        5.8910    2.0550   -9.2480 hc        1 068      0.039200
     39 H2          6.9500    0.7930  -11.2070 h1        1 068      0.024700
     40 H1          9.3290    0.8420  -11.0240 ho        1 068      0.458000
     41 H171        6.8310    3.3600  -10.9960 hc        1 068      0.035200
     42 H172        8.5320    3.3190  -10.3620 hc        1 068      0.035200
@<TRIPOS>BOND
     1    1    2 1   
     2    1   24 1   
     3    1   25 1   
     4    1   26 1   
     5    2    3 2   
     6    2    4 1   
     7    4    5 ar  
     8    4    7 ar  
     9    5    6 ar  
    10    5   27 1   
    11    6    9 ar  
    12    6   29 1   
    13    7    8 ar  
    14    7   28 1   
    15    8    9 ar  
    16    8   30 1   
    17    9   10 1   
    18   10   11 ar  
    19   10   13 ar  
    20   11   12 ar  
    21   11   31 1   
    22   12   15 ar  
    23   12   33 1   
    24   13   14 ar  
    25   13   32 1   
    26   14   15 ar  
    27   14   34 1   
    28   15   16 1   
    29   16   17 1   
    30   16   35 1   
    31   16   36 1   
    32   17   18 1   
    33   17   37 1   
    34   17   38 1   
    35   18   19 1   
    36   18   20 1   
    37   18   39 1   
    38   19   40 1   
    39   20   21 1   
    40   20   41 1   
    41   20   42 1   
    42   21   22 1   
    43   21   23 1   
@<TRIPOS>SUBSTRUCTURE
     1 068         1 TEMP              0 ****  ****    0 ROOT
