@<TRIPOS>MOLECULE
068
   42    43     1     0     0
SMALL
bcc


@<TRIPOS>ATOM
      1 C19         7.8850    1.4840   -0.4460 c3        1 068     -0.198100
      2 C1          7.2450    0.1320   -0.3730 c         1 068      0.579700
      3 O2          7.9240   -0.8970   -0.4940 o         1 068     -0.549100
      4 C14         5.7860    0.0820   -0.1560 ca        1 068     -0.190600
      5 C15         5.1410   -1.1640   -0.1470 ca        1 068     -0.081500
      6 C16         3.7670   -1.2480    0.0530 ca        1 068     -0.143000
      7 C13         5.0250    1.2410    0.0400 ca        1 068     -0.081500
      8 C12         3.6520    1.1580    0.2430 ca        1 068     -0.143000
      9 C11         3.0040   -0.0870    0.2510 cp        1 068      0.020000
     10 C8          1.5620   -0.1710    0.4620 cp        1 068     -0.081000
     11 C9          0.9280    0.6690    1.3890 ca        1 068     -0.112000
     12 C10        -0.4470    0.5890    1.5900 ca        1 068     -0.135500
     13 C7          0.7870   -1.0900   -0.2610 ca        1 068     -0.112000
     14 C6         -0.5880   -1.1640   -0.0620 ca        1 068     -0.135500
     15 C5         -1.2210   -0.3260    0.8660 ca        1 068     -0.038300
     16 C4         -2.6900   -0.4210    1.0800 c3        1 068     -0.049100
     17 C3         -3.4760    0.1160   -0.1010 c3        1 068     -0.076400
     18 C2         -4.9750   -0.1280    0.0840 c3        1 068      0.172100
     19 O1         -5.1670   -1.5360    0.0820 oh        1 068     -0.661800
     20 C17        -5.7750    0.5580   -1.0120 c3        1 068     -0.235400
     21 C18        -7.2860    0.4980   -0.7330 c         1 068      0.909600
     22 O19        -7.9770    1.5240   -0.9810 o         1 068     -0.846800
     23 O20        -7.7670   -0.5860   -0.2810 o         1 068     -0.846800
     24 H191        8.9790    1.3850   -0.6460 hc        1 068      0.061700
     25 H192        7.4200    2.0830   -1.2670 hc        1 068      0.061700
     26 H193        7.7430    2.0240    0.5220 hc        1 068      0.061700
     27 H15         5.7400   -2.0770   -0.2980 ha        1 068      0.140000
     28 H13         5.5080    2.2310    0.0350 ha        1 068      0.140000
     29 H16         3.2730   -2.2320    0.0630 ha        1 068      0.142000
     30 H12         3.0630    2.0760    0.3890 ha        1 068      0.142000
     31 H9          1.5240    1.3900    1.9680 ha        1 068      0.126500
     32 H7          1.2700   -1.7500   -0.9980 ha        1 068      0.126500
     33 H10        -0.9310    1.2520    2.3220 ha        1 068      0.140500
     34 H6         -1.1920   -1.8810   -0.6390 ha        1 068      0.140500
     35 H41C       -2.9780   -1.4970    1.2360 hc        1 068      0.060200
     36 H42C       -2.9830    0.1410    2.0060 hc        1 068      0.060200
     37 H31C       -3.3000    1.2160   -0.2130 hc        1 068      0.039200
     38 H32C       -3.1360   -0.3900   -1.0420 hc        1 068      0.039200
     39 H2         -5.2980    0.2730    1.0880 h1        1 068      0.025700
     40 H1         -6.1280   -1.6800   -0.0020 ho        1 068      0.458000
     41 H171       -5.4600    1.6270   -1.0990 hc        1 068      0.035200
     42 H172       -5.5840    0.0500   -1.9900 hc        1 068      0.035200
@<TRIPOS>BOND
     1    1    2 1   
     2    1   24 1   
     3    1   25 1   
     4    1   26 1   
     5    2    3 2   
     6    2    4 1   
     7    4    5 ar  
     8    4    7 ar  
     9    5    6 ar  
    10    5   27 1   
    11    6    9 ar  
    12    6   29 1   
    13    7    8 ar  
    14    7   28 1   
    15    8    9 ar  
    16    8   30 1   
    17    9   10 1   
    18   10   11 ar  
    19   10   13 ar  
    20   11   12 ar  
    21   11   31 1   
    22   12   15 ar  
    23   12   33 1   
    24   13   14 ar  
    25   13   32 1   
    26   14   15 ar  
    27   14   34 1   
    28   15   16 1   
    29   16   17 1   
    30   16   35 1   
    31   16   36 1   
    32   17   18 1   
    33   17   37 1   
    34   17   38 1   
    35   18   19 1   
    36   18   20 1   
    37   18   39 1   
    38   19   40 1   
    39   20   21 1   
    40   20   41 1   
    41   20   42 1   
    42   21   22 1   
    43   21   23 1   
@<TRIPOS>SUBSTRUCTURE
     1 068         1 TEMP              0 ****  ****    0 ROOT
