@<TRIPOS>MOLECULE
068
   42    37     1     0     0
SMALL
bcc


@<TRIPOS>ATOM
      1 C19        -2.8280   -0.5760    7.2280 c3        1 068     -0.266000
      2 C1         -3.5200   -0.5080    5.8860 c2        1 068      0.270000
      3 O2         -4.7330   -0.4520    5.8290 o         1 068     -0.309000
      4 C14        -2.7010   -0.5020    4.6130 c2        1 068     -0.170000
      5 C15        -2.3620    0.7020    4.0140 c2        1 068     -0.072000
      6 C16        -1.6770    0.7090    2.8080 c1        1 068     -0.143000
      7 C13        -2.3550   -1.6990    4.0050 c1        1 068     -0.091000
      8 C12        -1.6690   -1.6930    2.7990 c1        1 068     -0.128000
      9 C11        -1.3310   -0.4890    2.2010 c1        1 068     -0.030000
     10 C8         -0.6450   -0.4830    0.9890 c1        1 068     -0.030000
     11 C9         -1.3480   -0.4600   -0.2050 c1        1 068     -0.126000
     12 C10        -0.6650   -0.4660   -1.4140 c1        1 068     -0.126000
     13 C7          0.7410   -0.5110    0.9760 c1        1 068     -0.128000
     14 C6          1.4250   -0.5160   -0.2320 c1        1 068     -0.132000
     15 C5          0.7210   -0.4940   -1.4270 c1        1 068     -0.030000
     16 C4          1.4630   -0.6110   -2.7430 c3        1 068     -0.135000
     17 C3          1.8080    0.7710   -3.2520 c3        1 068     -0.155000
     18 C2          2.5160    0.6560   -4.5840 c3        1 068      0.061000
     19 O1          3.8700    0.3360   -4.3700 oh        1 068     -0.389000
     20 C17         2.4200    1.9710   -5.3200 c3        1 068     -0.263000
     21 C18         3.0710    1.8370   -6.6790 c2        1 068      0.329000
     22 O19         4.2440    2.2570   -6.8580 o         1 068     -0.581500
     23 O20         2.4510    1.2810   -7.6220 o         1 068     -0.581500
     24 H191       -2.2200   -1.3440    7.2440 hc        1 068      0.101000
     25 H192       -2.3180    0.2490    7.3760 hc        1 068      0.101000
     26 H193       -3.4990   -0.6760    7.9370 hc        1 068      0.101000
     27 H15        -2.6060    1.5470    4.4420 ha        1 068      0.151000
     28 H13        -2.5770   -2.5470    4.4360 ha        1 068      0.128000
     29 H16        -1.4380    1.5570    2.3860 ha        1 068      0.143000
     30 H12        -1.4260   -2.5350    2.3720 ha        1 068      0.133500
     31 H9         -2.3250   -0.4600   -0.1960 ha        1 068      0.130500
     32 H7          1.2360   -0.5490    1.8160 ha        1 068      0.133500
     33 H10        -1.1610   -0.4450   -2.2550 ha        1 068      0.130500
     34 H6          2.4010   -0.5100   -0.2410 ha        1 068      0.147000
     35 H41C        2.2850   -1.1240   -2.6100 hc        1 068      0.100000
     36 H42C        0.8970   -1.0660   -3.3970 hc        1 068      0.100000
     37 H31C        2.3950    1.2180   -2.6090 hc        1 068      0.078500
     38 H32C        0.9870    1.2920   -3.3620 hc        1 068      0.078500
     39 H2          2.0950   -0.0470   -5.1170 h1        1 068      0.065000
     40 H1          4.0210   -0.5030   -4.6250 ho        1 068      0.257000
     41 H171        2.8780    2.6670   -4.8060 hc        1 068      0.074500
     42 H172        1.4790    2.2150   -5.4320 hc        1 068      0.074500
@<TRIPOS>BOND
     1    1    2 1   
     2    1   24 1   
     3    1   25 1   
     4    1   26 1   
     5    2    3 1   
     6    2    4 1   
     7    4    5 1   
     8    4    7 1   
     9    5    6 1   
    10    5   27 1   
    11    6   29 1   
    12    7   28 1   
    13    8    9 1   
    14    8   30 1   
    15   10   13 1   
    16   11   12 1   
    17   11   31 1   
    18   12   33 1   
    19   13   32 1   
    20   14   15 1   
    21   14   34 1   
    22   15   16 1   
    23   16   17 1   
    24   16   35 1   
    25   16   36 1   
    26   17   18 1   
    27   17   37 1   
    28   17   38 1   
    29   18   19 1   
    30   18   20 1   
    31   18   39 1   
    32   19   40 1   
    33   20   21 1   
    34   20   41 1   
    35   20   42 1   
    36   21   22 1   
    37   21   23 1   
@<TRIPOS>SUBSTRUCTURE
     1 068         1 TEMP              0 ****  ****    0 ROOT
