@<TRIPOS>MOLECULE
068
   42    43     1     0     0
SMALL
bcc


@<TRIPOS>ATOM
      1 C19         0.0850    0.3030    0.1050 c3        1 068     -0.198100
      2 C1          1.5030   -0.1760    0.0700 c         1 068      0.579700
      3 O2          2.0580   -0.5850    1.1000 o         1 068     -0.549100
      4 C14         2.2010   -0.1380   -1.2290 ca        1 068     -0.190600
      5 C15         3.5500   -0.5180   -1.2900 ca        1 068     -0.081500
      6 C16         4.2400   -0.4920   -2.4970 ca        1 068     -0.143000
      7 C13         1.5570    0.2670   -2.4050 ca        1 068     -0.081500
      8 C12         2.2450    0.2910   -3.6140 ca        1 068     -0.143000
      9 C11         3.5950   -0.0880   -3.6760 cp        1 068      0.020000
     10 C8          4.3140   -0.0600   -4.9460 cp        1 068     -0.081000
     11 C9          3.6820   -0.4620   -6.1310 ca        1 068     -0.112000
     12 C10         4.3690   -0.4350   -7.3420 ca        1 068     -0.135500
     13 C7          5.6480    0.3720   -5.0010 ca        1 068     -0.112000
     14 C6          6.3300    0.4040   -6.2130 ca        1 068     -0.135500
     15 C5          5.6990   -0.0010   -7.3980 ca        1 068     -0.038300
     16 C4          6.4400    0.0250   -8.6880 c3        1 068     -0.049100
     17 C3          6.6890    1.4400   -9.1770 c3        1 068     -0.076400
     18 C2          7.5750    1.4380  -10.4230 c3        1 068      0.172100
     19 O1          8.8410    0.9260  -10.0280 oh        1 068     -0.661800
     20 C17         7.6850    2.8360  -11.0110 c3        1 068     -0.234400
     21 C18         8.4010    2.8240  -12.3720 c         1 068      0.909600
     22 O19         7.9520    3.5680  -13.2860 o         1 068     -0.846800
     23 O20         9.4180    2.0770  -12.5050 o         1 068     -0.846800
     24 H191        0.0300    1.3590   -0.2550 hc        1 068      0.061700
     25 H192       -0.5490   -0.3380   -0.5540 hc        1 068      0.061700
     26 H193       -0.3160    0.2560    1.1470 hc        1 068      0.061700
     27 H15         4.0560   -0.8400   -0.3650 ha        1 068      0.140000
     28 H13         0.5000    0.5720   -2.3840 ha        1 068      0.140000
     29 H16         5.2970   -0.7970   -2.5320 ha        1 068      0.142000
     30 H12         1.7310    0.6180   -4.5300 ha        1 068      0.142000
     31 H9          2.6390   -0.8090   -6.1030 ha        1 068      0.126500
     32 H7          6.1540    0.6990   -4.0810 ha        1 068      0.126500
     33 H10         3.8620   -0.7550   -8.2640 ha        1 068      0.140500
     34 H6          7.3740    0.7520   -6.2530 ha        1 068      0.140500
     35 H41C        7.4350   -0.4840   -8.5590 hc        1 068      0.060200
     36 H42C        5.8720   -0.5440   -9.4710 hc        1 068      0.060200
     37 H31C        7.1900    2.0340   -8.3710 hc        1 068      0.039200
     38 H32C        5.7170    1.9380   -9.4250 hc        1 068      0.039200
     39 H2          7.1370    0.7420  -11.1950 h1        1 068      0.025700
     40 H1          9.4530    1.1130  -10.7630 ho        1 068      0.458000
     41 H171        8.2710    3.4900  -10.3190 hc        1 068      0.035200
     42 H172        6.6650    3.2750  -11.1370 hc        1 068      0.035200
@<TRIPOS>BOND
     1    1    2 1   
     2    1   24 1   
     3    1   25 1   
     4    1   26 1   
     5    2    3 2   
     6    2    4 1   
     7    4    5 ar  
     8    4    7 ar  
     9    5    6 ar  
    10    5   27 1   
    11    6    9 ar  
    12    6   29 1   
    13    7    8 ar  
    14    7   28 1   
    15    8    9 ar  
    16    8   30 1   
    17    9   10 1   
    18   10   11 ar  
    19   10   13 ar  
    20   11   12 ar  
    21   11   31 1   
    22   12   15 ar  
    23   12   33 1   
    24   13   14 ar  
    25   13   32 1   
    26   14   15 ar  
    27   14   34 1   
    28   15   16 1   
    29   16   17 1   
    30   16   35 1   
    31   16   36 1   
    32   17   18 1   
    33   17   37 1   
    34   17   38 1   
    35   18   19 1   
    36   18   20 1   
    37   18   39 1   
    38   19   40 1   
    39   20   21 1   
    40   20   41 1   
    41   20   42 1   
    42   21   22 1   
    43   21   23 1   
@<TRIPOS>SUBSTRUCTURE
     1 068         1 TEMP              0 ****  ****    0 ROOT
