@<TRIPOS>MOLECULE
068
   42    43     1     0     0
SMALL
bcc


@<TRIPOS>ATOM
      1 C19         0.1070    0.3510    0.1250 c3        1 068     -0.198100
      2 C1          1.5090   -0.1710    0.0740 c         1 068      0.579700
      3 O2          2.0570   -0.6140    1.0940 o         1 068     -0.549100
      4 C14         2.2020   -0.1340   -1.2280 ca        1 068     -0.190600
      5 C15         3.5370   -0.5560   -1.3020 ca        1 068     -0.081500
      6 C16         4.2210   -0.5320   -2.5130 ca        1 068     -0.143000
      7 C13         1.5650    0.3120   -2.3930 ca        1 068     -0.081500
      8 C12         2.2470    0.3340   -3.6050 ca        1 068     -0.143000
      9 C11         3.5840   -0.0870   -3.6820 cp        1 068      0.020000
     10 C8          4.2970   -0.0610   -4.9550 cp        1 068     -0.081000
     11 C9          3.6460   -0.4210   -6.1430 ca        1 068     -0.112000
     12 C10         4.3270   -0.3960   -7.3570 ca        1 068     -0.136000
     13 C7          5.6440    0.3280   -5.0110 ca        1 068     -0.112000
     14 C6          6.3200    0.3580   -6.2260 ca        1 068     -0.136000
     15 C5          5.6700   -0.0050   -7.4140 ca        1 068     -0.038300
     16 C4          6.4050    0.0190   -8.7070 c3        1 068     -0.049100
     17 C3          6.6990    1.4320   -9.1730 c3        1 068     -0.076400
     18 C2          7.5780    1.4230  -10.4240 c3        1 068      0.172100
     19 O1          8.8280    0.8610  -10.0460 oh        1 068     -0.661800
     20 C17         7.7330    2.8260  -10.9890 c3        1 068     -0.234400
     21 C18         8.4400    2.8140  -12.3540 c         1 068      0.909600
     22 O19         8.0110    3.5890  -13.2520 o         1 068     -0.846800
     23 O20         9.4300    2.0350  -12.5060 o         1 068     -0.846800
     24 H191       -0.2900    0.2980    1.1680 hc        1 068      0.061700
     25 H192        0.0830    1.4150   -0.2160 hc        1 068      0.061700
     26 H193       -0.5500   -0.2590   -0.5420 hc        1 068      0.061700
     27 H15         4.0370   -0.9100   -0.3860 ha        1 068      0.140000
     28 H13         0.5180    0.6510   -2.3610 ha        1 068      0.140000
     29 H16         5.2680   -0.8710   -2.5590 ha        1 068      0.142000
     30 H12         1.7390    0.6930   -4.5130 ha        1 068      0.142000
     31 H9          2.5920   -0.7350   -6.1140 ha        1 068      0.126500
     32 H7          6.1650    0.6230   -4.0870 ha        1 068      0.126500
     33 H10         3.8050   -0.6840   -8.2820 ha        1 068      0.140500
     34 H6          7.3750    0.6720   -6.2650 ha        1 068      0.140500
     35 H41C        7.3830   -0.5260   -8.5930 hc        1 068      0.060200
     36 H42C        5.8150   -0.5170   -9.4970 hc        1 068      0.060200
     37 H31C        7.2250    1.9960   -8.3590 hc        1 068      0.039200
     38 H32C        5.7440    1.9670   -9.4060 hc        1 068      0.039200
     39 H2          7.1120    0.7560  -11.2050 h1        1 068      0.025700
     40 H1          9.4420    1.0400  -10.7820 ho        1 068      0.458000
     41 H171        8.3450    3.4470  -10.2880 hc        1 068      0.035200
     42 H172        6.7280    3.3020  -11.1000 hc        1 068      0.035200
@<TRIPOS>BOND
     1    1    2 1   
     2    1   24 1   
     3    1   25 1   
     4    1   26 1   
     5    2    3 2   
     6    2    4 1   
     7    4    5 ar  
     8    4    7 ar  
     9    5    6 ar  
    10    5   27 1   
    11    6    9 ar  
    12    6   29 1   
    13    7    8 ar  
    14    7   28 1   
    15    8    9 ar  
    16    8   30 1   
    17    9   10 1   
    18   10   11 ar  
    19   10   13 ar  
    20   11   12 ar  
    21   11   31 1   
    22   12   15 ar  
    23   12   33 1   
    24   13   14 ar  
    25   13   32 1   
    26   14   15 ar  
    27   14   34 1   
    28   15   16 1   
    29   16   17 1   
    30   16   35 1   
    31   16   36 1   
    32   17   18 1   
    33   17   37 1   
    34   17   38 1   
    35   18   19 1   
    36   18   20 1   
    37   18   39 1   
    38   19   40 1   
    39   20   21 1   
    40   20   41 1   
    41   20   42 1   
    42   21   22 1   
    43   21   23 1   
@<TRIPOS>SUBSTRUCTURE
     1 068         1 TEMP              0 ****  ****    0 ROOT
