@<TRIPOS>MOLECULE
069
   18    15     1     0     0
SMALL
bcc


@<TRIPOS>ATOM
      1 C3         -1.7210    0.0910   -1.4010 c1        1 069      0.073000
      2 O3         -2.3740    0.1560   -2.6500 o         1 069     -0.248000
      3 C2         -0.3340    0.0470   -1.3440 c1        1 069     -0.164000
      4 C1          0.3110    0.0240   -0.1130 c1        1 069     -0.094000
      5 C           1.8400    0.0050   -0.0510 c2        1 069      0.275000
      6 O           2.4920    0.0100   -1.0840 o         1 069     -0.318000
      7 N           2.5080    0.0480    1.2170 n         1 069     -0.188000
      8 C6         -0.4300    0.0440    1.0600 c1        1 069     -0.130000
      9 C5         -1.8180    0.0880    1.0030 c1        1 069     -0.108000
     10 C4         -2.4630    0.1120   -0.2280 c2        1 069     -0.130000
     11 O2          3.8830    0.0200    1.2710 oh        1 069     -0.242000
     12 H3         -2.4960   -0.6680   -2.9640 ho        1 069      0.224000
     13 H2          0.1880    0.0650   -2.1680 ha        1 069      0.158000
     14 H4         -3.4310    0.1420   -0.2680 ha        1 069      0.156000
     15 H6          0.0240    0.0280    1.9280 ha        1 069      0.146000
     16 H           2.0200    0.1450    1.9890 hn        1 069      0.213000
     17 HA          4.1430   -0.4630    1.9740 ho        1 069      0.235000
     18 H5         -2.3410    0.1030    1.8290 ha        1 069      0.142000
@<TRIPOS>BOND
     1    1    3 1   
     2    1   10 1   
     3    2   12 1   
     4    3   13 1   
     5    4    5 1   
     6    4    8 1   
     7    5    6 1   
     8    5    7 1   
     9    7   11 1   
    10    7   16 1   
    11    8   15 1   
    12    9   10 1   
    13    9   18 1   
    14   10   14 1   
    15   11   17 1   
@<TRIPOS>SUBSTRUCTURE
     1 069         1 TEMP              0 ****  ****    0 ROOT
