@<TRIPOS>MOLECULE
069
   18    18     1     0     0
SMALL
bcc


@<TRIPOS>ATOM
      1 C3         -2.2280    0.3420   -0.0470 ca        1 069      0.118100
      2 O3         -3.2630    1.2450    0.0130 oh        1 069     -0.494100
      3 C2         -0.8870    0.7340   -0.1360 ca        1 069     -0.164000
      4 C1          0.1090   -0.2480   -0.1840 ca        1 069     -0.114600
      5 C           1.5190    0.2120   -0.2760 c         1 069      0.601700
      6 O           1.8430    1.2670   -0.8470 o         1 069     -0.557100
      7 N           2.5350   -0.6660    0.2250 n         1 069     -0.347400
      8 C6         -0.2330   -1.6020   -0.1590 ca        1 069     -0.130000
      9 C5         -1.5760   -1.9770   -0.0740 ca        1 069     -0.108000
     10 C4         -2.5820   -1.0190   -0.0120 ca        1 069     -0.130000
     11 O2          3.7030   -0.0700    0.4780 oh        1 069     -0.437100
     12 H3         -2.8880    2.1360   -0.0550 ho        1 069      0.425000
     13 H2         -0.6090    1.7980   -0.1820 ha        1 069      0.158000
     14 H4         -3.6420   -1.3020    0.0580 ha        1 069      0.156000
     15 H6          0.5390   -2.3830   -0.2240 ha        1 069      0.146000
     16 H           2.2470   -1.1460    1.0710 hn        1 069      0.299500
     17 HA          4.0880    0.1460   -0.3950 ho        1 069      0.436000
     18 H5         -1.8420   -3.0450   -0.0580 ha        1 069      0.142000
@<TRIPOS>BOND
     1    1    2 1   
     2    1    3 ar  
     3    1   10 ar  
     4    2   12 1   
     5    3    4 ar  
     6    3   13 1   
     7    4    5 1   
     8    4    8 ar  
     9    5    6 2   
    10    5    7 1   
    11    7   11 1   
    12    7   16 1   
    13    8    9 ar  
    14    8   15 1   
    15    9   10 ar  
    16    9   18 1   
    17   10   14 1   
    18   11   17 1   
@<TRIPOS>SUBSTRUCTURE
     1 069         1 TEMP              0 ****  ****    0 ROOT
