@<TRIPOS>MOLECULE
069
   19    19     1     0     0
SMALL
bcc


@<TRIPOS>ATOM
      1 C3          0.2140   -0.3460   -0.0290 ca        1 069      0.149100
      2 O3         -0.2260   -0.6930   -1.2760 oh        1 069     -0.467100
      3 C2          1.5690    0.0290    0.0560 ca        1 069     -0.083000
      4 C1          2.0840    0.3850    1.3070 ca        1 069     -0.158600
      5 C           3.4810    0.7990    1.3610 c         1 069      0.622700
      6 O           4.1490    1.5720    0.7120 o         1 069     -0.360100
      7 N           4.3050    0.0900    2.5130 n4        1 069     -0.484300
      8 C6          1.2760    0.3830    2.4540 ca        1 069     -0.142000
      9 C5         -0.0640    0.0190    2.3450 ca        1 069     -0.071000
     10 C4         -0.6020   -0.3520    1.1130 ca        1 069     -0.148000
     11 O2          4.8620   -1.0100    1.9600 oh        1 069     -0.346300
     12 H3         -1.1730   -0.9050   -1.2270 ho        1 069      0.448000
     13 H2          2.1890    0.0380   -0.8560 ha        1 069      0.186000
     14 H4         -1.6630   -0.6420    1.0360 ha        1 069      0.170000
     15 H6          1.6650    0.7080    3.4310 ha        1 069      0.135000
     16 H           5.0320    0.7400    2.8570 hn        1 069      0.456300
     17 HA          5.4680   -1.4290    2.6130 ho        1 069      0.469000
     18 H5         -0.7080    0.0280    3.2400 ha        1 069      0.170000
     19 HN3         3.6670   -0.1740    3.2820 hn        1 069      0.456300
@<TRIPOS>BOND
     1    1    2 1   
     2    1    3 ar  
     3    1   10 ar  
     4    2   12 1   
     5    3    4 ar  
     6    3   13 1   
     7    4    5 1   
     8    4    8 ar  
     9    5    6 2   
    10    5    7 1   
    11    7   11 1   
    12    7   16 1   
    13    7   19 1   
    14    8    9 ar  
    15    8   15 1   
    16    9   10 ar  
    17    9   18 1   
    18   10   14 1   
    19   11   17 1   
@<TRIPOS>SUBSTRUCTURE
     1 069         1 TEMP              0 ****  ****    0 ROOT
