@<TRIPOS>MOLECULE
069
   19    19     1     0     0
SMALL
bcc


@<TRIPOS>ATOM
      1 C3          0.2000    0.1290   -0.0350 ca        1 069      0.149100
      2 O3         -0.2620    0.4400   -1.2840 oh        1 069     -0.467100
      3 C2          1.5810   -0.1330    0.0550 ca        1 069     -0.083000
      4 C1          2.1190   -0.4460    1.3080 ca        1 069     -0.158600
      5 C           3.5450   -0.7430    1.3680 c         1 069      0.622700
      6 O           4.2770   -1.4580    0.7210 o         1 069     -0.360100
      7 N           4.3030    0.0320    2.5230 n4        1 069     -0.484300
      8 C6          1.3090   -0.5120    2.4520 ca        1 069     -0.142000
      9 C5         -0.0560   -0.2590    2.3370 ca        1 069     -0.071000
     10 C4         -0.6190    0.0670    1.1030 ca        1 069     -0.148000
     11 O2          4.7730    1.1720    1.9700 oh        1 069     -0.346300
     12 H3         -1.2240    0.5720   -1.2390 ho        1 069      0.448000
     13 H2          2.2030   -0.0900   -0.8540 ha        1 069      0.186000
     14 H4         -1.6990    0.2680    1.0220 ha        1 069      0.170000
     15 H6          1.7190   -0.8030    3.4300 ha        1 069      0.135000
     16 H           3.6410    0.2450    3.2870 hn        1 069      0.456300
     17 HA          5.3400    1.6400    2.6260 ho        1 069      0.469000
     18 H5         -0.7010   -0.3230    3.2300 ha        1 069      0.170000
     19 HN3         5.0780   -0.5570    2.8730 hn        1 069      0.456300
@<TRIPOS>BOND
     1    1    2 1   
     2    1    3 ar  
     3    1   10 ar  
     4    2   12 1   
     5    3    4 ar  
     6    3   13 1   
     7    4    5 1   
     8    4    8 ar  
     9    5    6 2   
    10    5    7 1   
    11    7   11 1   
    12    7   16 1   
    13    7   19 1   
    14    8    9 ar  
    15    8   15 1   
    16    9   10 ar  
    17    9   18 1   
    18   10   14 1   
    19   11   17 1   
@<TRIPOS>SUBSTRUCTURE
     1 069         1 TEMP              0 ****  ****    0 ROOT
