@<TRIPOS>MOLECULE
06B
   22    22     1     0     0
SMALL
bcc


@<TRIPOS>ATOM
      1 BR         -0.1380   -0.1500   -0.5640 br        1 06B     -0.138100
      2 C10         1.7290   -0.1160   -0.3130 ca        1 06B     -0.092900
      3 C12         2.3570   -0.3890    0.9300 ca        1 06B      0.199100
      4 O13         1.4770   -0.6980    1.9430 os        1 06B     -0.339900
      5 C14         1.9880   -0.9020    3.2580 c3        1 06B      0.096700
      6 C4          3.7560   -0.3480    1.0490 ca        1 06B     -0.189600
      7 C2          4.5260   -0.6460    2.3380 c         1 06B      0.929200
      8 O3          4.7610    0.3190    3.1160 o         1 06B     -0.818300
      9 O1          4.8720   -1.8410    2.5450 o         1 06B     -0.818300
     10 C9          2.5090    0.1930   -1.4250 ca        1 06B     -0.080000
     11 C8          3.8940    0.2440   -1.3330 ca        1 06B     -0.259000
     12 C5          4.5040   -0.0220   -0.0990 ca        1 06B      0.169100
     13 O6          5.8750    0.0440    0.0820 os        1 06B     -0.288900
     14 C7          6.6590    0.0710   -1.1000 c3        1 06B      0.116700
     15 H1          2.6480   -1.8050    3.2860 h1        1 06B      0.061367
     16 H2          1.0570   -1.0670    3.8590 h1        1 06B      0.061367
     17 H3          2.5420    0.0020    3.6140 h1        1 06B      0.061367
     18 H5          2.0290    0.4030   -2.3940 ha        1 06B      0.121000
     19 H6          4.4860    0.4950   -2.2210 ha        1 06B      0.120000
     20 H7          6.3960   -0.7740   -1.7820 h1        1 06B      0.029367
     21 H8          6.5390    1.0470   -1.6310 h1        1 06B      0.029367
     22 H9          7.7070   -0.0400   -0.7220 h1        1 06B      0.029367
@<TRIPOS>BOND
     1    1    2 1   
     2    2    3 ar  
     3    2   10 ar  
     4    3    4 1   
     5    3    6 ar  
     6    4    5 1   
     7    5   15 1   
     8    5   16 1   
     9    5   17 1   
    10    6    7 1   
    11    6   12 ar  
    12    7    8 1   
    13    7    9 1   
    14   10   11 ar  
    15   10   18 1   
    16   11   12 ar  
    17   11   19 1   
    18   12   13 1   
    19   13   14 1   
    20   14   20 1   
    21   14   21 1   
    22   14   22 1   
@<TRIPOS>SUBSTRUCTURE
     1 06B         1 TEMP              0 ****  ****    0 ROOT
