@<TRIPOS>MOLECULE
06B
   22    22     1     0     0
SMALL
bcc


@<TRIPOS>ATOM
      1 BR         -2.9840    0.3840    0.1570 br        1 06B     -0.136100
      2 C10        -1.1550    0.7400   -0.1190 ca        1 06B     -0.054900
      3 C12        -0.1530   -0.2400    0.0110 ca        1 06B      0.148100
      4 O13        -0.5190   -1.4990    0.4690 os        1 06B     -0.338900
      5 C14        -0.5310   -2.5060   -0.5450 c3        1 06B      0.101700
      6 C4          1.2030    0.0670   -0.2160 ca        1 06B     -0.136600
      7 C2          2.2800   -1.0140   -0.0980 c         1 06B      0.928200
      8 O3          2.9460   -1.0640    0.9710 o         1 06B     -0.815300
      9 O1          2.4380   -1.7870   -1.0810 o         1 06B     -0.815300
     10 C9         -0.7990    2.0480   -0.4640 ca        1 06B     -0.122000
     11 C8          0.5310    2.3760   -0.6810 ca        1 06B     -0.172000
     12 C5          1.5240    1.3880   -0.5600 ca        1 06B      0.129100
     13 O6          2.8090    1.7870   -0.9100 os        1 06B     -0.351900
     14 C7          3.7280    1.8380    0.1800 c3        1 06B      0.101700
     15 H1         -0.6970   -3.4500    0.0300 h1        1 06B      0.047700
     16 H2         -1.3810   -2.3200   -1.2470 h1        1 06B      0.047700
     17 H3          0.4450   -2.5340   -1.0920 h1        1 06B      0.047700
     18 H5         -1.5720    2.8240   -0.5640 ha        1 06B      0.123000
     19 H6          0.8180    3.3990   -0.9610 ha        1 06B      0.128000
     20 H7          3.4900    2.7220    0.8220 h1        1 06B      0.046367
     21 H8          3.7050    0.8920    0.7790 h1        1 06B      0.046367
     22 H9          4.7200    1.9730   -0.3170 h1        1 06B      0.046367
@<TRIPOS>BOND
     1    1    2 1   
     2    2    3 ar  
     3    2   10 ar  
     4    3    4 1   
     5    3    6 ar  
     6    4    5 1   
     7    5   15 1   
     8    5   16 1   
     9    5   17 1   
    10    6    7 1   
    11    6   12 ar  
    12    7    8 1   
    13    7    9 1   
    14   10   11 ar  
    15   10   18 1   
    16   11   12 ar  
    17   11   19 1   
    18   12   13 1   
    19   13   14 1   
    20   14   20 1   
    21   14   21 1   
    22   14   22 1   
@<TRIPOS>SUBSTRUCTURE
     1 06B         1 TEMP              0 ****  ****    0 ROOT
