@<TRIPOS>MOLECULE
06B
   22    17     1     0     0
SMALL
bcc


@<TRIPOS>ATOM
      1 BR         -3.7050   -0.0290   -0.7470 br        1 06B      0.004000
      2 C10        -1.7930   -0.0070   -0.7460 c1        1 06B     -0.195000
      3 C12        -1.0890    0.0070    0.4630 c1        1 06B      0.103000
      4 O13        -1.7880   -0.0730    1.6910 o         1 06B     -0.222000
      5 C14        -2.4520    1.1460    2.0700 c3        1 06B     -0.088000
      6 C4          0.3060   -0.0040    0.4520 c1        1 06B     -0.116000
      7 C2          1.1100    0.0640    1.8050 c1        1 06B      0.377000
      8 O3          1.7270    1.1440    2.1300 os        1 06B     -0.550000
      9 O1          1.0710   -0.9370    2.6370 o         1 06B     -0.550000
     10 C9         -1.1120   -0.0330   -1.9400 c1        1 06B     -0.122000
     11 C8          0.2650   -0.0440   -1.9520 c1        1 06B     -0.172000
     12 C5          0.9800   -0.0300   -0.7420 c2        1 06B      0.084000
     13 O6          2.4450    0.0390   -0.7580 os        1 06B     -0.235000
     14 C7          3.0690   -1.1320   -1.2480 c3        1 06B     -0.088000
     15 H1         -2.0740    1.9030    1.5600 h1        1 06B      0.087000
     16 H2         -2.3180    1.3060    3.0590 h1        1 06B      0.087000
     17 H3         -3.3790    1.0730    1.8850 h1        1 06B      0.087000
     18 H5         -1.6210   -0.0430   -2.8080 ha        1 06B      0.123000
     19 H6          0.7310   -0.0930   -2.7770 ha        1 06B      0.128000
     20 H7          2.5980   -1.4410   -2.0490 h1        1 06B      0.085667
     21 H8          3.9960   -0.9420   -1.4710 h1        1 06B      0.085667
     22 H9          3.0330   -1.8740   -0.5170 h1        1 06B      0.085667
@<TRIPOS>BOND
     1    1    2 1   
     2    2   10 1   
     3    3    6 1   
     4    4    5 1   
     5    5   15 1   
     6    5   16 1   
     7    5   17 1   
     8    6   12 1   
     9    7    9 1   
    10   10   18 1   
    11   11   12 1   
    12   11   19 1   
    13   12   13 1   
    14   13   14 1   
    15   14   20 1   
    16   14   21 1   
    17   14   22 1   
@<TRIPOS>SUBSTRUCTURE
     1 06B         1 TEMP              0 ****  ****    0 ROOT
