@<TRIPOS>MOLECULE
06B
   22    22     1     0     0
SMALL
bcc


@<TRIPOS>ATOM
      1 BR         -0.1390    0.0160   -0.5300 br        1 06B     -0.138100
      2 C10         1.7290   -0.0880   -0.3070 ca        1 06B     -0.093900
      3 C12         2.3560   -0.3280    0.9430 ca        1 06B      0.199100
      4 O13         1.4740   -0.4670    1.9920 os        1 06B     -0.339900
      5 C14         1.9870   -0.7950    3.2800 c3        1 06B      0.096700
      6 C4          3.7560   -0.3920    1.0400 ca        1 06B     -0.189600
      7 C2          4.5250   -0.6280    2.3430 c         1 06B      0.929200
      8 O3          4.8530    0.3880    3.0150 o         1 06B     -0.818300
      9 O1          4.7780   -1.8200    2.6670 o         1 06B     -0.818300
     10 C9          2.5100    0.0880   -1.4470 ca        1 06B     -0.080000
     11 C8          3.8960    0.0240   -1.3780 ca        1 06B     -0.260000
     12 C5          4.5060   -0.2180   -0.1400 ca        1 06B      0.170100
     13 O6          5.8780   -0.3270    0.0070 os        1 06B     -0.288900
     14 C7          6.6590    0.1100   -1.0940 c3        1 06B      0.116700
     15 H1          2.5560   -1.7570    3.2490 h1        1 06B      0.061367
     16 H2          2.6320    0.0320    3.6680 h1        1 06B      0.061367
     17 H3          1.0550   -0.8980    3.8940 h1        1 06B      0.061367
     18 H5          2.0310    0.2770   -2.4200 ha        1 06B      0.121000
     19 H6          4.4890    0.1610   -2.2900 ha        1 06B      0.120000
     20 H7          6.3920    1.1520   -1.3940 h1        1 06B      0.029033
     21 H8          6.5420   -0.5840   -1.9620 h1        1 06B      0.029033
     22 H9          7.7070    0.0710   -0.7020 h1        1 06B      0.029033
@<TRIPOS>BOND
     1    1    2 1   
     2    2    3 ar  
     3    2   10 ar  
     4    3    4 1   
     5    3    6 ar  
     6    4    5 1   
     7    5   15 1   
     8    5   16 1   
     9    5   17 1   
    10    6    7 1   
    11    6   12 ar  
    12    7    8 1   
    13    7    9 1   
    14   10   11 ar  
    15   10   18 1   
    16   11   12 ar  
    17   11   19 1   
    18   12   13 1   
    19   13   14 1   
    20   14   20 1   
    21   14   21 1   
    22   14   22 1   
@<TRIPOS>SUBSTRUCTURE
     1 06B         1 TEMP              0 ****  ****    0 ROOT
