@<TRIPOS>MOLECULE
06B
   22    22     1     0     0
SMALL
bcc


@<TRIPOS>ATOM
      1 Br         -0.1430    0.0170   -0.5160 br        1 06B     -0.138100
      2 C10         1.7260   -0.0870   -0.3000 ca        1 06B     -0.093900
      3 C12         2.3580   -0.3320    0.9470 ca        1 06B      0.199100
      4 O13         1.4790   -0.4730    1.9980 os        1 06B     -0.339900
      5 C14         1.9960   -0.8080    3.2840 c3        1 06B      0.096700
      6 C4          3.7570   -0.3950    1.0390 ca        1 06B     -0.189600
      7 C2          4.5310   -0.6340    2.3390 c         1 06B      0.929200
      8 O3          4.8610    0.3800    3.0120 o         1 06B     -0.818300
      9 O1          4.7850   -1.8270    2.6590 o         1 06B     -0.818300
     10 C9          2.5030    0.0920   -1.4420 ca        1 06B     -0.080000
     11 C8          3.8890    0.0290   -1.3780 ca        1 06B     -0.260000
     12 C5          4.5040   -0.2170   -0.1430 ca        1 06B      0.170100
     13 O6          5.8760   -0.3280   -0.0020 os        1 06B     -0.288900
     14 C7          6.6530    0.1250   -1.0990 c3        1 06B      0.116700
     15 H1          2.5650   -1.7700    3.2450 h1        1 06B      0.061367
     16 H2          1.0670   -0.9140    3.9000 h1        1 06B      0.061367
     17 H3          2.6420    0.0170    3.6740 h1        1 06B      0.061367
     18 H5          2.0210    0.2850   -2.4130 ha        1 06B      0.121000
     19 H6          4.4800    0.1690   -2.2920 ha        1 06B      0.120000
     20 H7          6.5380   -0.5620   -1.9750 h1        1 06B      0.029033
     21 H8          6.3800    1.1680   -1.3890 h1        1 06B      0.029033
     22 H9          7.7020    0.0870   -0.7100 h1        1 06B      0.029033
@<TRIPOS>BOND
     1    1    2 1   
     2    2    3 ar  
     3    2   10 ar  
     4    3    4 1   
     5    3    6 ar  
     6    4    5 1   
     7    5   15 1   
     8    5   16 1   
     9    5   17 1   
    10    6    7 1   
    11    6   12 ar  
    12    7    8 1   
    13    7    9 1   
    14   10   11 ar  
    15   10   18 1   
    16   11   12 ar  
    17   11   19 1   
    18   12   13 1   
    19   13   14 1   
    20   14   20 1   
    21   14   21 1   
    22   14   22 1   
@<TRIPOS>SUBSTRUCTURE
     1 06B         1 TEMP              0 ****  ****    0 ROOT
