@<TRIPOS>MOLECULE
06C
    5     4     1     0     0
SMALL
bcc


@<TRIPOS>ATOM
      1 C1         -1.9030   -0.0000    0.0000 c3        1 06C      0.035800
      2 H          -2.2670   -1.0470    0.0220 h1        1 06C      0.068700
      3 HA         -2.2670    0.5050   -0.9170 h1        1 06C      0.068700
      4 HB         -2.2670    0.5420    0.8960 h1        1 06C      0.068700
      5 I1          0.1470    0.0000   -0.0000 i         1 06C     -0.242900
@<TRIPOS>BOND
     1    1    2 1   
     2    1    3 1   
     3    1    4 1   
     4    1    5 1   
@<TRIPOS>SUBSTRUCTURE
     1 06C         1 TEMP              0 ****  ****    0 ROOT
