@<TRIPOS>MOLECULE
06C
    5     4     1     0     0
SMALL
bcc


@<TRIPOS>ATOM
      1 C1         -0.2260    0.0000   -0.0000 c3        1 06C      0.035800
      2 H          -0.5520    0.0000    0.9200 h1        1 06C      0.068700
      3 HA         -0.5520   -0.7970   -0.4600 h1        1 06C      0.068700
      4 HB         -0.5520    0.7970   -0.4600 h1        1 06C      0.068700
      5 I1          1.8810    0.0000   -0.0000 i         1 06C     -0.242900
@<TRIPOS>BOND
     1    1    2 1   
     2    1    3 1   
     3    1    4 1   
     4    1    5 1   
@<TRIPOS>SUBSTRUCTURE
     1 06C         1 TEMP              0 ****  ****    0 ROOT
