@<TRIPOS>MOLECULE
06F
   74    78     1     0     0
SMALL
bcc


@<TRIPOS>ATOM
      1 CAA         7.9920    4.1080   -1.6920 c3        1 06F     -0.056800
      2 CAB         4.9970   -4.8060   -1.3940 c3        1 06F     -0.086433
      3 CAC         3.9700   -4.9700    0.8620 c3        1 06F     -0.086433
      4 CAD         6.4210   -4.6400    0.6400 c3        1 06F     -0.086433
      5 OAF         1.2860   -0.7290    0.9200 o         1 06F     -0.593100
      6 CAG        -1.8460    3.0090    2.5610 ca        1 06F     -0.085000
      7 CAH        -0.5040    2.8340    2.2480 ca        1 06F     -0.201000
      8 CAI        -2.8110    2.0970    2.1500 ca        1 06F     -0.174000
      9 CAJ         7.9280    1.7980   -0.7370 ca        1 06F     -0.123000
     10 CAK         5.9040    2.7340   -1.6540 ca        1 06F     -0.123000
     11 CAL        -5.0030    1.5690    0.0670 ca        1 06F     -0.195000
     12 CAM         7.2540    0.6230   -0.4210 ca        1 06F     -0.129000
     13 CAN         5.2140    1.5640   -1.3540 ca        1 06F     -0.129000
     14 CAO        -6.2580    1.7790   -0.4880 ca        1 06F     -0.058000
     15 CAP        -1.0720    0.7920    1.0500 ca        1 06F     -0.187000
     16 CAQ        -5.4720   -0.8130    0.1450 ca        1 06F     -0.190000
     17 CAR         3.7930   -2.1030    0.7250 cc        1 06F     -0.266300
     18 CAS        -9.9610   -0.8830   -0.5600 c3        1 06F     -0.069400
     19 CAT        -8.9030   -1.7750    0.0520 c3        1 06F     -0.077400
     20 CAU        -9.6530    0.5910   -0.4180 c3        1 06F     -0.176400
     21 CAV        -7.5990   -1.7660   -0.7210 c3        1 06F     -0.045100
     22 NAW         5.6910   -1.9290   -0.5770 nd        1 06F     -0.498800
     23 NAX         1.2560    1.5970    1.1200 n         1 06F     -0.460100
     24 NAZ        -3.3660   -0.0180    1.0330 nh        1 06F     -0.631000
     25 CBA        -8.4790    1.0120   -1.2630 c         1 06F      0.587700
     26 CBB         1.9070    0.3530    0.9690 c         1 06F      0.766100
     27 CBC         7.2630    2.8660   -1.3500 ca        1 06F     -0.073300
     28 CBD        -0.1020    1.7120    1.4850 ca        1 06F      0.084600
     29 CBE        -2.4320    0.9730    1.3860 ca        1 06F      0.165600
     30 CBF        -4.5910    0.2640    0.4150 ca        1 06F      0.178600
     31 CBG         5.8830    0.4970   -0.7190 ca        1 06F      0.005800
     32 CBH        -6.7320   -0.5930   -0.4100 ca        1 06F     -0.006300
     33 CBI         4.0190   -0.7430    0.4460 cd        1 06F      0.017300
     34 CBJ         4.8670   -2.8090    0.0550 cc        1 06F      0.333600
     35 CBK        -7.1390    0.7160   -0.7110 ca        1 06F     -0.197600
     36 NBL         5.1690   -0.6980   -0.4130 na        1 06F      0.129300
     37 HAA         8.4530    4.0110   -2.7080 hc        1 06F      0.048367
     38 HAAA        7.3040    4.9890   -1.7030 hc        1 06F      0.048367
     39 HAAB        8.8100    4.3070   -0.9560 hc        1 06F      0.048367
     40 HAB         4.0190   -4.5330   -1.8580 hc        1 06F      0.039922
     41 HABA        5.8200   -4.3650   -2.0050 hc        1 06F      0.039922
     42 HABB        5.1000   -5.9180   -1.4030 hc        1 06F      0.039922
     43 HAC         4.1230   -6.0760    0.8530 hc        1 06F      0.039922
     44 HACA        3.9990   -4.6130    1.9190 hc        1 06F      0.039922
     45 HACB        2.9640   -4.7440    0.4330 hc        1 06F      0.039922
     46 HAD         7.2440   -4.2040    0.0250 hc        1 06F      0.039922
     47 HADA        6.5000   -4.2410    1.6800 hc        1 06F      0.039922
     48 HADB        6.5480   -5.7490    0.6720 hc        1 06F      0.039922
     49 HAG        -2.1510    3.8840    3.1570 ha        1 06F      0.136000
     50 HAH         0.2320    3.5720    2.5970 ha        1 06F      0.131000
     51 HAI        -3.8640    2.2460    2.4360 ha        1 06F      0.148000
     52 HAJ         8.9990    1.8870   -0.5020 ha        1 06F      0.139000
     53 HAK         5.3730    3.5620   -2.1500 ha        1 06F      0.139000
     54 HAL        -4.3290    2.4270    0.2150 ha        1 06F      0.147000
     55 HAM         7.8020   -0.2070    0.0530 ha        1 06F      0.150000
     56 HAN         4.1550    1.4720   -1.6430 ha        1 06F      0.150000
     57 HAO        -6.5650    2.8000   -0.7690 ha        1 06F      0.143000
     58 HAP        -0.7650   -0.0870    0.4570 ha        1 06F      0.170000
     59 HAQ        -5.1630   -1.8440    0.3780 ha        1 06F      0.138000
     60 HAR         2.9690   -2.5230    1.2940 ha        1 06F      0.190000
     61 HAS       -10.0910   -1.1370   -1.6460 hc        1 06F      0.049200
     62 HASA      -10.9420   -1.0880   -0.0510 hc        1 06F      0.049200
     63 HAT        -8.7160   -1.4700    1.1150 hc        1 06F      0.047200
     64 HATA       -9.2950   -2.8280    0.0710 hc        1 06F      0.047200
     65 HAU       -10.5530    1.1860   -0.7320 hc        1 06F      0.066700
     66 HAUA       -9.4340    0.8350    0.6540 hc        1 06F      0.066700
     67 HAV        -7.0420   -2.7150   -0.4920 hc        1 06F      0.055200
     68 HAVA       -7.8140   -1.7710   -1.8250 hc        1 06F      0.055200
     69 HNAX        1.8160    2.3800    1.3850 hn        1 06F      0.309500
     70 HNAY        3.7750    1.2620    0.7320 hn        1 06F      0.316500
     71 HNAZ       -2.9630   -0.8960    0.7760 hn        1 06F      0.429800
     72 CBM         5.0620   -4.2950    0.0410 c3        1 06F     -0.074300
     73 NAY         3.3250    0.3840    0.8910 n         1 06F     -0.438100
     74 OAE        -8.6350    1.6210   -2.3260 o         1 06F     -0.527100
@<TRIPOS>BOND
     1    1   27 1   
     2    1   37 1   
     3    1   38 1   
     4    1   39 1   
     5    2   40 1   
     6    2   41 1   
     7    2   42 1   
     8    2   72 1   
     9    3   43 1   
    10    3   44 1   
    11    3   45 1   
    12    3   72 1   
    13    4   46 1   
    14    4   47 1   
    15    4   48 1   
    16    4   72 1   
    17    5   26 2   
    18    6    7 ar  
    19    6    8 ar  
    20    6   49 1   
    21    7   28 ar  
    22    7   50 1   
    23    8   29 ar  
    24    8   51 1   
    25    9   12 ar  
    26    9   27 ar  
    27    9   52 1   
    28   10   13 ar  
    29   10   27 ar  
    30   10   53 1   
    31   11   14 ar  
    32   11   30 ar  
    33   11   54 1   
    34   12   31 ar  
    35   12   55 1   
    36   13   31 ar  
    37   13   56 1   
    38   14   35 ar  
    39   14   57 1   
    40   15   28 ar  
    41   15   29 ar  
    42   15   58 1   
    43   16   30 ar  
    44   16   32 ar  
    45   16   59 1   
    46   17   33 2   
    47   17   34 1   
    48   17   60 1   
    49   18   19 1   
    50   18   20 1   
    51   18   61 1   
    52   18   62 1   
    53   19   21 1   
    54   19   63 1   
    55   19   64 1   
    56   20   25 1   
    57   20   65 1   
    58   20   66 1   
    59   21   32 1   
    60   21   67 1   
    61   21   68 1   
    62   22   34 2   
    63   22   36 1   
    64   23   26 1   
    65   23   28 1   
    66   23   69 1   
    67   24   29 1   
    68   24   30 1   
    69   24   71 1   
    70   25   35 1   
    71   25   74 2   
    72   26   73 1   
    73   31   36 1   
    74   32   35 ar  
    75   33   36 1   
    76   33   73 1   
    77   34   72 1   
    78   70   73 1   
@<TRIPOS>SUBSTRUCTURE
     1 06F         1 TEMP              0 ****  ****    0 ROOT
