@<TRIPOS>MOLECULE
06F
   74    74     1     0     0
SMALL
bcc


@<TRIPOS>ATOM
      1 CAA         0.8600    0.7210    3.8370 c3        1 06F     -0.227000
      2 CAB         5.9540   -4.7090    1.3450 c3        1 06F     -0.272500
      3 CAC        10.2000   -0.1940    2.0370 c2        1 06F     -0.209000
      4 CAD         8.4140   -1.0850    0.5780 c3        1 06F     -0.180000
      5 OAF         6.4550    4.0440    4.9500 o         1 06F     -0.294000
      6 CAG         3.9830    0.7010    8.7040 c1        1 06F     -0.073000
      7 CAH         4.0770    1.4040    7.5050 c2        1 06F     -0.366000
      8 CAI         4.4260    0.9960    9.8130 c1        1 06F     -0.323000
      9 CAJ         2.3650    1.5060    1.9490 c3        1 06F     -0.161000
     10 CAK         2.6120    2.5120    4.2580 c3        1 06F     -0.161000
     11 CAL         5.4410    0.9980   12.9700 c3        1 06F     -0.053000
     12 CAM         3.7630    1.1540    2.1910 c1        1 06F     -0.102500
     13 CAN         4.0710    2.3160    4.2520 c1        1 06F     -0.102500
     14 CAO         5.1980    2.2590   13.6030 c1        1 06F     -0.036000
     15 CAP         5.3480    2.9580    9.0320 c2        1 06F     -0.390000
     16 CAQ         7.7670    0.3510   12.3400 c2        1 06F     -0.195000
     17 CAR         8.0830    0.7380    3.9660 c2        1 06F     -0.155000
     18 CAS         5.6930    6.9020   15.1230 c1        1 06F     -0.049000
     19 CAT         8.2300    6.6090   17.2820 c3        1 06F     -0.272500
     20 CAU         5.8830    5.5660   14.6090 c3        1 06F     -0.293000
     21 CAV         8.1780   -0.9520   14.5480 c1        1 06F     -0.247000
     22 NAW         6.5850    0.5160    2.2200 n2        1 06F     -0.026000
     23 NAX         5.0010    3.5250    6.6740 n4        1 06F     -0.036000
     24 NAZ         6.5310    1.8110   10.8740 n3        1 06F     -0.295000
     25 CBA         4.7670    4.5620   14.7810 c2        1 06F      0.318000
     26 CBB         6.0200    3.0980    5.6180 c2        1 06F      0.392000
     27 CBC         1.8710    1.6370    3.3140 c2        1 06F     -0.036000
     28 CBD         4.8190    2.5970    7.7980 c2        1 06F     -0.006000
     29 CBE         5.2220    2.1140   10.3100 c3        1 06F      0.249000
     30 CBF         6.6240    1.0320   12.0290 c2        1 06F      0.075000
     31 CBG         4.5890    1.4710    3.2300 c2        1 06F     -0.090000
     32 CBH         7.9680   -0.3440   13.5360 c1        1 06F     -0.101000
     33 CBI         6.8340    1.2380    4.3740 c2        1 06F      0.004000
     34 CBJ         7.8790    0.2870    2.6050 c2        1 06F     -0.086000
     35 CBK         4.9970    3.3100   14.1450 c1        1 06F     -0.252000
     36 NBL         5.9520    1.0680    3.2620 na        1 06F     -0.054000
     37 HAA         1.3500   -0.1480    4.3590 hc        1 06F      0.122000
     38 HAAA        0.2030    0.3140    3.0280 hc        1 06F      0.122000
     39 HAAB        0.2200    1.2430    4.5970 hc        1 06F      0.122000
     40 HAB         5.5140   -4.8170    2.3600 hc        1 06F      0.068250
     41 HABA        5.1580   -4.8390    0.5800 hc        1 06F      0.068250
     42 HABB        6.4050   -3.6980    1.2420 hc        1 06F      0.068250
     43 HAC        10.9740   -0.6540    1.4110 ha        1 06F      0.118000
     44 HACA        6.7390   -5.4820    1.1980 hc        1 06F      0.068250
     45 HACB       10.5690    0.3770    2.8980 ha        1 06F      0.118000
     46 HAD         7.6950   -1.8810    0.8970 hc        1 06F      0.087667
     47 HADA        7.8850   -0.4030   -0.1340 hc        1 06F      0.087667
     48 HADB        9.2640   -1.5710    0.0380 hc        1 06F      0.087667
     49 HAG         3.6440    1.1440    6.5470 ha        1 06F      0.125000
     50 HAH         5.2790    4.4500    7.0170 hn        1 06F      0.251000
     51 HAI         4.6680    2.7060   11.1020 h1        1 06F      0.096000
     52 HAJ         2.3650    2.4640    1.3490 hc        1 06F      0.166750
     53 HAK         2.4220    3.5980    4.0000 hc        1 06F      0.166750
     54 HAL         4.5210    0.6770   12.3950 hc        1 06F      0.139500
     55 HAM         1.8180    0.7330    1.3440 hc        1 06F      0.166750
     56 HAN         2.2450    2.3530    5.3140 hc        1 06F      0.166750
     57 HAO         5.6250    0.2190   13.7670 hc        1 06F      0.139500
     58 HAP         5.8940    3.8960    9.1800 ha        1 06F      0.127000
     59 HAQ         8.6200    0.3250   11.6390 ha        1 06F      0.140000
     60 HAR         8.9970    0.6910    4.5470 ha        1 06F      0.182000
     61 HAS         6.8170    5.1580   15.1040 hc        1 06F      0.173500
     62 HASA        7.5230    7.1020   16.5750 hc        1 06F      0.068250
     63 HAT         7.7940    6.6060   18.3050 hc        1 06F      0.068250
     64 HATA        8.4130    5.5620   16.9550 hc        1 06F      0.068250
     65 HAU         4.7500    7.1090   15.6520 ha        1 06F      0.065000
     66 HAUA        6.1360    5.6510   13.5110 hc        1 06F      0.173500
     67 HAV         9.1920    7.1660   17.2910 hc        1 06F      0.068250
     68 HAVA        8.3650   -1.4890   15.4410 ha        1 06F      0.219000
     69 HNAX        4.1080    3.5990    6.1670 hn        1 06F      0.251000
     70 HNAY        6.0160    1.1320    6.2450 hn        1 06F      0.276000
     71 HNAZ        7.2200    1.5900   10.1830 hn        1 06F      0.194000
     72 CBM         8.8960   -0.3230    1.7570 c2        1 06F     -0.033000
     73 NAY         6.4820    1.7810    5.6230 n         1 06F     -0.211000
     74 OAE         3.7430    4.8200   15.4230 o         1 06F     -0.283000
@<TRIPOS>BOND
     1    1   27 1   
     2    1   37 1   
     3    1   38 1   
     4    1   39 1   
     5    2   40 1   
     6    2   41 1   
     7    2   42 1   
     8    2   44 1   
     9    3   43 1   
    10    3   45 1   
    11    3   72 1   
    12    4   46 1   
    13    4   47 1   
    14    4   48 1   
    15    4   72 1   
    16    5   26 1   
    17    6    7 1   
    18    6    8 1   
    19    7   28 1   
    20    7   49 1   
    21    8   29 1   
    22    9   12 1   
    23    9   27 1   
    24    9   52 1   
    25    9   55 1   
    26   10   13 1   
    27   10   27 1   
    28   10   53 1   
    29   10   56 1   
    30   11   14 1   
    31   11   30 1   
    32   11   54 1   
    33   11   57 1   
    34   12   31 1   
    35   13   31 1   
    36   14   35 1   
    37   15   28 1   
    38   15   29 1   
    39   15   58 1   
    40   16   30 1   
    41   16   32 1   
    42   16   59 1   
    43   17   33 1   
    44   17   34 1   
    45   17   60 1   
    46   18   20 1   
    47   18   65 1   
    48   19   62 1   
    49   19   63 1   
    50   19   64 1   
    51   19   67 1   
    52   20   25 1   
    53   20   61 1   
    54   20   66 1   
    55   21   32 1   
    56   21   68 1   
    57   22   34 1   
    58   22   36 1   
    59   23   26 1   
    60   23   28 1   
    61   23   50 1   
    62   23   69 1   
    63   24   29 1   
    64   24   30 1   
    65   24   71 1   
    66   25   35 1   
    67   25   74 1   
    68   26   73 1   
    69   29   51 1   
    70   31   36 1   
    71   33   36 1   
    72   33   73 1   
    73   34   72 1   
    74   70   73 1   
@<TRIPOS>SUBSTRUCTURE
     1 06F         1 TEMP              0 ****  ****    0 ROOT
