@<TRIPOS>MOLECULE
06F
   74    68     1     0     0
SMALL
bcc


@<TRIPOS>ATOM
      1 CAA         1.2680    0.0590   -6.3340 c3        1 06F     -0.182000
      2 CAB         4.2250    6.6790   -1.1900 c3        1 06F     -0.204333
      3 CAC         3.1980    5.8560   -3.2810 c3        1 06F     -0.204333
      4 CAD         5.4870    5.1490   -2.6660 c3        1 06F     -0.204333
      5 OAE        -5.4260   -6.5390    3.6230 o         1 06F     -0.301000
      6 OAF         1.5850    2.0790    1.7420 o         1 06F     -0.348000
      7 CAG        -0.8430    1.5400    4.9900 c1        1 06F     -0.126250
      8 CAH        -0.4950    1.7630    3.6640 c1        1 06F     -0.154000
      9 CAI        -1.2960    0.2920    5.3880 c1        1 06F     -0.126250
     10 CAJ         3.3440    0.7550   -5.1250 c1        1 06F     -0.126250
     11 CAK         1.4190   -0.0710   -3.9530 c1        1 06F     -0.124000
     12 CAL        -1.9340   -4.2540    4.5190 c1        1 06F     -0.201500
     13 CAM         3.7800    1.3810   -3.9670 c1        1 06F     -0.126250
     14 CAN         1.8540    0.5550   -2.7960 c1        1 06F     -0.152000
     15 CAO        -2.5290   -5.3940    3.9900 c1        1 06F     -0.046000
     16 CAP        -1.0560   -0.5130    3.1370 c1        1 06F     -0.201500
     17 CAQ        -3.1740   -2.8840    2.9710 c1        1 06F     -0.210000
     18 CAR         2.4030    3.9910   -0.6910 c1        1 06F     -0.201000
     19 CAS        -5.6680   -6.1390    0.5850 c3        1 06F     -0.148000
     20 CAT        -5.6610   -4.6640    0.9080 c3        1 06F     -0.161000
     21 CAU        -4.6050   -6.8660    1.3730 c3        1 06F     -0.203000
     22 CAV        -4.2460   -4.1360    0.9800 c3        1 06F     -0.129000
     23 NAW         3.9780    3.1860   -1.9950 n2        1 06F     -0.063000
     24 NAX        -0.4000    1.0080    1.3520 n         1 06F     -0.312000
     25 NAY         0.9720    1.9730   -0.4620 n         1 06F     -0.283000
     26 NAZ        -1.2020   -2.1410    4.4250 n3        1 06F     -0.264000
     27 CBA        -4.6170   -6.2630    2.7600 c2        1 06F      0.278000
     28 CBB         0.7650    1.7110    0.9260 c2        1 06F      0.390000
     29 CBC         2.1640    0.0290   -5.1180 c1        1 06F     -0.066000
     30 CBD        -0.6010    0.7360    2.7380 c1        1 06F      0.087000
     31 CBE        -1.4030   -0.7340    4.4630 c1        1 06F      0.092500
     32 CBF        -2.2570   -2.9980    4.0080 c1        1 06F      0.092500
     33 CBG         3.0350    1.2810   -2.8030 c1        1 06F      0.050000
     34 CBH        -3.7740   -4.0330    2.4360 c2        1 06F      0.011000
     35 CBI         2.1410    2.6660   -0.8900 c2        1 06F      0.043000
     36 CBJ         3.5430    4.3040   -1.3790 c1        1 06F     -0.091000
     37 CBK        -3.4530   -5.2800    2.9430 c2        1 06F     -0.186000
     38 NBL         3.1080    2.1670   -1.6920 n3        1 06F     -0.114000
     39 CBM         4.1140    5.4990   -2.1300 c2        1 06F      0.020000
     40 HAA         1.7280   -0.3650   -7.0880 hc        1 06F      0.087667
     41 HAAA        0.4400   -0.4280   -6.1420 hc        1 06F      0.087667
     42 HAAB        1.0560    0.9880   -6.5610 hc        1 06F      0.087667
     43 HAB         4.7430    6.4190   -0.4010 hc        1 06F      0.078889
     44 HABA        3.3290    6.9620   -0.9140 hc        1 06F      0.078889
     45 HABB        4.6760    7.4200   -1.6480 hc        1 06F      0.078889
     46 HAC         3.4850    6.7080   -3.6760 hc        1 06F      0.078889
     47 HACA        2.2790    5.9420   -2.9530 hc        1 06F      0.078889
     48 HACB        3.2380    5.1520   -3.9610 hc        1 06F      0.078889
     49 HAD         5.9590    4.5890   -2.0160 hc        1 06F      0.078889
     50 HADA        5.9970    5.9730   -2.8200 hc        1 06F      0.078889
     51 HADB        5.3930    4.6610   -3.5110 hc        1 06F      0.078889
     52 HAG        -0.7680    2.2640    5.6420 ha        1 06F      0.143250
     53 HAH        -0.1760    2.6410    3.3840 ha        1 06F      0.174000
     54 HAI        -1.5410    0.1360    6.3210 ha        1 06F      0.143250
     55 HAJ         3.8690    0.8260   -5.9450 ha        1 06F      0.143250
     56 HAK         0.5870   -0.5830   -3.9480 ha        1 06F      0.138000
     57 HAL        -1.2900   -4.3340    5.2480 ha        1 06F      0.141000
     58 HAM         4.6110    1.8930   -3.9730 ha        1 06F      0.143250
     59 HAN         1.3300    0.4840   -1.9770 ha        1 06F      0.148000
     60 HAO        -2.3020   -6.2740    4.3470 ha        1 06F      0.153000
     61 HAP        -1.1310   -1.2360    2.4860 ha        1 06F      0.141000
     62 HAQ        -3.4000   -2.0050    2.6130 ha        1 06F      0.144000
     63 HAR         1.8700    4.6070   -0.1520 DU        1 06F      0.193000
     64 HAS        -6.5450   -6.5120    0.8070 hc        1 06F      0.087500
     65 HASA       -5.5000   -6.2600   -0.3710 hc        1 06F      0.087500
     66 HAT        -6.1490   -4.1800    0.2120 hc        1 06F      0.090500
     67 HATA       -6.1020   -4.5200    1.7690 hc        1 06F      0.090500
     68 HAU        -3.6840   -6.8420    1.0460 hc        1 06F      0.104000
     69 HAUA       -4.8300   -7.8180    1.3580 hc        1 06F      0.104000
     70 HAV        -3.6510   -4.7410    0.4910 hc        1 06F      0.092500
     71 HAVA       -4.2120   -3.2500    0.5670 hc        1 06F      0.092500
     72 HNAX       -1.0010    0.7070    0.7360 hn        1 06F      0.221000
     73 HNAY        0.3430    1.7210   -1.0710 hn        1 06F      0.224000
     74 HNAZ       -0.3920   -2.4920    4.6510 hn        1 06F      0.222000
@<TRIPOS>BOND
     1    1   29 1   
     2    1   40 1   
     3    1   41 1   
     4    1   42 1   
     5    2   39 1   
     6    2   43 1   
     7    2   44 1   
     8    2   45 1   
     9    3   39 1   
    10    3   46 1   
    11    3   47 1   
    12    3   48 1   
    13    4   39 1   
    14    4   49 1   
    15    4   50 1   
    16    4   51 1   
    17    5   27 1   
    18    6   28 1   
    19    7    9 1   
    20    7   52 1   
    21    8   30 1   
    22    8   53 1   
    23    9   54 1   
    24   10   13 1   
    25   10   55 1   
    26   11   29 1   
    27   11   56 1   
    28   12   32 1   
    29   12   57 1   
    30   13   58 1   
    31   14   33 1   
    32   14   59 1   
    33   15   37 1   
    34   15   60 1   
    35   16   31 1   
    36   16   61 1   
    37   17   34 1   
    38   17   62 1   
    39   18   35 1   
    40   18   36 1   
    41   19   20 1   
    42   19   21 1   
    43   19   64 1   
    44   19   65 1   
    45   20   22 1   
    46   20   66 1   
    47   20   67 1   
    48   21   27 1   
    49   21   68 1   
    50   21   69 1   
    51   22   34 1   
    52   22   70 1   
    53   22   71 1   
    54   23   36 1   
    55   23   38 1   
    56   24   28 1   
    57   24   30 1   
    58   24   72 1   
    59   25   28 1   
    60   25   35 1   
    61   25   73 1   
    62   26   31 1   
    63   26   32 1   
    64   26   74 1   
    65   27   37 1   
    66   33   38 1   
    67   34   37 1   
    68   35   38 1   
@<TRIPOS>SUBSTRUCTURE
     1 06F         1 TEMP              0 ****  ****    0 ROOT
