@<TRIPOS>MOLECULE
06F
   74    74     1     0     0
SMALL
bcc


@<TRIPOS>ATOM
      1 CAA        -0.3890   -0.7300    3.0830 c3        1 06F     -0.199000
      2 CAB         7.7210   -6.3170    2.4520 c3        1 06F     -0.269000
      3 CAC         9.8010    0.1640    3.2290 c2        1 06F     -0.025000
      4 CAD         8.7690   -0.8500    1.3360 c1        1 06F     -0.070000
      5 OAF         6.8440    3.0510    6.2830 o         1 06F     -0.377000
      6 CAG         2.7470    5.5000    7.9130 c1        1 06F     -0.184000
      7 CAH         4.0530    5.5770    8.4940 c3        1 06F     -0.043000
      8 CAI         1.6430    5.4660    7.4530 c1        1 06F     -0.192000
      9 CAJ         1.4980    0.7100    3.9620 c3        1 06F     -0.181000
     10 CAK         1.9900   -1.2420    2.5510 c2        1 06F     -0.183000
     11 CAL         7.5510    2.5750   10.6920 c2        1 06F     -0.170000
     12 CAM         2.9190    0.9750    4.0420 c1        1 06F     -0.168000
     13 CAN         3.3880   -0.9650    2.6450 c2        1 06F      0.004000
     14 CAO         7.2220    2.1470   11.8930 c1        1 06F     -0.055000
     15 CAP         6.2900    4.5260    8.5980 c2        1 06F     -0.284000
     16 CAQ         9.1040    3.9420   12.0510 c2        1 06F      0.077000
     17 CAR         7.1790    1.4850    3.9530 c2        1 06F     -0.238000
     18 CAS         5.9710    3.1860   16.5530 c3        1 06F     -0.155000
     19 CAT         6.0230    4.3690   17.4840 c3        1 06F     -0.212000
     20 CAU         6.8040    3.4260   15.3120 c3        1 06F     -0.204000
     21 CAV         9.8520    3.1150   14.1700 c1        1 06F     -0.079000
     22 NAW         6.1830   -0.2660    2.8260 n2        1 06F     -0.097000
     23 NAX         4.7250    3.8330    6.8600 n         1 06F     -0.324000
     24 NAZ         7.4860    5.1390   10.6870 n2        1 06F     -0.193000
     25 CBA         6.7610    2.2650   14.3570 c2        1 06F      0.285000
     26 CBB         5.6150    3.0940    6.0500 c2        1 06F      0.404000
     27 CBC         1.0610   -0.4630    3.1670 c2        1 06F     -0.052000
     28 CBD         5.0910    4.6070    7.9610 c2        1 06F      0.104000
     29 CBE         6.6400    5.3560    9.7430 c2        1 06F      0.008000
     30 CBF         8.2650    3.9270   10.7680 c3        1 06F     -0.025000
     31 CBG         3.8440    0.1240    3.3780 c2        1 06F     -0.026000
     32 CBH         8.8840    3.1360   13.1420 c2        1 06F     -0.175000
     33 CBI         5.7920    1.5300    4.2000 c2        1 06F      0.105000
     34 CBJ         7.3750    0.3400    3.0880 c2        1 06F     -0.077000
     35 CBK         7.5770    2.4180   13.1460 c2        1 06F     -0.138000
     36 NBL         5.2300    0.4060    3.5050 na        1 06F     -0.093000
     37 HAA        -0.6070   -1.6280    2.4540 hc        1 06F      0.097000
     38 HAAA       -0.9180    0.1500    2.6370 hc        1 06F      0.097000
     39 HAAB       -0.8070   -0.9060    4.1070 hc        1 06F      0.097000
     40 HAB         7.1130   -6.6890    1.5990 hc        1 06F      0.067000
     41 HABA        7.1540   -6.4550    3.3990 hc        1 06F      0.067000
     42 HABB        7.9440   -5.2360    2.3070 hc        1 06F      0.067000
     43 HAC         8.6740   -6.8880    2.5040 hc        1 06F      0.067000
     44 HACA       10.7760   -0.1750    2.8480 ha        1 06F      0.130000
     45 HACB        9.8130    0.7460    4.1630 ha        1 06F      0.130000
     46 HAD         7.8610   -0.9360    0.7210 ha        1 06F      0.051000
     47 HADA        8.0630   -2.9110    2.1200 ha        1 06F      0.011000
     48 HADB        8.7150   -3.0190    1.9560 ha        1 06F      0.011000
     49 HAG         3.9610    5.4060    9.6070 hc        1 06F      0.127500
     50 HAH         4.4580    6.6210    8.3400 hc        1 06F      0.127500
     51 HAI         6.1290    6.3430    9.8160 h4        1 06F      0.141000
     52 HAJ         1.1220    0.6070    5.0260 hc        1 06F      0.172500
     53 HAK         4.0750   -1.6500    2.1160 ha        1 06F      0.170000
     54 HAL         0.6610    5.4430    7.0520 ha        1 06F      0.227000
     55 HAM         1.0090    1.6480    3.5550 hc        1 06F      0.172500
     56 HAN         1.6890   -2.1190    1.9550 ha        1 06F      0.148000
     57 HAO         7.4890    2.0500    9.7360 ha        1 06F      0.174000
     58 HAP         7.0730    3.8220    8.2600 ha        1 06F      0.178000
     59 HAQ         9.9500    4.6510   12.0500 ha        1 06F      0.167000
     60 HAR         7.9290    2.1640    4.3450 ha        1 06F      0.189000
     61 HAS         7.8730    3.6200   15.6000 hc        1 06F      0.109000
     62 HASA        5.6310    5.2860   16.9810 hc        1 06F      0.073333
     63 HAT         7.0720    4.5710   17.8100 hc        1 06F      0.073333
     64 HATA        6.3440    2.2670   17.0770 hc        1 06F      0.092500
     65 HAU         4.9100    2.9790   16.2520 hc        1 06F      0.092500
     66 HAUA        6.4340    4.3380   14.7710 hc        1 06F      0.109000
     67 HAV         5.4030    4.1720   18.3920 hc        1 06F      0.073333
     68 HAVA        9.7270    2.3710   14.9700 ha        1 06F      0.057000
     69 HNAX        3.7760    3.9160    6.5630 hn        1 06F      0.244000
     70 HNAY        4.0320    2.3220    4.8690 hn        1 06F      0.291000
     71 HNAZ        9.0100    3.8980    9.9080 h1        1 06F      0.132000
     72 CBM         8.6580   -0.1170    2.5600 c2        1 06F     -0.146000
     73 NAY         5.0450    2.4530    4.9290 n         1 06F     -0.306000
     74 OAE         6.0790    1.2560   14.5610 o         1 06F     -0.282000
@<TRIPOS>BOND
     1    1   27 1   
     2    1   37 1   
     3    1   38 1   
     4    1   39 1   
     5    2   40 1   
     6    2   41 1   
     7    2   42 1   
     8    2   43 1   
     9    3   44 1   
    10    3   45 1   
    11    3   72 1   
    12    4   46 1   
    13    4   72 1   
    14    5   26 1   
    15    6    7 1   
    16    6    8 1   
    17    7   28 1   
    18    7   49 1   
    19    7   50 1   
    20    8   54 1   
    21    9   12 1   
    22    9   27 1   
    23    9   52 1   
    24    9   55 1   
    25   10   13 1   
    26   10   27 1   
    27   10   56 1   
    28   11   14 1   
    29   11   30 1   
    30   11   57 1   
    31   12   31 1   
    32   13   31 1   
    33   13   53 1   
    34   14   35 1   
    35   15   28 1   
    36   15   29 1   
    37   15   58 1   
    38   16   30 1   
    39   16   32 1   
    40   16   59 1   
    41   17   33 1   
    42   17   34 1   
    43   17   60 1   
    44   18   19 1   
    45   18   20 1   
    46   18   64 1   
    47   18   65 1   
    48   19   62 1   
    49   19   63 1   
    50   19   67 1   
    51   20   25 1   
    52   20   61 1   
    53   20   66 1   
    54   21   32 1   
    55   21   68 1   
    56   22   34 1   
    57   22   36 1   
    58   23   26 1   
    59   23   28 1   
    60   23   69 1   
    61   24   29 1   
    62   24   30 1   
    63   25   35 1   
    64   25   74 1   
    65   26   73 1   
    66   29   51 1   
    67   30   71 1   
    68   31   36 1   
    69   32   35 1   
    70   33   36 1   
    71   33   73 1   
    72   34   72 1   
    73   47   48 1   
    74   70   73 1   
@<TRIPOS>SUBSTRUCTURE
     1 06F         1 TEMP              0 ****  ****    0 ROOT
