@<TRIPOS>MOLECULE
06F
   74    77     1     0     0
SMALL
bcc


@<TRIPOS>ATOM
      1 CAA         1.3700   -0.1640   -0.3240 c3        1 06F     -0.171000
      2 CAB         9.0840   -1.6920    4.0580 cx        1 06F     -0.197500
      3 CAC         9.5860   -0.2850    3.9450 cx        1 06F     -0.197500
      4 CAD         7.8780   -0.8530   -0.0430 c1        1 06F     -0.026000
      5 OAF         5.6050    1.3780    6.8170 o         1 06F     -0.366000
      6 CAG         2.3250    3.1390   10.2290 c1        1 06F     -0.166000
      7 CAH         2.0240    2.6320    8.9200 c3        1 06F     -0.007000
      8 CAI         3.3540    3.4570   10.7930 c1        1 06F     -0.207000
      9 CAJ         3.5220    1.2180   -0.5660 cx        1 06F     -0.089000
     10 CAK         1.7620    1.5360    1.5250 c3        1 06F     -0.199000
     11 CAL         5.6630    4.4770   12.9070 c3        1 06F     -0.179000
     12 CAM         3.7200    0.5360    0.6990 cu        1 06F     -0.071000
     13 CAN         2.7120    1.2150    2.6330 c1        1 06F     -0.050000
     14 CAO         6.1040    4.8180   14.2480 c1        1 06F     -0.145000
     15 CAP         4.6070    2.9400    8.9050 c2        1 06F     -0.244000
     16 CAQ         6.8640    2.3150   13.1790 c2        1 06F     -0.332000
     17 CAR         6.5140    0.0400    4.5050 c2        1 06F     -0.229000
     18 CAS         7.9540    6.3220   17.6450 c2        1 06F     -0.171000
     19 CAT         9.4880    1.5950   14.5600 c3        1 06F     -0.205000
     20 CAU         7.3340    5.8060   16.5840 c2        1 06F     -0.207000
     21 CAV         8.1310    1.7250   15.2110 c3        1 06F     -0.174000
     22 NAW         6.2570   -0.0150    2.2080 n2        1 06F     -0.109000
     23 NAX         3.4090    2.1320    6.9450 ns        1 06F     -0.328000
     24 NAZ         5.7060    2.7440   11.1140 n7        1 06F     -0.293000
     25 CBA         7.1510    4.3510   16.4020 c2        1 06F      0.327000
     26 CBB         4.4740    1.4730    6.2930 c2        1 06F      0.400000
     27 CBC         2.3020    0.8220    0.2830 cx        1 06F     -0.170000
     28 CBD         3.4530    2.5680    8.2780 c2        1 06F      0.045000
     29 CBE         4.7490    3.4920   10.3410 c3        1 06F      0.207000
     30 CBF         6.0770    3.1320   12.3770 c2        1 06F      0.137000
     31 CBG         3.9380    0.6540    2.0460 c2        1 06F     -0.012000
     32 CBH         7.2600    2.6970   14.4880 c2        1 06F      0.172000
     33 CBI         5.2190    0.4920    4.1990 c2        1 06F      0.097000
     34 CBJ         7.1270   -0.2630    3.2230 c2        1 06F     -0.031000
     35 CBK         6.8460    3.9200   15.0200 c2        1 06F     -0.286000
     36 NBL         5.1240    0.4780    2.7600 na        1 06F     -0.082000
     37 HAA         1.8820   -0.7860   -1.0990 hc        1 06F      0.087667
     38 HAAA        0.5180    0.3760   -0.8070 hc        1 06F      0.087667
     39 HAAB        0.9580   -0.8500    0.4570 hc        1 06F      0.087667
     40 HAB         9.2440   -4.7680    5.5770 ha        1 06F     -0.000500
     41 HABA        9.2100   -4.1610    5.2790 ha        1 06F     -0.000500
     42 HABB        8.4780   -1.9740    4.9380 hc        1 06F      0.115000
     43 HAC         9.3370    0.4360    4.7440 hc        1 06F      0.115000
     44 HACA        9.7180   -2.5260    3.7060 hc        1 06F      0.115000
     45 HACB       10.5840   -0.0980    3.5110 hc        1 06F      0.115000
     46 HAD         8.7500   -0.9450    1.9540 hc        1 06F      0.172000
     47 HADA        7.0280   -1.5410   -0.1720 ha        1 06F      0.012000
     48 HADB        7.6190    0.1640   -0.3750 ha        1 06F      0.012000
     49 HAG         1.3600    3.3150    8.3290 hc        1 06F      0.120000
     50 HAH         1.5680    1.6080    8.9450 hc        1 06F      0.120000
     51 HAI         5.1070    4.5670   10.2770 h1        1 06F      0.131000
     52 HAJ         3.8840    2.2650   -0.6280 hc        1 06F      0.139500
     53 HAK         1.7590    2.6510    1.3900 hc        1 06F      0.147000
     54 HAL         6.0450    5.2890   12.2200 hc        1 06F      0.162000
     55 HAM         3.6250    0.6880   -1.5330 hc        1 06F      0.139500
     56 HAN         0.7210    1.2150    1.7790 hc        1 06F      0.147000
     57 HAO         4.5320    4.5470   12.8940 hc        1 06F      0.162000
     58 HAP         5.5800    2.8820    8.3860 ha        1 06F      0.188000
     59 HAQ         7.1970    1.3290   12.8160 ha        1 06F      0.137000
     60 HAR         6.9640   -0.0440    5.4890 ha        1 06F      0.196000
     61 HAS         8.2620    2.0250   16.2860 hc        1 06F      0.119500
     62 HASA       10.0970    0.8380   15.1120 hc        1 06F      0.078000
     63 HAT        10.0320    2.5700   14.5840 hc        1 06F      0.078000
     64 HATA        8.0930    7.4040   17.7710 ha        1 06F      0.115000
     65 HAU         8.3590    5.6950   18.4520 ha        1 06F      0.115000
     66 HAUA        6.9150    6.4310   15.7740 ha        1 06F      0.169000
     67 HAV         9.3950    1.2690   13.4960 hc        1 06F      0.078000
     68 HAVA        7.6160    0.7250   15.2120 hc        1 06F      0.119500
     69 HNAX        2.4980    2.0680    6.5470 hn        1 06F      0.234000
     70 HNAY        3.3100    1.1300    4.5740 hn        1 06F      0.278000
     71 HNAZ        5.8390    1.7900   10.8550 hn        1 06F      0.237000
     72 CBM         8.4880   -0.7640    3.0260 cx        1 06F     -0.130000
     73 NAY         4.1800    0.8920    5.0380 ns        1 06F     -0.299000
     74 OAE         7.2260    3.5600   17.3570 o         1 06F     -0.339000
@<TRIPOS>BOND
     1    1   27 1   
     2    1   37 1   
     3    1   38 1   
     4    1   39 1   
     5    2    3 1   
     6    2   42 1   
     7    2   44 1   
     8    2   72 1   
     9    3   43 1   
    10    3   45 1   
    11    3   72 1   
    12    4   47 1   
    13    4   48 1   
    14    5   26 1   
    15    6    7 1   
    16    6    8 1   
    17    7   28 1   
    18    7   49 1   
    19    7   50 1   
    20    8   29 1   
    21    9   12 1   
    22    9   27 1   
    23    9   52 1   
    24    9   55 1   
    25   10   13 1   
    26   10   27 1   
    27   10   53 1   
    28   10   56 1   
    29   11   14 1   
    30   11   30 1   
    31   11   54 1   
    32   11   57 1   
    33   12   27 1   
    34   12   31 1   
    35   13   31 1   
    36   14   35 1   
    37   15   28 1   
    38   15   29 1   
    39   15   58 1   
    40   16   30 1   
    41   16   32 1   
    42   16   59 1   
    43   17   33 1   
    44   17   34 1   
    45   17   60 1   
    46   18   20 1   
    47   18   64 1   
    48   18   65 1   
    49   19   21 1   
    50   19   62 1   
    51   19   63 1   
    52   19   67 1   
    53   20   25 1   
    54   20   66 1   
    55   21   32 1   
    56   21   61 1   
    57   21   68 1   
    58   22   34 1   
    59   22   36 1   
    60   23   26 1   
    61   23   28 1   
    62   23   69 1   
    63   24   29 1   
    64   24   30 1   
    65   24   71 1   
    66   25   35 1   
    67   25   74 1   
    68   26   73 1   
    69   29   51 1   
    70   31   36 1   
    71   32   35 1   
    72   33   36 1   
    73   33   73 1   
    74   34   72 1   
    75   40   41 1   
    76   46   72 1   
    77   70   73 1   
@<TRIPOS>SUBSTRUCTURE
     1 06F         1 TEMP              0 ****  ****    0 ROOT
