@<TRIPOS>MOLECULE
06H
   66    69     1     0     0
SMALL
bcc


@<TRIPOS>ATOM
      1 C1          0.0380   -0.7410   -0.0170 c3        1 06H     -0.062800
      2 C2          1.4860   -0.5220    0.0070 cc        1 06H     -0.010300
      3 C3          2.3380   -0.5440    1.1190 cd        1 06H     -0.177600
      4 N1          3.6820   -0.3520    0.6580 na        1 06H     -0.024200
      5 C4          3.6330   -0.1590   -0.7410 cd        1 06H     -0.011600
      6 C5          2.3020   -0.2600   -1.1560 cc        1 06H     -0.205600
      7 C6          1.9000   -0.1130   -2.5560 c         1 06H      0.601700
      8 O1          0.7480   -0.3200   -2.9450 o         1 06H     -0.499100
      9 C7          2.9920    0.3480   -3.4820 c3        1 06H     -0.176400
     10 C8          4.3890   -0.1430   -3.1070 c3        1 06H     -0.038000
     11 C9          4.7340    0.2240   -1.6540 c3        1 06H     -0.028100
     12 C10         5.4030    0.5400   -4.0190 c3        1 06H     -0.097100
     13 C11         4.4840   -1.6490   -3.3000 c3        1 06H     -0.097100
     14 C12         4.8220   -0.3510    1.4530 ca        1 06H      0.178800
     15 C13         6.0590   -0.9300    1.0310 ca        1 06H     -0.172000
     16 C14         7.1740   -0.8300    1.8270 ca        1 06H     -0.035000
     17 C15         7.1560   -0.2310    3.1110 ca        1 06H     -0.286600
     18 C16         5.8990    0.2490    3.6030 ca        1 06H      0.313600
     19 C17         4.7900    0.2340    2.7270 ca        1 06H     -0.281000
     20 N2          5.7190    0.7160    4.8930 nh        1 06H     -0.774600
     21 C18         4.4500    0.6200    5.5530 c3        1 06H      0.203500
     22 C19         3.4540    1.7230    5.1000 c         1 06H      0.490100
     23 O2          3.7200    2.8800    4.8280 o         1 06H     -0.382100
     24 N3          1.9940    1.3020    5.0300 n4        1 06H     -0.596200
     25 C20         1.4420    1.4090    3.6280 c3        1 06H      0.108800
     26 C21         0.9010    0.0990    3.0740 c3        1 06H     -0.119400
     27 C22         1.9190   -0.8750    2.5020 c3        1 06H     -0.011100
     28 C23         1.1970    2.1160    5.9870 c3        1 06H      0.081100
     29 C24         4.5580    0.7440    7.0760 c3        1 06H     -0.128100
     30 C25         8.3450   -0.1110    3.9220 c         1 06H      0.585700
     31 O3          8.4850    0.3280    5.0610 o         1 06H     -0.468100
     32 N4          9.6650   -0.5680    3.3230 n4        1 06H     -0.754400
     33 H1         -0.2840   -1.4170    0.8140 hc        1 06H      0.071700
     34 H2         -0.5070    0.2340    0.0770 hc        1 06H      0.071700
     35 H3         -0.2640   -1.1990   -0.9970 hc        1 06H      0.071700
     36 H4          2.7520    0.0080   -4.5260 hc        1 06H      0.091700
     37 H5          2.9770    1.4720   -3.4830 hc        1 06H      0.091700
     38 H6          4.8780    1.3390   -1.5820 hc        1 06H      0.062700
     39 H7          5.7090   -0.2580   -1.3870 hc        1 06H      0.062700
     40 H8          5.1890    0.2820   -5.0850 hc        1 06H      0.048533
     41 H9          6.4360    0.1990   -3.7720 hc        1 06H      0.048533
     42 H10         5.3530    1.6490   -3.9060 hc        1 06H      0.048533
     43 H11         3.7510   -2.1740   -2.6410 hc        1 06H      0.048533
     44 H12         4.2600   -1.9140   -4.3620 hc        1 06H      0.048533
     45 H13         5.5120   -2.0100   -3.0570 hc        1 06H      0.048533
     46 H14         6.1150   -1.4770    0.0740 ha        1 06H      0.189000
     47 H15         8.1040   -1.2700    1.4290 ha        1 06H      0.134000
     48 H16         3.8680    0.7500    3.0300 ha        1 06H      0.138000
     49 H17         6.4920    1.0660    5.4200 hn        1 06H      0.487800
     50 H18         3.9960   -0.3880    5.2890 h1        1 06H      0.086700
     51 H19         2.2400    1.8290    2.9520 hx        1 06H      0.116200
     52 H20         0.6000    2.1640    3.6500 hx        1 06H      0.116200
     53 H21         0.2920   -0.4340    3.8550 hc        1 06H      0.096200
     54 H22         0.1820    0.3850    2.2500 hc        1 06H      0.096200
     55 H23         1.4130   -1.8860    2.4490 hc        1 06H      0.063200
     56 H24         2.7840   -0.9980    3.2030 hc        1 06H      0.063200
     57 H25         1.5920    1.9570    7.0270 hx        1 06H      0.114367
     58 H26         0.1190    1.8000    5.9410 hx        1 06H      0.114367
     59 H27         1.2830    3.2040    5.7150 hx        1 06H      0.114367
     60 H28         5.2140   -0.0670    7.4810 hc        1 06H      0.085700
     61 H29         4.9860    1.7320    7.3770 hc        1 06H      0.085700
     62 H30         3.5430    0.6340    7.5290 hc        1 06H      0.085700
     63 H31         9.6360   -1.5730    3.1280 hn        1 06H      0.474133
     64 H32         9.8530   -0.0620    2.4520 hn        1 06H      0.474133
     65 H311        1.9310    0.3180    5.3200 hn        1 06H      0.448800
     66 H43        10.4240   -0.3780    3.9940 hn        1 06H      0.474133
@<TRIPOS>BOND
     1    1    2 1   
     2    1   33 1   
     3    1   34 1   
     4    1   35 1   
     5    2    3 2   
     6    2    6 1   
     7    3    4 1   
     8    3   27 1   
     9    4    5 1   
    10    4   14 1   
    11    5    6 2   
    12    5   11 1   
    13    6    7 1   
    14    7    8 2   
    15    7    9 1   
    16    9   10 1   
    17    9   36 1   
    18    9   37 1   
    19   10   11 1   
    20   10   12 1   
    21   10   13 1   
    22   11   38 1   
    23   11   39 1   
    24   12   40 1   
    25   12   41 1   
    26   12   42 1   
    27   13   43 1   
    28   13   44 1   
    29   13   45 1   
    30   14   15 ar  
    31   14   19 ar  
    32   15   16 ar  
    33   15   46 1   
    34   16   17 ar  
    35   16   47 1   
    36   17   18 ar  
    37   17   30 1   
    38   18   19 ar  
    39   18   20 1   
    40   19   48 1   
    41   20   21 1   
    42   20   49 1   
    43   21   22 1   
    44   21   29 1   
    45   21   50 1   
    46   22   23 2   
    47   22   24 1   
    48   24   25 1   
    49   24   28 1   
    50   24   65 1   
    51   25   26 1   
    52   25   51 1   
    53   25   52 1   
    54   26   27 1   
    55   26   53 1   
    56   26   54 1   
    57   27   55 1   
    58   27   56 1   
    59   28   57 1   
    60   28   58 1   
    61   28   59 1   
    62   29   60 1   
    63   29   61 1   
    64   29   62 1   
    65   30   31 2   
    66   30   32 1   
    67   32   63 1   
    68   32   64 1   
    69   32   66 1   
@<TRIPOS>SUBSTRUCTURE
     1 06H         1 TEMP              0 ****  ****    0 ROOT
