@<TRIPOS>MOLECULE
06H
   67    70     1     0     0
SMALL
bcc


@<TRIPOS>ATOM
      1 C1          0.0860   -0.7290    0.0040 c3        1 06H     -0.081800
      2 C2          1.5250   -0.4630    0.0160 cc        1 06H      0.041700
      3 C3          2.3850   -0.4160    1.1170 cd        1 06H     -0.213600
      4 N1          3.7280   -0.2070    0.6300 na        1 06H     -0.018200
      5 C4          3.6550   -0.0910   -0.7930 cd        1 06H     -0.009600
      6 C5          2.3270   -0.2290   -1.1750 cc        1 06H     -0.175600
      7 C6          1.8950   -0.1490   -2.5800 c         1 06H      0.594700
      8 O1          0.7360   -0.3920   -2.9180 o         1 06H     -0.467100
      9 C7          2.9640    0.2820   -3.5420 c3        1 06H     -0.178400
     10 C8          4.3760   -0.1630   -3.1670 c3        1 06H     -0.037000
     11 C9          4.7370    0.2730   -1.7350 c3        1 06H     -0.035100
     12 C10         5.3610    0.5030   -4.1210 c3        1 06H     -0.100600
     13 C11         4.5010   -1.6740   -3.2980 c3        1 06H     -0.100600
     14 C12         4.8630   -0.1920    1.3970 ca        1 06H      0.182800
     15 C13         6.0920   -0.7970    1.0040 ca        1 06H     -0.132000
     16 C14         7.1890   -0.7800    1.8410 ca        1 06H     -0.022000
     17 C15         7.1700   -0.1980    3.1290 ca        1 06H     -0.238600
     18 C16         5.9440    0.4040    3.5380 ca        1 06H      0.085600
     19 C17         4.8550    0.4480    2.6770 ca        1 06H     -0.200000
     20 N2          5.7680    1.0390    4.8600 n4        1 06H     -0.662400
     21 C18         4.4420    0.6910    5.5110 c3        1 06H      0.069500
     22 C19         3.3590    1.7170    5.1240 c         1 06H      0.499100
     23 O2          3.6150    2.8830    4.8540 o         1 06H     -0.374100
     24 N3          1.9400    1.2500    5.1060 n4        1 06H     -0.577200
     25 C20         1.3350    1.3980    3.7150 c3        1 06H      0.113800
     26 C21         0.9100    0.0810    3.0920 c3        1 06H     -0.132400
     27 C22         2.0150   -0.7800    2.5050 c3        1 06H     -0.005100
     28 C23         1.1450    2.0150    6.1190 c3        1 06H      0.079100
     29 C24         4.5600    0.6830    7.0340 c3        1 06H     -0.154100
     30 C25         8.3430   -0.2140    3.9900 c         1 06H      0.579700
     31 O3          8.4090    0.1700    5.1600 o         1 06H     -0.477100
     32 N4          9.6500   -0.7270    3.4550 n4        1 06H     -0.739400
     33 H1         -0.2010   -1.2520   -0.9510 hc        1 06H      0.088033
     34 H2         -0.4890    0.2340    0.0320 hc        1 06H      0.088033
     35 H3         -0.2210   -1.3670    0.8690 hc        1 06H      0.088033
     36 H4          2.9250    1.4050   -3.6070 hc        1 06H      0.105200
     37 H5          2.7130   -0.1170   -4.5650 hc        1 06H      0.105200
     38 H6          4.8590    1.3930   -1.7160 hc        1 06H      0.065700
     39 H7          5.7240   -0.1790   -1.4650 hc        1 06H      0.065700
     40 H8          6.4060    0.1930   -3.8790 hc        1 06H      0.054200
     41 H9          5.2890    1.6150   -4.0550 hc        1 06H      0.054200
     42 H10         5.1370    0.1960   -5.1730 hc        1 06H      0.054200
     43 H11         4.2680   -1.9880   -4.3450 hc        1 06H      0.054200
     44 H12         5.5410   -2.0020   -3.0590 hc        1 06H      0.054200
     45 H13         3.7900   -2.1890   -2.6080 hc        1 06H      0.054200
     46 H14         6.1620   -1.3240    0.0310 ha        1 06H      0.216000
     47 H15         8.1000   -1.2820    1.4660 ha        1 06H      0.164000
     48 H16         3.9520    1.0290    2.9340 ha        1 06H      0.154000
     49 H17         6.5160    0.7360    5.5140 hn        1 06H      0.498300
     50 H18         4.1600   -0.3450    5.1430 hx        1 06H      0.145700
     51 H19         0.4240    2.0640    3.8180 hx        1 06H      0.126700
     52 H20         2.0720    1.9390    3.0550 hx        1 06H      0.126700
     53 H21         0.1850    0.3560    2.2670 hc        1 06H      0.116200
     54 H22         0.3200   -0.5330    3.8290 hc        1 06H      0.116200
     55 H23         2.8960   -0.8040    3.1970 hc        1 06H      0.055200
     56 H24         1.6190   -1.8410    2.4620 hc        1 06H      0.055200
     57 H25         0.0810    1.6460    6.0980 hx        1 06H      0.130700
     58 H26         1.5810    1.8470    7.1400 hx        1 06H      0.130700
     59 H27         1.1690    3.1120    5.8670 hx        1 06H      0.130700
     60 H28         3.5690    0.4070    7.4780 hc        1 06H      0.114033
     61 H29         4.8630    1.6830    7.4380 hc        1 06H      0.114033
     62 H30         5.3030   -0.0850    7.3750 hc        1 06H      0.114033
     63 H31         9.9270   -0.2060    2.6130 hn        1 06H      0.495467
     64 H32        10.3850   -0.6070    4.1780 hn        1 06H      0.495467
     65 H221        5.8410    2.0670    4.7460 hn        1 06H      0.498300
     66 H311        1.9090    0.2520    5.3620 hn        1 06H      0.461800
     67 H43         9.5800   -1.7280    3.2250 hn        1 06H      0.495467
@<TRIPOS>BOND
     1    1    2 1   
     2    1   33 1   
     3    1   34 1   
     4    1   35 1   
     5    2    3 2   
     6    2    6 1   
     7    3    4 1   
     8    3   27 1   
     9    4    5 1   
    10    4   14 1   
    11    5    6 2   
    12    5   11 1   
    13    6    7 1   
    14    7    8 2   
    15    7    9 1   
    16    9   10 1   
    17    9   36 1   
    18    9   37 1   
    19   10   11 1   
    20   10   12 1   
    21   10   13 1   
    22   11   38 1   
    23   11   39 1   
    24   12   40 1   
    25   12   41 1   
    26   12   42 1   
    27   13   43 1   
    28   13   44 1   
    29   13   45 1   
    30   14   15 ar  
    31   14   19 ar  
    32   15   16 ar  
    33   15   46 1   
    34   16   17 ar  
    35   16   47 1   
    36   17   18 ar  
    37   17   30 1   
    38   18   19 ar  
    39   18   20 1   
    40   19   48 1   
    41   20   21 1   
    42   20   49 1   
    43   20   65 1   
    44   21   22 1   
    45   21   29 1   
    46   21   50 1   
    47   22   23 2   
    48   22   24 1   
    49   24   25 1   
    50   24   28 1   
    51   24   66 1   
    52   25   26 1   
    53   25   51 1   
    54   25   52 1   
    55   26   27 1   
    56   26   53 1   
    57   26   54 1   
    58   27   55 1   
    59   27   56 1   
    60   28   57 1   
    61   28   58 1   
    62   28   59 1   
    63   29   60 1   
    64   29   61 1   
    65   29   62 1   
    66   30   31 2   
    67   30   32 1   
    68   32   63 1   
    69   32   64 1   
    70   32   67 1   
@<TRIPOS>SUBSTRUCTURE
     1 06H         1 TEMP              0 ****  ****    0 ROOT
