@<TRIPOS>MOLECULE
06H
   64    59     1     0     0
SMALL
bcc


@<TRIPOS>ATOM
      1 C1         -4.5370   -0.6850   -1.3230 c3        1 06H     -0.166000
      2 C2         -2.9900   -0.6810   -1.3160 c2        1 06H     -0.061000
      3 C3         -2.1550   -0.6000   -0.1620 c1        1 06H     -0.088000
      4 N1         -0.8170   -0.6580   -0.5880 n3        1 06H     -0.088000
      5 C4         -0.8110   -0.7730   -1.9720 c1        1 06H     -0.008000
      6 C5         -2.1780   -0.7860   -2.4220 c1        1 06H     -0.219000
      7 C6         -2.4560   -0.9690   -3.9820 c1        1 06H      0.305000
      8 O1         -3.6130   -1.0820   -4.3960 o         1 06H     -0.314000
      9 C7         -1.3390   -1.3100   -4.8380 c3        1 06H     -0.203000
     10 C8         -0.0870   -0.6220   -4.4310 c3        1 06H     -0.038000
     11 C9          0.3210   -0.7630   -3.0520 c2        1 06H     -0.101000
     12 C10         1.0190   -1.2130   -5.2730 c3        1 06H     -0.210500
     13 C11        -0.3080    0.8820   -4.6880 c3        1 06H     -0.210500
     14 C12         0.4100   -0.7190    0.3230 c1        1 06H      0.097000
     15 C13         1.1680   -1.8890    0.3980 c1        1 06H     -0.122000
     16 C14         2.2790   -1.9430    1.2200 c1        1 06H     -0.122000
     17 C15         2.6470   -0.8210    1.9810 c1        1 06H     -0.183000
     18 C16         1.8960    0.3410    1.9080 c1        1 06H      0.139000
     19 C17         0.7710    0.3940    1.0750 c1        1 06H     -0.211000
     20 N2          2.1740    1.4720    2.8630 n3        1 06H     -0.300000
     21 C18         1.5100    2.6710    2.4060 c3        1 06H     -0.011000
     22 C19        -0.0190    2.5790    2.6790 c1        1 06H      0.298000
     23 O2         -0.8210    2.8550    1.7860 o         1 06H     -0.346000
     24 N3         -0.3180    1.4700    3.6360 n2        1 06H     -0.326000
     25 C20        -1.5980    0.8840    3.3000 c3        1 06H     -0.029000
     26 C21        -1.3710   -0.3330    2.3430 c3        1 06H     -0.187000
     27 C22        -2.6520   -0.4940    1.3460 c2        1 06H     -0.088000
     28 C23         0.0850    1.5800    5.0190 c3        1 06H     -0.069000
     29 C24         1.7390    2.8330    0.9580 c3        1 06H     -0.236000
     30 C25         3.8790   -0.8940    2.9260 c1        1 06H      0.356000
     31 O3          4.2140    0.0810    3.5610 o         1 06H     -0.394000
     32 N4          4.6420   -2.1110    3.0210 n2        1 06H     -0.428000
     33 H1         -4.8620   -0.0880   -0.6490 hc        1 06H      0.091667
     34 H2         -4.8600   -0.3920   -2.2040 hc        1 06H      0.091667
     35 H3         -4.8650   -1.5980   -1.1410 hc        1 06H      0.091667
     36 H4         -1.5600   -1.2640   -5.8310 hc        1 06H      0.109500
     37 H5         -1.1730   -2.2750   -4.7460 hc        1 06H      0.109500
     38 H6          0.8300   -1.6290   -2.9710 ha        1 06H      0.100000
     39 H7          0.9460   -0.0160   -2.8370 ha        1 06H      0.100000
     40 H8          0.8890   -0.9580   -6.2080 hc        1 06H      0.079833
     41 H9          1.8980   -0.8710   -4.9570 hc        1 06H      0.079833
     42 H10         1.0000   -2.1940   -5.1950 hc        1 06H      0.079833
     43 H11         0.5580    1.3530   -4.6560 hc        1 06H      0.079833
     44 H12        -0.7160    1.0030   -5.5800 hc        1 06H      0.079833
     45 H13        -0.9090    1.2490   -3.9990 hc        1 06H      0.079833
     46 H14         0.9070   -2.6910   -0.1450 ha        1 06H      0.146000
     47 H15         2.8190   -2.7790    1.2720 ha        1 06H      0.146000
     48 H16         0.2390    1.2130    1.0220 ha        1 06H      0.173000
     49 H17         3.0850    1.6270    2.8900 hn        1 06H      0.244000
     50 H18         1.8730    3.4360    2.8740 h1        1 06H      0.118000
     51 H19        -2.1700    1.5680    2.8460 h1        1 06H      0.107500
     52 H20        -2.0490    0.5710    4.1340 h1        1 06H      0.107500
     53 H21        -0.5510   -0.1820    1.8070 hc        1 06H      0.087500
     54 H22        -1.2640   -1.1570    2.8830 hc        1 06H      0.087500
     55 H23        -3.1510   -1.3050    1.5810 ha        1 06H      0.096500
     56 H24        -3.2450    0.2990    1.4430 ha        1 06H      0.096500
     57 H25         0.8460    2.1980    5.0900 h1        1 06H      0.078333
     58 H26         0.3540    0.6790    5.3600 h1        1 06H      0.078333
     59 H27        -0.6780    1.9270    5.5620 h1        1 06H      0.078333
     60 H28         2.3330    2.1060    0.6340 hc        1 06H      0.096000
     61 H29         2.1650    3.7060    0.7870 hc        1 06H      0.096000
     62 H30         0.8960    2.7900    0.4930 hc        1 06H      0.096000
     63 H31         4.4080   -2.8450    2.5100 hn        1 06H      0.229000
     64 H32         5.3200   -2.1770    3.6260 hn        1 06H      0.229000
@<TRIPOS>BOND
     1    1    2 1   
     2    1   33 1   
     3    1   34 1   
     4    1   35 1   
     5    2    3 1   
     6    2    6 1   
     7    3    4 1   
     8    4    5 1   
     9    4   14 1   
    10    5    6 1   
    11    7    8 1   
    12    7    9 1   
    13    9   10 1   
    14    9   36 1   
    15    9   37 1   
    16   10   11 1   
    17   10   12 1   
    18   10   13 1   
    19   11   38 1   
    20   11   39 1   
    21   12   40 1   
    22   12   41 1   
    23   12   42 1   
    24   13   43 1   
    25   13   44 1   
    26   13   45 1   
    27   14   19 1   
    28   15   16 1   
    29   15   46 1   
    30   16   47 1   
    31   17   18 1   
    32   17   30 1   
    33   18   20 1   
    34   19   48 1   
    35   20   21 1   
    36   20   49 1   
    37   21   22 1   
    38   21   29 1   
    39   21   50 1   
    40   22   23 1   
    41   24   25 1   
    42   24   28 1   
    43   25   26 1   
    44   25   51 1   
    45   25   52 1   
    46   26   27 1   
    47   26   53 1   
    48   26   54 1   
    49   27   55 1   
    50   27   56 1   
    51   28   57 1   
    52   28   58 1   
    53   28   59 1   
    54   29   60 1   
    55   29   61 1   
    56   29   62 1   
    57   30   31 1   
    58   32   63 1   
    59   32   64 1   
@<TRIPOS>SUBSTRUCTURE
     1 06H         1 TEMP              0 ****  ****    0 ROOT
