@<TRIPOS>MOLECULE
06H
   66    69     1     0     0
SMALL
bcc


@<TRIPOS>ATOM
      1 C1          0.0330   -0.7250   -0.0130 c3        1 06H     -0.062800
      2 C2          1.4820   -0.5130    0.0100 cc        1 06H     -0.010300
      3 C3          2.3350   -0.5370    1.1210 cd        1 06H     -0.177600
      4 N1          3.6790   -0.3520    0.6590 na        1 06H     -0.024200
      5 C4          3.6310   -0.1620   -0.7410 cd        1 06H     -0.011600
      6 C5          2.2980   -0.2570   -1.1550 cc        1 06H     -0.205600
      7 C6          1.8970   -0.1110   -2.5540 c         1 06H      0.601700
      8 O1          0.7430   -0.3130   -2.9420 o         1 06H     -0.499100
      9 C7          2.9910    0.3420   -3.4820 c3        1 06H     -0.176400
     10 C8          4.3860   -0.1540   -3.1070 c3        1 06H     -0.038000
     11 C9          4.7330    0.2140   -1.6550 c3        1 06H     -0.028100
     12 C10         5.4020    0.5210   -4.0210 c3        1 06H     -0.097100
     13 C11         4.4720   -1.6610   -3.2960 c3        1 06H     -0.097100
     14 C12         4.8200   -0.3550    1.4540 ca        1 06H      0.178800
     15 C13         6.0530   -0.9410    1.0320 ca        1 06H     -0.172000
     16 C14         7.1700   -0.8460    1.8270 ca        1 06H     -0.035000
     17 C15         7.1550   -0.2440    3.1100 ca        1 06H     -0.286600
     18 C16         5.9010    0.2430    3.6020 ca        1 06H      0.313600
     19 C17         4.7920    0.2320    2.7260 ca        1 06H     -0.281000
     20 N2          5.7230    0.7140    4.8910 nu        1 06H     -0.774600
     21 C18         4.4540    0.6240    5.5510 c3        1 06H      0.203500
     22 C19         3.4640    1.7320    5.0980 c         1 06H      0.490100
     23 O2          3.7350    2.8870    4.8230 o         1 06H     -0.382100
     24 N3          2.0020    1.3180    5.0290 nx        1 06H     -0.596200
     25 C20         1.4490    1.4250    3.6270 c3        1 06H      0.108800
     26 C21         0.9020    0.1170    3.0750 c3        1 06H     -0.119400
     27 C22         1.9150   -0.8630    2.5050 c3        1 06H     -0.011100
     28 C23         1.2090    2.1380    5.9850 c3        1 06H      0.081100
     29 C24         4.5640    0.7510    7.0740 c3        1 06H     -0.128100
     30 C25         8.3450   -0.1280    3.9200 c         1 06H      0.585700
     31 O3          8.4880    0.3120    5.0590 o         1 06H     -0.468100
     32 N4          9.6620   -0.5930    3.3210 nz        1 06H     -0.754400
     33 H1         -0.2920   -1.3980    0.8190 hc        1 06H      0.071700
     34 H2         -0.2720   -1.1840   -0.9920 hc        1 06H      0.071700
     35 H3         -0.5070    0.2530    0.0790 hc        1 06H      0.071700
     36 H4          2.9800    1.4670   -3.4860 hc        1 06H      0.091700
     37 H5          2.7480    0.0020   -4.5260 hc        1 06H      0.091700
     38 H6          5.7050   -0.2720   -1.3870 hc        1 06H      0.062700
     39 H7          4.8820    1.3280   -1.5850 hc        1 06H      0.062700
     40 H8          6.4340    0.1760   -3.7740 hc        1 06H      0.048533
     41 H9          5.3570    1.6310   -3.9100 hc        1 06H      0.048533
     42 H10         5.1860    0.2620   -5.0860 hc        1 06H      0.048533
     43 H11         4.2460   -1.9280   -4.3580 hc        1 06H      0.048533
     44 H12         3.7370   -2.1810   -2.6360 hc        1 06H      0.048533
     45 H13         5.4990   -2.0260   -3.0530 hc        1 06H      0.048533
     46 H14         6.1060   -1.4910    0.0750 ha        1 06H      0.189000
     47 H15         8.0980   -1.2900    1.4290 ha        1 06H      0.134000
     48 H16         3.8720    0.7540    3.0290 ha        1 06H      0.138000
     49 H17         6.4990    1.0600    5.4170 hn        1 06H      0.487800
     50 H18         3.9960   -0.3810    5.2900 h1        1 06H      0.086700
     51 H19         0.6110    2.1840    3.6480 hx        1 06H      0.116200
     52 H20         2.2490    1.8410    2.9500 hx        1 06H      0.116200
     53 H21         0.2900   -0.4110    3.8570 hc        1 06H      0.096200
     54 H22         0.1840    0.4060    2.2510 hc        1 06H      0.096200
     55 H23         1.4030   -1.8710    2.4540 hc        1 06H      0.063200
     56 H24         2.7790   -0.9890    3.2060 hc        1 06H      0.063200
     57 H25         1.3000    3.2250    5.7110 hx        1 06H      0.114367
     58 H26         1.6030    1.9780    7.0250 hx        1 06H      0.114367
     59 H27         0.1300    1.8260    5.9400 hx        1 06H      0.114367
     60 H28         5.2160   -0.0630    7.4800 hc        1 06H      0.085700
     61 H29         3.5490    0.6460    7.5290 hc        1 06H      0.085700
     62 H30         4.9970    1.7380    7.3730 hc        1 06H      0.085700
     63 H31         9.6290   -1.5980    3.1280 hn        1 06H      0.474133
     64 H32        10.4230   -0.4060    3.9910 hn        1 06H      0.474133
     65 H311        1.9340    0.3350    5.3200 hn        1 06H      0.448800
     66 H43         9.8520   -0.0890    2.4490 hn        1 06H      0.474133
@<TRIPOS>BOND
     1    1    2 1   
     2    1   33 1   
     3    1   34 1   
     4    1   35 1   
     5    2    3 2   
     6    2    6 1   
     7    3    4 1   
     8    3   27 1   
     9    4    5 1   
    10    4   14 1   
    11    5    6 2   
    12    5   11 1   
    13    6    7 1   
    14    7    8 2   
    15    7    9 1   
    16    9   10 1   
    17    9   36 1   
    18    9   37 1   
    19   10   11 1   
    20   10   12 1   
    21   10   13 1   
    22   11   38 1   
    23   11   39 1   
    24   12   40 1   
    25   12   41 1   
    26   12   42 1   
    27   13   43 1   
    28   13   44 1   
    29   13   45 1   
    30   14   15 ar  
    31   14   19 ar  
    32   15   16 ar  
    33   15   46 1   
    34   16   17 ar  
    35   16   47 1   
    36   17   18 ar  
    37   17   30 1   
    38   18   19 ar  
    39   18   20 1   
    40   19   48 1   
    41   20   21 1   
    42   20   49 1   
    43   21   22 1   
    44   21   29 1   
    45   21   50 1   
    46   22   23 2   
    47   22   24 1   
    48   24   25 1   
    49   24   28 1   
    50   24   65 1   
    51   25   26 1   
    52   25   51 1   
    53   25   52 1   
    54   26   27 1   
    55   26   53 1   
    56   26   54 1   
    57   27   55 1   
    58   27   56 1   
    59   28   57 1   
    60   28   58 1   
    61   28   59 1   
    62   29   60 1   
    63   29   61 1   
    64   29   62 1   
    65   30   31 2   
    66   30   32 1   
    67   32   63 1   
    68   32   64 1   
    69   32   66 1   
@<TRIPOS>SUBSTRUCTURE
     1 06H         1 TEMP              0 ****  ****    0 ROOT
