@<TRIPOS>MOLECULE
06H
   64    67     1     0     0
SMALL
bcc


@<TRIPOS>ATOM
      1 C1         -2.9800    3.3580    0.7690 c3        1 06H     -0.037800
      2 C2         -2.5300    1.9900    0.5030 cc        1 06H     -0.065300
      3 C3         -1.2680    1.4380    0.7900 cd        1 06H     -0.123600
      4 N1         -1.2860    0.0760    0.3970 na        1 06H      0.005800
      5 C4         -2.5310   -0.2160   -0.1490 cd        1 06H     -0.033600
      6 C5         -3.3240    0.9500   -0.0960 cc        1 06H     -0.244600
      7 C6         -4.6910    0.9610   -0.5770 c         1 06H      0.614700
      8 O1         -5.4700    1.9150   -0.4500 o         1 06H     -0.553100
      9 C7         -5.1150   -0.2950   -1.3020 c3        1 06H     -0.174400
     10 C8         -4.5100   -1.5840   -0.7440 c3        1 06H     -0.038000
     11 C9         -2.9770   -1.5070   -0.7160 c3        1 06H     -0.017100
     12 C10        -4.9150   -2.7420   -1.6480 c3        1 06H     -0.092100
     13 C11        -5.0420   -1.8410    0.6580 c3        1 06H     -0.092100
     14 C12        -0.1850   -0.8080    0.4950 ca        1 06H      0.014800
     15 C13        -0.2340   -1.9530    1.3150 ca        1 06H     -0.132000
     16 C14         0.8890   -2.7640    1.4220 ca        1 06H     -0.081000
     17 C15         2.0850   -2.4440    0.7710 ca        1 06H     -0.106600
     18 C16         2.1530   -1.3020   -0.0530 ca        1 06H      0.102600
     19 C17         0.9890   -0.5280   -0.2240 ca        1 06H     -0.165000
     20 N2          3.3840   -0.9690   -0.7050 nh        1 06H     -0.705600
     21 C18         3.9260    0.3370   -0.3360 c3        1 06H      0.115500
     22 C19         3.0320    1.5030   -0.8300 c         1 06H      0.622100
     23 O2          2.6730    1.5260   -2.0260 o         1 06H     -0.606100
     24 N3          2.5860    2.4620    0.0640 n         1 06H     -0.480800
     25 C20         1.3870    3.2140   -0.2400 c3        1 06H      0.091000
     26 C21         0.3800    3.3530    0.9020 c3        1 06H     -0.093400
     27 C22        -0.1340    2.0630    1.5100 c3        1 06H     -0.007100
     28 C23         3.2530    2.7070    1.3080 c3        1 06H      0.085300
     29 C24         5.3210    0.5570   -0.9170 c3        1 06H     -0.094100
     30 C25         3.2310   -3.3880    0.9430 c         1 06H      0.672700
     31 O3          3.0770   -4.6170    0.7880 o         1 06H     -0.606100
     32 N4          4.4410   -2.8890    1.3690 n         1 06H     -0.641000
     33 H1         -2.6830    4.0380   -0.0710 hc        1 06H      0.051367
     34 H2         -4.0970    3.3860    0.8560 hc        1 06H      0.051367
     35 H3         -2.5290    3.7490    1.7160 hc        1 06H      0.051367
     36 H4         -6.2340   -0.3730   -1.2770 hc        1 06H      0.072200
     37 H5         -4.8040   -0.1760   -2.3750 hc        1 06H      0.072200
     38 H6         -2.5820   -1.5980   -1.7660 hc        1 06H      0.062700
     39 H7         -2.5700   -2.3700   -0.1260 hc        1 06H      0.062700
     40 H8         -4.5600   -2.5680   -2.6920 hc        1 06H      0.040700
     41 H9         -4.4710   -3.6950   -1.2740 hc        1 06H      0.040700
     42 H10        -6.0260   -2.8460   -1.6630 hc        1 06H      0.040700
     43 H11        -6.1570   -1.9060    0.6420 hc        1 06H      0.040700
     44 H12        -4.6360   -2.8010    1.0580 hc        1 06H      0.040700
     45 H13        -4.7420   -1.0100    1.3420 hc        1 06H      0.040700
     46 H14        -1.1510   -2.2090    1.8690 ha        1 06H      0.154000
     47 H15         0.8470   -3.6830    2.0320 ha        1 06H      0.162000
     48 H16         0.9860    0.3190   -0.9350 ha        1 06H      0.171000
     49 H17         3.2760   -1.0330   -1.7040 hn        1 06H      0.401800
     50 H18         3.9950    0.3480    0.7920 h1        1 06H      0.069700
     51 H19         1.6900    4.2550   -0.5550 h1        1 06H      0.062700
     52 H20         0.8770    2.7250   -1.1210 h1        1 06H      0.062700
     53 H21         0.8440    3.9600    1.7260 hc        1 06H      0.054200
     54 H22        -0.4850    3.9460    0.4960 hc        1 06H      0.054200
     55 H23        -0.5030    2.2980    2.5500 hc        1 06H      0.054700
     56 H24         0.7130    1.3340    1.6250 hc        1 06H      0.054700
     57 H25         4.3540    2.5080    1.2080 h1        1 06H      0.039700
     58 H26         3.1130    3.7820    1.6020 h1        1 06H      0.039700
     59 H27         2.8380    2.0570    2.1270 h1        1 06H      0.039700
     60 H28         5.2790    0.6100   -2.0330 hc        1 06H      0.054367
     61 H29         5.7260    1.5220   -0.5270 hc        1 06H      0.054367
     62 H30         6.0070   -0.2710   -0.6190 hc        1 06H      0.054367
     63 H31         4.6310   -1.9210    1.2960 hn        1 06H      0.307000
     64 H32         5.2170   -3.5070    1.3710 hn        1 06H      0.307000
@<TRIPOS>BOND
     1    1    2 1   
     2    1   33 1   
     3    1   34 1   
     4    1   35 1   
     5    2    3 2   
     6    2    6 1   
     7    3    4 1   
     8    3   27 1   
     9    4    5 1   
    10    4   14 1   
    11    5    6 2   
    12    5   11 1   
    13    6    7 1   
    14    7    8 2   
    15    7    9 1   
    16    9   10 1   
    17    9   36 1   
    18    9   37 1   
    19   10   11 1   
    20   10   12 1   
    21   10   13 1   
    22   11   38 1   
    23   11   39 1   
    24   12   40 1   
    25   12   41 1   
    26   12   42 1   
    27   13   43 1   
    28   13   44 1   
    29   13   45 1   
    30   14   15 ar  
    31   14   19 ar  
    32   15   16 ar  
    33   15   46 1   
    34   16   17 ar  
    35   16   47 1   
    36   17   18 ar  
    37   17   30 1   
    38   18   19 ar  
    39   18   20 1   
    40   19   48 1   
    41   20   21 1   
    42   20   49 1   
    43   21   22 1   
    44   21   29 1   
    45   21   50 1   
    46   22   23 2   
    47   22   24 1   
    48   24   25 1   
    49   24   28 1   
    50   25   26 1   
    51   25   51 1   
    52   25   52 1   
    53   26   27 1   
    54   26   53 1   
    55   26   54 1   
    56   27   55 1   
    57   27   56 1   
    58   28   57 1   
    59   28   58 1   
    60   28   59 1   
    61   29   60 1   
    62   29   61 1   
    63   29   62 1   
    64   30   31 2   
    65   30   32 1   
    66   32   63 1   
    67   32   64 1   
@<TRIPOS>SUBSTRUCTURE
     1 06H         1 TEMP              0 ****  ****    0 ROOT
