@<TRIPOS>MOLECULE
06J
   66    63     1     0     0
SMALL
bcc


@<TRIPOS>ATOM
      1 C1         -3.9610   -0.4380   -1.9730 c3        1 06J     -0.164000
      2 C2         -2.4310   -0.4380   -1.9730 c2        1 06J     -0.057000
      3 C3         -1.5920   -0.4380   -0.8190 c1        1 06J     -0.092000
      4 N1         -0.2560   -0.3820   -1.2530 n3        1 06J     -0.081000
      5 C4         -0.2570   -0.3490   -2.6410 c1        1 06J     -0.005000
      6 C5         -1.6240   -0.3840   -3.0860 c1        1 06J     -0.222000
      7 C6         -1.9030   -0.5520   -4.6390 c1        1 06J      0.305000
      8 O1         -3.0350   -0.4340   -5.0710 o         1 06J     -0.314000
      9 C7         -0.7590   -0.4980   -5.5540 c3        1 06J     -0.203000
     10 C8          0.4430   -1.1210   -4.9820 c3        1 06J     -0.039000
     11 C9          0.8640   -0.6630   -3.6820 c2        1 06J     -0.102000
     12 C10         0.1440   -2.6190   -4.8450 c3        1 06J     -0.210000
     13 C11         1.5980   -0.8200   -5.9510 c3        1 06J     -0.210000
     14 C12         0.9560   -0.2560   -0.3680 c1        1 06J      0.103000
     15 C13         2.0820   -1.0320   -0.6200 c1        1 06J     -0.125500
     16 C14         3.1780   -0.9810    0.2490 c1        1 06J     -0.125500
     17 C15         3.1420   -0.1540    1.3650 c1        1 06J     -0.197000
     18 C16         2.0070    0.6290    1.6200 c1        1 06J      0.140000
     19 C17         0.9180    0.5770    0.7550 c1        1 06J     -0.216000
     20 N2          1.9160    1.4180    2.8860 n3        1 06J     -0.286000
     21 C18         0.5500    1.9750    3.0320 c3        1 06J     -0.046000
     22 C19        -0.2040    1.1380    3.7940 c3        1 06J     -0.063000
     23 C20         0.1620    1.2980    5.2830 c3        1 06J     -0.178000
     24 C21        -0.8510    1.9350    5.8170 c3        1 06J     -0.179000
     25 C22        -2.1420    1.5720    4.9130 c3        1 06J     -0.080000
     26 N3         -1.7250    1.5240    3.6860 n3        1 06J     -0.244000
     27 C23        -2.4550    0.4520    2.9570 c3        1 06J     -0.070000
     28 C24        -2.3140    0.6890    1.3920 c3        1 06J     -0.160000
     29 C25        -2.0700   -0.6820    0.6730 c2        1 06J     -0.099000
     30 C26         4.3690   -0.0360    2.2720 c1        1 06J      0.358000
     31 O2          4.3490    0.7190    3.2260 o         1 06J     -0.394000
     32 N4          5.5550   -0.7780    1.9720 n2        1 06J     -0.427000
     33 H1         -4.2860   -0.8290   -1.1400 hc        1 06J      0.091000
     34 H2         -4.2860   -0.9640   -2.7290 hc        1 06J      0.091000
     35 H3         -4.2860    0.4790   -2.0510 hc        1 06J      0.091000
     36 H4         -0.9120   -0.7480   -6.4850 hc        1 06J      0.110500
     37 H5         -0.5720    0.4540   -5.6690 hc        1 06J      0.110500
     38 H6          1.3920    0.1490   -3.8080 ha        1 06J      0.100000
     39 H7          1.4470   -1.3450   -3.2980 ha        1 06J      0.100000
     40 H8          0.9660   -3.0950   -4.6220 hc        1 06J      0.079333
     41 H9         -0.5140   -2.7560   -4.1370 hc        1 06J      0.079333
     42 H10        -0.2100   -2.9590   -5.6890 hc        1 06J      0.079333
     43 H11         1.3960   -1.2000   -6.8270 hc        1 06J      0.079333
     44 H12         1.7100    0.1460   -6.0340 hc        1 06J      0.079333
     45 H13         2.4220   -1.2150   -5.6070 hc        1 06J      0.079333
     46 H14         2.1080   -1.6130   -1.4040 ha        1 06J      0.143500
     47 H15         3.9680   -1.5260    0.0710 ha        1 06J      0.143500
     48 H16         0.1280    1.1220    0.9320 ha        1 06J      0.166000
     49 H17         2.5220    2.0990    2.8650 hn        1 06J      0.231000
     50 H18         0.1420    2.0700    2.1510 h1        1 06J      0.106500
     51 H19         0.6010    2.8500    3.4630 h1        1 06J      0.106500
     52 H20        -0.0710    0.2130    3.5120 h1        1 06J      0.097000
     53 H21         0.9800    1.8220    5.3760 hc        1 06J      0.092500
     54 H22         0.2710    0.4220    5.7010 hc        1 06J      0.092500
     55 H23        -0.9890    1.6340    6.7360 hc        1 06J      0.088000
     56 H24        -0.6880    2.8970    5.8000 hc        1 06J      0.088000
     57 H25        -2.8230    2.2650    5.0080 h1        1 06J      0.087500
     58 H26        -2.5050    0.7060    5.1790 h1        1 06J      0.087500
     59 H28        -2.0760   -0.4170    3.1900 h1        1 06J      0.073500
     60 H29        -3.3990    0.4740    3.2050 h1        1 06J      0.073500
     61 H30        -3.1330    1.0950    1.0490 hc        1 06J      0.095500
     62 H31        -1.5600    1.2850    1.2200 hc        1 06J      0.095500
     63 H32        -1.3850   -1.1820    1.1540 ha        1 06J      0.095500
     64 H33        -2.9000   -1.1950    0.6660 ha        1 06J      0.095500
     65 H34         5.6790   -1.6060    2.3340 hn        1 06J      0.228000
     66 H35         6.2060   -0.4060    1.4520 hn        1 06J      0.228000
@<TRIPOS>BOND
     1    1    2 1   
     2    1   33 1   
     3    1   34 1   
     4    1   35 1   
     5    2    3 1   
     6    2    6 1   
     7    3    4 1   
     8    4    5 1   
     9    4   14 1   
    10    5    6 1   
    11    7    8 1   
    12    7    9 1   
    13    9   10 1   
    14    9   36 1   
    15    9   37 1   
    16   10   11 1   
    17   10   12 1   
    18   10   13 1   
    19   11   38 1   
    20   11   39 1   
    21   12   40 1   
    22   12   41 1   
    23   12   42 1   
    24   13   43 1   
    25   13   44 1   
    26   13   45 1   
    27   14   19 1   
    28   15   16 1   
    29   15   46 1   
    30   16   47 1   
    31   17   18 1   
    32   17   30 1   
    33   18   20 1   
    34   19   48 1   
    35   20   21 1   
    36   20   49 1   
    37   21   22 1   
    38   21   50 1   
    39   21   51 1   
    40   22   23 1   
    41   22   26 1   
    42   22   52 1   
    43   23   24 1   
    44   23   53 1   
    45   23   54 1   
    46   24   25 1   
    47   24   55 1   
    48   24   56 1   
    49   25   26 1   
    50   25   57 1   
    51   25   58 1   
    52   26   27 1   
    53   27   28 1   
    54   27   59 1   
    55   27   60 1   
    56   28   29 1   
    57   28   61 1   
    58   28   62 1   
    59   29   63 1   
    60   29   64 1   
    61   30   31 1   
    62   32   65 1   
    63   32   66 1   
@<TRIPOS>SUBSTRUCTURE
     1 06J         1 TEMP              0 ****  ****    0 ROOT
