@<TRIPOS>MOLECULE
06J
   66    70     1     0     0
SMALL
bcc


@<TRIPOS>ATOM
      1 C1         -2.4660    3.6290    0.7230 c3        1 06J     -0.038800
      2 C2         -2.2660    2.1990    0.4780 cc        1 06J     -0.064300
      3 C3         -1.0510    1.5000    0.5760 cd        1 06J     -0.123600
      4 N1         -1.2980    0.1350    0.2790 na        1 06J      0.012800
      5 C4         -2.6480   -0.0130   -0.0260 cd        1 06J     -0.036600
      6 C5         -3.2740    1.2480    0.0930 cc        1 06J     -0.242600
      7 C6         -4.6910    1.4220   -0.1570 c         1 06J      0.614700
      8 O1         -5.3130    2.4750    0.0420 o         1 06J     -0.553100
      9 C7         -5.3870    0.2120   -0.7330 c3        1 06J     -0.174400
     10 C8         -4.8550   -1.1260   -0.2230 c3        1 06J     -0.039000
     11 C9         -3.3440   -1.2430   -0.4620 c3        1 06J     -0.016100
     12 C10        -5.1590   -1.2740    1.2610 c3        1 06J     -0.092100
     13 C11        -5.5490   -2.2480   -0.9850 c3        1 06J     -0.092100
     14 C12        -0.3050   -0.8720    0.2620 ca        1 06J      0.057800
     15 C13        -0.4720   -2.0870    0.9600 ca        1 06J     -0.192000
     16 C14         0.5560   -3.0200    0.9480 ca        1 06J     -0.059000
     17 C15         1.7720   -2.7720    0.3060 ca        1 06J     -0.217600
     18 C16         1.9750   -1.5420   -0.3750 ca        1 06J      0.221600
     19 C17         0.8910   -0.6320   -0.4270 ca        1 06J     -0.216000
     20 N2          3.1720   -1.2520   -1.0300 nh        1 06J     -0.730600
     21 C18         3.4870    0.1190   -1.3540 c3        1 06J      0.190800
     22 C19         3.5970    1.0770   -0.1310 c3        1 06J      0.134500
     23 C20         4.9900    0.9380    0.5240 c3        1 06J     -0.099400
     24 C21         5.7320    2.2290    0.2070 c3        1 06J     -0.100400
     25 C22         4.7150    3.1330   -0.5090 c3        1 06J      0.156800
     26 N3          3.4030    2.4790   -0.5460 n3        1 06J     -0.718600
     27 C23         2.3850    3.1980    0.2100 c3        1 06J      0.166800
     28 C24         0.9410    2.8210   -0.1390 c3        1 06J     -0.081400
     29 C25         0.2670    2.0440    0.9790 c3        1 06J     -0.013100
     30 C26         2.8630   -3.7820    0.3820 c         1 06J      0.684700
     31 O2          4.0480   -3.4770    0.6430 o         1 06J     -0.633100
     32 N4          2.5360   -5.0980    0.1650 n         1 06J     -0.667000
     33 H1         -1.9880    4.2340   -0.0890 hc        1 06J      0.051700
     34 H2         -3.5590    3.8720    0.7510 hc        1 06J      0.051700
     35 H3         -2.0030    3.9300    1.6970 hc        1 06J      0.051700
     36 H4         -6.4850    0.2810   -0.5120 hc        1 06J      0.071200
     37 H5         -5.2600    0.2590   -1.8490 hc        1 06J      0.071200
     38 H6         -3.1540   -1.3920   -1.5610 hc        1 06J      0.060700
     39 H7         -2.9540   -2.1500    0.0720 hc        1 06J      0.060700
     40 H8         -6.2590   -1.2000    1.4390 hc        1 06J      0.040033
     41 H9         -4.8050   -2.2640    1.6330 hc        1 06J      0.040033
     42 H10        -4.6470   -0.4670    1.8400 hc        1 06J      0.040033
     43 H11        -5.3610   -2.1540   -2.0810 hc        1 06J      0.040033
     44 H12        -5.1680   -3.2400   -0.6410 hc        1 06J      0.040033
     45 H13        -6.6500   -2.2080   -0.8080 hc        1 06J      0.040033
     46 H14        -1.3930   -2.2920    1.5260 ha        1 06J      0.149000
     47 H15         0.4140   -3.9660    1.4950 ha        1 06J      0.138000
     48 H16         0.9950    0.3020   -1.0040 ha        1 06J      0.166000
     49 H17         3.9580   -1.7820   -0.7000 hn        1 06J      0.435800
     50 H18         4.4710    0.1120   -1.9030 h1        1 06J      0.067200
     51 H19         2.7080    0.5060   -2.0710 h1        1 06J      0.067200
     52 H20         2.8050    0.7860    0.6180 h1        1 06J      0.057700
     53 H21         4.8790    0.8040    1.6280 hc        1 06J      0.053200
     54 H22         5.5350    0.0460    0.1310 hc        1 06J      0.053200
     55 H23         6.1050    2.7170    1.1400 hc        1 06J      0.048700
     56 H24         6.6120    2.0370   -0.4520 hc        1 06J      0.048700
     57 H25         4.6740    4.1400   -0.0130 h1        1 06J      0.048200
     58 H26         5.0260    3.2910   -1.5780 h1        1 06J      0.048200
     59 H28         2.5340    3.0870    1.3250 h1        1 06J      0.034200
     60 H29         2.5120    4.2930   -0.0330 h1        1 06J      0.034200
     61 H30         0.3620    3.7690   -0.3090 hc        1 06J      0.056200
     62 H31         0.8960    2.2500   -1.1020 hc        1 06J      0.056200
     63 H32         0.0970    2.7350    1.8530 hc        1 06J      0.056200
     64 H33         0.9420    1.2220    1.3380 hc        1 06J      0.056200
     65 H34         1.6250   -5.3560   -0.1120 hn        1 06J      0.314500
     66 H35         3.2470   -5.7850    0.1860 hn        1 06J      0.314500
@<TRIPOS>BOND
     1    1    2 1   
     2    1   33 1   
     3    1   34 1   
     4    1   35 1   
     5    2    3 2   
     6    2    6 1   
     7    3    4 1   
     8    3   29 1   
     9    4    5 1   
    10    4   14 1   
    11    5    6 2   
    12    5   11 1   
    13    6    7 1   
    14    7    8 2   
    15    7    9 1   
    16    9   10 1   
    17    9   36 1   
    18    9   37 1   
    19   10   11 1   
    20   10   12 1   
    21   10   13 1   
    22   11   38 1   
    23   11   39 1   
    24   12   40 1   
    25   12   41 1   
    26   12   42 1   
    27   13   43 1   
    28   13   44 1   
    29   13   45 1   
    30   14   15 ar  
    31   14   19 ar  
    32   15   16 ar  
    33   15   46 1   
    34   16   17 ar  
    35   16   47 1   
    36   17   18 ar  
    37   17   30 1   
    38   18   19 ar  
    39   18   20 1   
    40   19   48 1   
    41   20   21 1   
    42   20   49 1   
    43   21   22 1   
    44   21   50 1   
    45   21   51 1   
    46   22   23 1   
    47   22   26 1   
    48   22   52 1   
    49   23   24 1   
    50   23   53 1   
    51   23   54 1   
    52   24   25 1   
    53   24   55 1   
    54   24   56 1   
    55   25   26 1   
    56   25   57 1   
    57   25   58 1   
    58   26   27 1   
    59   27   28 1   
    60   27   59 1   
    61   27   60 1   
    62   28   29 1   
    63   28   61 1   
    64   28   62 1   
    65   29   63 1   
    66   29   64 1   
    67   30   31 2   
    68   30   32 1   
    69   32   65 1   
    70   32   66 1   
@<TRIPOS>SUBSTRUCTURE
     1 06J         1 TEMP              0 ****  ****    0 ROOT
