@<TRIPOS>MOLECULE
06J
   67    71     1     0     0
SMALL
bcc


@<TRIPOS>ATOM
      1 C1         -0.0270   -0.2790   -0.0090 c3        1 06J     -0.049800
      2 C2          1.4360   -0.2100    0.0040 cc        1 06J     -0.041300
      3 C3          2.2530   -0.0950    1.1360 cd        1 06J     -0.126600
      4 N1          3.6140   -0.0880    0.7100 na        1 06J     -0.019200
      5 C4          3.6310   -0.1670   -0.6930 cd        1 06J     -0.036600
      6 C5          2.3050   -0.2460   -1.1480 cc        1 06J     -0.211600
      7 C6          1.9800   -0.3360   -2.5650 c         1 06J      0.606700
      8 O1          0.8410   -0.5450   -2.9970 o         1 06J     -0.521100
      9 C7          3.1450   -0.1160   -3.4960 c3        1 06J     -0.176400
     10 C8          4.4770   -0.6540   -2.9750 c3        1 06J     -0.039000
     11 C9          4.8020   -0.0710   -1.5920 c3        1 06J     -0.019100
     12 C10         4.4310   -2.1730   -2.9020 c3        1 06J     -0.094100
     13 C11         5.5800   -0.2350   -3.9400 c3        1 06J     -0.094100
     14 C12         4.7190   -0.0080    1.5630 ca        1 06J      0.149800
     15 C13         5.8670   -0.8540    1.3760 ca        1 06J     -0.176000
     16 C14         6.9260   -0.7590    2.2300 ca        1 06J     -0.058000
     17 C15         6.9480    0.1280    3.3450 ca        1 06J     -0.332600
     18 C16         5.7780    0.9300    3.5970 ca        1 06J      0.331600
     19 C17         4.7150    0.8700    2.6370 ca        1 06J     -0.260000
     20 N2          5.6530    1.7410    4.6800 nh        1 06J     -0.717600
     21 C18         4.4410    2.4670    4.9900 c3        1 06J      0.191800
     22 C19         3.2670    1.5570    5.4620 c3        1 06J      0.150500
     23 C20         3.3860    1.2940    6.9800 c3        1 06J     -0.100400
     24 C21         2.2870    2.1210    7.6310 c3        1 06J     -0.102400
     25 C22         1.4650    2.7150    6.4750 c3        1 06J      0.154800
     26 N3          1.9800    2.2200    5.1930 n3        1 06J     -0.724600
     27 C23         1.0190    1.4080    4.4560 c3        1 06J      0.163800
     28 C24         1.2850    1.3090    2.9510 c3        1 06J     -0.085400
     29 C25         1.8050   -0.0610    2.5480 c3        1 06J     -0.017100
     30 C26         8.0800    0.2230    4.2100 c         1 06J      0.580700
     31 O2          8.2630    0.8350    5.2640 o         1 06J     -0.508100
     32 N4          9.3420   -0.5410    3.8020 n4        1 06J     -0.757400
     33 H1         -0.4650    0.7150    0.2660 hc        1 06J      0.062367
     34 H2         -0.3980   -0.5590   -1.0280 hc        1 06J      0.062367
     35 H3         -0.3920   -1.0370    0.7290 hc        1 06J      0.062367
     36 H4          3.2310    0.9930   -3.6640 hc        1 06J      0.081200
     37 H5          2.9170   -0.5920   -4.4870 hc        1 06J      0.081200
     38 H6          5.7000   -0.5980   -1.1790 hc        1 06J      0.057200
     39 H7          5.0730    1.0160   -1.7060 hc        1 06J      0.057200
     40 H8          5.4130   -2.5750   -2.5550 hc        1 06J      0.043367
     41 H9          3.6340   -2.5030   -2.1930 hc        1 06J      0.043367
     42 H10         4.2100   -2.6000   -3.9100 hc        1 06J      0.043367
     43 H11         5.3840   -0.6640   -4.9530 hc        1 06J      0.043367
     44 H12         5.6270    0.8760   -4.0280 hc        1 06J      0.043367
     45 H13         6.5690   -0.6090   -3.5810 hc        1 06J      0.043367
     46 H14         5.8710   -1.5970    0.5620 ha        1 06J      0.172000
     47 H15         7.7790   -1.4310    2.0410 ha        1 06J      0.113000
     48 H16         3.8490    1.5480    2.7680 ha        1 06J      0.191000
     49 H17         6.3660    1.7470    5.3780 hn        1 06J      0.463800
     50 H18         4.6920    3.1990    5.8110 h1        1 06J      0.084200
     51 H19         4.1300    3.0690    4.0880 h1        1 06J      0.084200
     52 H20         3.3240    0.5770    4.9060 h1        1 06J      0.053700
     53 H21         3.2370    0.2050    7.1880 hc        1 06J      0.050200
     54 H22         4.3940    1.5770    7.3670 hc        1 06J      0.050200
     55 H23         2.7150    2.9380    8.2620 hc        1 06J      0.059700
     56 H24         1.6430    1.4880    8.2890 hc        1 06J      0.059700
     57 H25         1.5760    3.8340    6.4550 h1        1 06J      0.059700
     58 H26         0.3750    2.4810    6.6120 h1        1 06J      0.059700
     59 H28         0.0110    1.9020    4.5820 h1        1 06J      0.045200
     60 H29         0.9330    0.3660    4.8840 h1        1 06J      0.045200
     61 H30         1.9810    2.1180    2.6090 hc        1 06J      0.060700
     62 H31         0.3140    1.4870    2.4130 hc        1 06J      0.060700
     63 H32         0.9710   -0.8110    2.6560 hc        1 06J      0.056700
     64 H33         2.6250   -0.3900    3.2400 hc        1 06J      0.056700
     65 H34        10.0950   -0.3200    4.4650 hn        1 06J      0.460800
     66 H35         9.6260   -0.2670    2.8590 hn        1 06J      0.460800
     67 H43         9.1630   -1.5470    3.8200 hn        1 06J      0.460800
@<TRIPOS>BOND
     1    1    2 1   
     2    1   33 1   
     3    1   34 1   
     4    1   35 1   
     5    2    3 2   
     6    2    6 1   
     7    3    4 1   
     8    3   29 1   
     9    4    5 1   
    10    4   14 1   
    11    5    6 2   
    12    5   11 1   
    13    6    7 1   
    14    7    8 2   
    15    7    9 1   
    16    9   10 1   
    17    9   36 1   
    18    9   37 1   
    19   10   11 1   
    20   10   12 1   
    21   10   13 1   
    22   11   38 1   
    23   11   39 1   
    24   12   40 1   
    25   12   41 1   
    26   12   42 1   
    27   13   43 1   
    28   13   44 1   
    29   13   45 1   
    30   14   15 ar  
    31   14   19 ar  
    32   15   16 ar  
    33   15   46 1   
    34   16   17 ar  
    35   16   47 1   
    36   17   18 ar  
    37   17   30 1   
    38   18   19 ar  
    39   18   20 1   
    40   19   48 1   
    41   20   21 1   
    42   20   49 1   
    43   21   22 1   
    44   21   50 1   
    45   21   51 1   
    46   22   23 1   
    47   22   26 1   
    48   22   52 1   
    49   23   24 1   
    50   23   53 1   
    51   23   54 1   
    52   24   25 1   
    53   24   55 1   
    54   24   56 1   
    55   25   26 1   
    56   25   57 1   
    57   25   58 1   
    58   26   27 1   
    59   27   28 1   
    60   27   59 1   
    61   27   60 1   
    62   28   29 1   
    63   28   61 1   
    64   28   62 1   
    65   29   63 1   
    66   29   64 1   
    67   30   31 2   
    68   30   32 1   
    69   32   65 1   
    70   32   66 1   
    71   32   67 1   
@<TRIPOS>SUBSTRUCTURE
     1 06J         1 TEMP              0 ****  ****    0 ROOT
