@<TRIPOS>MOLECULE
06J
   67    71     1     0     0
SMALL
bcc


@<TRIPOS>ATOM
      1 C1         -0.0260   -0.2790   -0.0090 c3        1 06J     -0.049800
      2 C2          1.4370   -0.2100    0.0040 cc        1 06J     -0.041300
      3 C3          2.2530   -0.0960    1.1370 cd        1 06J     -0.126600
      4 N1          3.6140   -0.0890    0.7100 na        1 06J     -0.019200
      5 C4          3.6320   -0.1690   -0.6930 cd        1 06J     -0.036600
      6 C5          2.3060   -0.2470   -1.1480 cc        1 06J     -0.211600
      7 C6          1.9800   -0.3390   -2.5650 c         1 06J      0.606700
      8 O1          0.8420   -0.5480   -2.9970 o         1 06J     -0.521100
      9 C7          3.1460   -0.1200   -3.4960 c3        1 06J     -0.176400
     10 C8          4.4770   -0.6580   -2.9740 c3        1 06J     -0.039000
     11 C9          4.8030   -0.0740   -1.5920 c3        1 06J     -0.019100
     12 C10         4.4310   -2.1780   -2.8990 c3        1 06J     -0.094100
     13 C11         5.5810   -0.2420   -3.9390 c3        1 06J     -0.094100
     14 C12         4.7190   -0.0080    1.5640 ca        1 06J      0.149800
     15 C13         5.8670   -0.8550    1.3780 ca        1 06J     -0.176000
     16 C14         6.9260   -0.7590    2.2310 ca        1 06J     -0.058000
     17 C15         6.9480    0.1290    3.3460 ca        1 06J     -0.332600
     18 C16         5.7780    0.9310    3.5970 ca        1 06J      0.331600
     19 C17         4.7150    0.8710    2.6360 ca        1 06J     -0.260000
     20 N2          5.6530    1.7430    4.6790 nu        1 06J     -0.717600
     21 C18         4.4410    2.4700    4.9890 c3        1 06J      0.191800
     22 C19         3.2660    1.5590    5.4610 c3        1 06J      0.150500
     23 C20         3.3860    1.2980    6.9790 c3        1 06J     -0.100400
     24 C21         2.2870    2.1260    7.6300 c3        1 06J     -0.102400
     25 C22         1.4650    2.7180    6.4730 c3        1 06J      0.154800
     26 N3          1.9800    2.2220    5.1910 n3        1 06J     -0.724600
     27 C23         1.0180    1.4100    4.4550 c3        1 06J      0.163800
     28 C24         1.2850    1.3110    2.9500 c3        1 06J     -0.085400
     29 C25         1.8050   -0.0600    2.5480 c3        1 06J     -0.017100
     30 C26         8.0800    0.2240    4.2110 c         1 06J      0.580700
     31 O2          8.2620    0.8370    5.2650 o         1 06J     -0.508100
     32 N4          9.3420   -0.5390    3.8030 nz        1 06J     -0.757400
     33 H1         -0.4650    0.7160    0.2640 hc        1 06J      0.062367
     34 H2         -0.3970   -0.5600   -1.0280 hc        1 06J      0.062367
     35 H3         -0.3920   -1.0360    0.7300 hc        1 06J      0.062367
     36 H4          3.2320    0.9880   -3.6650 hc        1 06J      0.081200
     37 H5          2.9180   -0.5970   -4.4860 hc        1 06J      0.081200
     38 H6          5.7000   -0.6020   -1.1780 hc        1 06J      0.057200
     39 H7          5.0740    1.0130   -1.7070 hc        1 06J      0.057200
     40 H8          4.2100   -2.6060   -3.9070 hc        1 06J      0.043367
     41 H9          3.6330   -2.5060   -2.1900 hc        1 06J      0.043367
     42 H10         5.4120   -2.5800   -2.5510 hc        1 06J      0.043367
     43 H11         6.5690   -0.6150   -3.5800 hc        1 06J      0.043367
     44 H12         5.6280    0.8700   -4.0280 hc        1 06J      0.043367
     45 H13         5.3850   -0.6710   -4.9520 hc        1 06J      0.043367
     46 H14         5.8710   -1.5990    0.5640 ha        1 06J      0.172000
     47 H15         7.7790   -1.4310    2.0430 ha        1 06J      0.113000
     48 H16         3.8490    1.5480    2.7670 ha        1 06J      0.191000
     49 H17         6.3660    1.7490    5.3780 hn        1 06J      0.463800
     50 H18         4.6920    3.2020    5.8090 h1        1 06J      0.084200
     51 H19         4.1300    3.0710    4.0860 h1        1 06J      0.084200
     52 H20         3.3230    0.5800    4.9050 h1        1 06J      0.053700
     53 H21         3.2360    0.2090    7.1880 hc        1 06J      0.050200
     54 H22         4.3940    1.5810    7.3660 hc        1 06J      0.050200
     55 H23         1.6430    1.4940    8.2890 hc        1 06J      0.059700
     56 H24         2.7160    2.9440    8.2590 hc        1 06J      0.059700
     57 H25         0.3750    2.4840    6.6110 h1        1 06J      0.059700
     58 H26         1.5750    3.8380    6.4520 h1        1 06J      0.059700
     59 H28         0.0110    1.9050    4.5800 h1        1 06J      0.045200
     60 H29         0.9320    0.3690    4.8840 h1        1 06J      0.045200
     61 H30         1.9810    2.1190    2.6080 hc        1 06J      0.060700
     62 H31         0.3150    1.4880    2.4120 hc        1 06J      0.060700
     63 H32         2.6250   -0.3880    3.2400 hc        1 06J      0.056700
     64 H33         0.9710   -0.8100    2.6570 hc        1 06J      0.056700
     65 H34         9.6250   -0.2660    2.8600 hn        1 06J      0.460800
     66 H35        10.0950   -0.3170    4.4650 hn        1 06J      0.460800
     67 H43         9.1630   -1.5450    3.8210 hn        1 06J      0.460800
@<TRIPOS>BOND
     1    1    2 1   
     2    1   33 1   
     3    1   34 1   
     4    1   35 1   
     5    2    3 2   
     6    2    6 1   
     7    3    4 1   
     8    3   29 1   
     9    4    5 1   
    10    4   14 1   
    11    5    6 2   
    12    5   11 1   
    13    6    7 1   
    14    7    8 2   
    15    7    9 1   
    16    9   10 1   
    17    9   36 1   
    18    9   37 1   
    19   10   11 1   
    20   10   12 1   
    21   10   13 1   
    22   11   38 1   
    23   11   39 1   
    24   12   40 1   
    25   12   41 1   
    26   12   42 1   
    27   13   43 1   
    28   13   44 1   
    29   13   45 1   
    30   14   15 ar  
    31   14   19 ar  
    32   15   16 ar  
    33   15   46 1   
    34   16   17 ar  
    35   16   47 1   
    36   17   18 ar  
    37   17   30 1   
    38   18   19 ar  
    39   18   20 1   
    40   19   48 1   
    41   20   21 1   
    42   20   49 1   
    43   21   22 1   
    44   21   50 1   
    45   21   51 1   
    46   22   23 1   
    47   22   26 1   
    48   22   52 1   
    49   23   24 1   
    50   23   53 1   
    51   23   54 1   
    52   24   25 1   
    53   24   55 1   
    54   24   56 1   
    55   25   26 1   
    56   25   57 1   
    57   25   58 1   
    58   26   27 1   
    59   27   28 1   
    60   27   59 1   
    61   27   60 1   
    62   28   29 1   
    63   28   61 1   
    64   28   62 1   
    65   29   63 1   
    66   29   64 1   
    67   30   31 2   
    68   30   32 1   
    69   32   65 1   
    70   32   66 1   
    71   32   67 1   
@<TRIPOS>SUBSTRUCTURE
     1 06J         1 TEMP              0 ****  ****    0 ROOT
