@<TRIPOS>MOLECULE
06J
   68    72     1     0     0
SMALL
bcc


@<TRIPOS>ATOM
      1 C1          0.0030   -0.1290   -0.0240 c3        1 06J     -0.067800
      2 C2          1.4670   -0.1230    0.0020 cc        1 06J      0.009700
      3 C3          2.2830   -0.0290    1.1260 cd        1 06J     -0.154600
      4 N1          3.6590   -0.0880    0.7000 na        1 06J     -0.013200
      5 C4          3.6580   -0.2050   -0.7240 cd        1 06J     -0.034600
      6 C5          2.3370   -0.2180   -1.1610 cc        1 06J     -0.168600
      7 C6          1.9790   -0.3060   -2.5810 c         1 06J      0.596700
      8 O1          0.8230   -0.4820   -2.9670 o         1 06J     -0.480100
      9 C7          3.1340   -0.1280   -3.5270 c3        1 06J     -0.178400
     10 C8          4.4490   -0.7200   -3.0250 c3        1 06J     -0.038000
     11 C9          4.8200   -0.1600   -1.6410 c3        1 06J     -0.027100
     12 C10         4.3460   -2.2370   -2.9610 c3        1 06J     -0.098600
     13 C11         5.5560   -0.3370   -4.0000 c3        1 06J     -0.098600
     14 C12         4.7480   -0.0100    1.5270 ca        1 06J      0.182800
     15 C13         5.9440   -0.7550    1.3170 ca        1 06J     -0.163000
     16 C14         6.9990   -0.6660    2.1990 ca        1 06J     -0.019000
     17 C15         6.9650    0.1470    3.3520 ca        1 06J     -0.276600
     18 C16         5.7680    0.9050    3.5790 ca        1 06J      0.093600
     19 C17         4.7150    0.8380    2.6860 ca        1 06J     -0.165000
     20 N2          5.6690    1.7740    4.7630 n4        1 06J     -0.646400
     21 C18         4.3600    2.4660    4.9940 c3        1 06J      0.097800
     22 C19         3.2410    1.5030    5.4890 c3        1 06J      0.158500
     23 C20         3.4130    1.2420    7.0030 c3        1 06J     -0.108400
     24 C21         2.3110    2.0410    7.6850 c3        1 06J     -0.101400
     25 C22         1.4190    2.5850    6.5580 c3        1 06J      0.153800
     26 N3          1.9440    2.1470    5.2560 n3        1 06J     -0.730600
     27 C23         0.9930    1.3730    4.4700 c3        1 06J      0.158800
     28 C24         1.2910    1.3230    2.9690 c3        1 06J     -0.092400
     29 C25         1.8270   -0.0320    2.5350 c3        1 06J     -0.022100
     30 C26         8.0740    0.2200    4.2760 c         1 06J      0.574700
     31 O2          8.1570    0.8770    5.3160 o         1 06J     -0.492100
     32 N4          9.3190   -0.5830    3.9890 n4        1 06J     -0.743400
     33 H1         -0.4110   -0.7140    0.8360 hc        1 06J      0.080033
     34 H2         -0.3730   -0.5750   -0.9820 hc        1 06J      0.080033
     35 H3         -0.3860    0.9210    0.0450 hc        1 06J      0.080033
     36 H4          3.2590    0.9760   -3.7020 hc        1 06J      0.095200
     37 H5          2.8730   -0.5960   -4.5150 hc        1 06J      0.095200
     38 H6          5.7000   -0.7360   -1.2570 hc        1 06J      0.059700
     39 H7          5.1390    0.9140   -1.7540 hc        1 06J      0.059700
     40 H8          4.0930   -2.6470   -3.9690 hc        1 06J      0.049867
     41 H9          3.5490   -2.5460   -2.2420 hc        1 06J      0.049867
     42 H10         5.3180   -2.6810   -2.6360 hc        1 06J      0.049867
     43 H11         6.5340   -0.7530   -3.6580 hc        1 06J      0.049867
     44 H12         5.3300   -0.7500   -5.0130 hc        1 06J      0.049867
     45 H13         5.6450    0.7730   -4.0820 hc        1 06J      0.049867
     46 H14         6.0160   -1.4550    0.4630 ha        1 06J      0.200000
     47 H15         7.8830   -1.2880    1.9740 ha        1 06J      0.145000
     48 H16         3.8060    1.4600    2.8240 ha        1 06J      0.210000
     49 H17         5.8770    1.1960    5.5960 hn        1 06J      0.468800
     50 H18         4.0580    3.0060    4.0510 hx        1 06J      0.124200
     51 H19         4.5530    3.2460    5.7910 hx        1 06J      0.124200
     52 H20         3.3170    0.5330    4.9200 h1        1 06J      0.055700
     53 H21         4.4220    1.5500    7.3700 hc        1 06J      0.054200
     54 H22         3.2930    0.1490    7.2110 hc        1 06J      0.054200
     55 H23         2.7340    2.8830    8.2870 hc        1 06J      0.077200
     56 H24         1.7190    1.3950    8.3800 hc        1 06J      0.077200
     57 H25         1.4340    3.7100    6.5500 h1        1 06J      0.076700
     58 H26         0.3550    2.2560    6.7120 h1        1 06J      0.076700
     59 H28         0.8840    0.3190    4.8620 h1        1 06J      0.063700
     60 H29        -0.0080    1.8820    4.5940 h1        1 06J      0.063700
     61 H30         0.3270    1.5060    2.4180 hc        1 06J      0.065700
     62 H31         1.9800    2.1510    2.6620 hc        1 06J      0.065700
     63 H32         0.9920   -0.7890    2.6150 hc        1 06J      0.060200
     64 H33         2.6340   -0.3880    3.2280 hc        1 06J      0.060200
     65 H34         9.1000   -1.5860    3.9620 hn        1 06J      0.483467
     66 H35         9.7260   -0.3040    3.0890 hn        1 06J      0.483467
     67 H221        6.4090    2.4900    4.6890 hn        1 06J      0.468800
     68 H43        10.0120   -0.4130    4.7370 hn        1 06J      0.483467
@<TRIPOS>BOND
     1    1    2 1   
     2    1   33 1   
     3    1   34 1   
     4    1   35 1   
     5    2    3 2   
     6    2    6 1   
     7    3    4 1   
     8    3   29 1   
     9    4    5 1   
    10    4   14 1   
    11    5    6 2   
    12    5   11 1   
    13    6    7 1   
    14    7    8 2   
    15    7    9 1   
    16    9   10 1   
    17    9   36 1   
    18    9   37 1   
    19   10   11 1   
    20   10   12 1   
    21   10   13 1   
    22   11   38 1   
    23   11   39 1   
    24   12   40 1   
    25   12   41 1   
    26   12   42 1   
    27   13   43 1   
    28   13   44 1   
    29   13   45 1   
    30   14   15 ar  
    31   14   19 ar  
    32   15   16 ar  
    33   15   46 1   
    34   16   17 ar  
    35   16   47 1   
    36   17   18 ar  
    37   17   30 1   
    38   18   19 ar  
    39   18   20 1   
    40   19   48 1   
    41   20   21 1   
    42   20   49 1   
    43   20   67 1   
    44   21   22 1   
    45   21   50 1   
    46   21   51 1   
    47   22   23 1   
    48   22   26 1   
    49   22   52 1   
    50   23   24 1   
    51   23   53 1   
    52   23   54 1   
    53   24   25 1   
    54   24   55 1   
    55   24   56 1   
    56   25   26 1   
    57   25   57 1   
    58   25   58 1   
    59   26   27 1   
    60   27   28 1   
    61   27   59 1   
    62   27   60 1   
    63   28   29 1   
    64   28   61 1   
    65   28   62 1   
    66   29   63 1   
    67   29   64 1   
    68   30   31 2   
    69   30   32 1   
    70   32   65 1   
    71   32   66 1   
    72   32   68 1   
@<TRIPOS>SUBSTRUCTURE
     1 06J         1 TEMP              0 ****  ****    0 ROOT
