@<TRIPOS>MOLECULE
06P
   54    56     1     0     0
SMALL
bcc


@<TRIPOS>ATOM
      1 N4          2.4310   -1.7170   -0.5040 n3        1 06P     -0.900800
      2 C3          2.5270   -0.3250   -0.1170 c3        1 06P      0.119500
      3 C5          1.1310    0.2070    0.2630 c         1 06P      0.669100
      4 O7          0.3780   -0.4460    1.0200 o         1 06P     -0.641100
      5 C2          3.4490   -0.0150    1.0810 c3        1 06P     -0.074100
      6 C1          4.8460   -0.4440    0.8080 ca        1 06P     -0.101300
      7 C8          5.7580    0.4460    0.2280 ca        1 06P     -0.128500
      8 C12         5.2650   -1.7380    1.1390 ca        1 06P     -0.128500
      9 C9          7.0690    0.0450   -0.0210 ca        1 06P     -0.121000
     10 C11         6.5770   -2.1370    0.8900 ca        1 06P     -0.121000
     11 C10         7.4810   -1.2470    0.3090 ca        1 06P     -0.118000
     12 N6          0.6890    1.4020   -0.2750 n         1 06P     -0.463800
     13 C13        -0.5420    2.0320    0.1820 c3        1 06P      0.042700
     14 C14        -1.8040    1.5110   -0.5380 c         1 06P      0.662100
     15 O15        -2.6910    2.2830   -0.9570 o         1 06P     -0.632100
     16 C19        -0.3820    3.5530   -0.0370 c3        1 06P     -0.087400
     17 C20         0.8920    3.7400   -0.8530 c3        1 06P     -0.093400
     18 C21         1.5600    2.3590   -0.9400 c3        1 06P      0.085000
     19 N16        -1.9720    0.1440   -0.6500 n         1 06P     -0.570900
     20 C17        -3.0270   -0.4310   -1.4220 c3        1 06P      0.124300
     21 C18        -4.3190   -0.6280   -0.6650 ca        1 06P      0.021700
     22 C22        -5.0500    0.4810   -0.2090 ca        1 06P     -0.134000
     23 C23        -6.2580    0.2880    0.4640 ca        1 06P     -0.034800
     24 N24        -6.7510   -0.9720    0.6920 na        1 06P      0.027900
     25 C25        -8.0200   -1.1400    1.3820 c3        1 06P     -0.031400
     26 C26        -6.0490   -2.0590    0.2480 ca        1 06P     -0.034800
     27 C27        -4.8340   -1.9110   -0.4300 ca        1 06P     -0.134000
     28 HN4         3.3510   -2.0840   -0.6670 hn        1 06P      0.368300
     29 HN4A        1.9820   -2.2550    0.2130 hn        1 06P      0.368300
     30 H3          2.9280    0.2230   -1.0220 h1        1 06P      0.082700
     31 H2          3.0550   -0.5330    1.9960 hc        1 06P      0.063200
     32 H2A         3.4190    1.0890    1.2790 hc        1 06P      0.063200
     33 H8          5.4390    1.4670   -0.0290 ha        1 06P      0.129000
     34 H12         4.5590   -2.4390    1.6100 ha        1 06P      0.129000
     35 H9          7.7810    0.7500   -0.4750 ha        1 06P      0.140000
     36 H11         6.9010   -3.1540    1.1560 ha        1 06P      0.140000
     37 H10         8.5170   -1.5620    0.1140 ha        1 06P      0.142000
     38 H13        -0.7040    1.8010    1.2790 h1        1 06P      0.091700
     39 H19        -1.2690    3.9810   -0.5670 hc        1 06P      0.079200
     40 H19A       -0.2960    4.0590    0.9570 hc        1 06P      0.079200
     41 H20         0.6560    4.1190   -1.8780 hc        1 06P      0.066700
     42 H20A        1.5780    4.4750   -0.3640 hc        1 06P      0.066700
     43 H21         2.5710    2.3790   -0.4460 h1        1 06P      0.057700
     44 H21A        1.6950    2.0470   -2.0120 h1        1 06P      0.057700
     45 HN16       -1.3130   -0.4770   -0.2290 hn        1 06P      0.358500
     46 H17        -3.2650    0.2460   -2.2990 h1        1 06P      0.091200
     47 H17A       -2.6810   -1.4290   -1.8220 h1        1 06P      0.091200
     48 H22        -4.6710    1.5100   -0.3850 ha        1 06P      0.213500
     49 H23        -6.8600    1.1420    0.8370 h4        1 06P      0.206000
     50 H25        -8.8610   -0.9490    0.6600 h1        1 06P      0.099033
     51 H25A       -8.1040   -2.1840    1.7860 h1        1 06P      0.099033
     52 H25B       -8.0850   -0.4100    2.2340 h1        1 06P      0.099033
     53 H26        -6.4790   -3.0620    0.4500 h4        1 06P      0.206000
     54 H27        -4.2970   -2.8140   -0.7670 ha        1 06P      0.213500
@<TRIPOS>BOND
     1    1    2 1   
     2    1   28 1   
     3    1   29 1   
     4    2    3 1   
     5    2    5 1   
     6    2   30 1   
     7    3    4 2   
     8    3   12 1   
     9    5    6 1   
    10    5   31 1   
    11    5   32 1   
    12    6    7 ar  
    13    6    8 ar  
    14    7    9 ar  
    15    7   33 1   
    16    8   10 ar  
    17    8   34 1   
    18    9   11 ar  
    19    9   35 1   
    20   10   11 ar  
    21   10   36 1   
    22   11   37 1   
    23   12   13 1   
    24   12   18 1   
    25   13   14 1   
    26   13   16 1   
    27   13   38 1   
    28   14   15 2   
    29   14   19 1   
    30   16   17 1   
    31   16   39 1   
    32   16   40 1   
    33   17   18 1   
    34   17   41 1   
    35   17   42 1   
    36   18   43 1   
    37   18   44 1   
    38   19   20 1   
    39   19   45 1   
    40   20   21 1   
    41   20   46 1   
    42   20   47 1   
    43   21   22 ar  
    44   21   27 ar  
    45   22   23 ar  
    46   22   48 1   
    47   23   24 1   
    48   23   49 1   
    49   24   25 1   
    50   24   26 2   
    51   25   50 1   
    52   25   51 1   
    53   25   52 1   
    54   26   27 ar  
    55   26   53 1   
    56   27   54 1   
@<TRIPOS>SUBSTRUCTURE
     1 06P         1 TEMP              0 ****  ****    0 ROOT
