@<TRIPOS>MOLECULE
06P
   54    52     1     0     0
SMALL
bcc


@<TRIPOS>ATOM
      1 N4         -2.2110   -2.8940    0.6660 n3        1 06P     -0.335000
      2 C3         -0.8140   -2.8260    0.8150 c3        1 06P     -0.037000
      3 C5         -0.2770   -1.5840    0.0880 c2        1 06P      0.325000
      4 O7          0.3360   -0.7110    0.7220 o         1 06P     -0.455000
      5 C2         -0.4680   -2.7360    2.2760 c3        1 06P     -0.146000
      6 C1          0.2360   -3.9920    2.7040 c2        1 06P     -0.098000
      7 C8          1.5740   -3.9450    3.0660 c1        1 06P     -0.120000
      8 C12        -0.4920   -5.1620    2.8900 c2        1 06P     -0.142000
      9 C9          2.1840   -5.0610    3.6130 c1        1 06P     -0.118500
     10 C11         0.1150   -6.2760    3.4360 c1        1 06P     -0.122000
     11 C10         1.4570   -6.2280    3.7990 c1        1 06P     -0.118500
     12 N6         -0.4190   -1.4680   -1.3480 n         1 06P     -0.305000
     13 C13         0.1180   -0.3450   -2.2370 c3        1 06P      0.019000
     14 C14        -0.6010    0.8380   -1.9920 c2        1 06P      0.295000
     15 O15        -1.8210    0.8540   -2.1300 o         1 06P     -0.342000
     16 C19        -0.0760   -0.9370   -3.6800 c3        1 06P     -0.163000
     17 C20        -0.3410   -2.1470   -3.5180 c3        1 06P     -0.172000
     18 C21        -1.0140   -2.2760   -2.1210 c3        1 06P     -0.021000
     19 N16         0.0700    1.9820   -1.4810 n         1 06P     -0.374000
     20 C17         0.0190    3.2360   -2.2050 c3        1 06P     -0.011000
     21 C18         0.1290    4.3670   -1.2470 c2        1 06P      0.035000
     22 C22        -0.8230    5.3750   -1.2600 c2        1 06P     -0.147000
     23 C23        -0.6450    6.5110   -0.4790 c1        1 06P     -0.007000
     24 N24         0.4750    6.6340    0.3060 n2        1 06P     -0.046000
     25 C25         0.6570    7.7750    1.0890 c3        1 06P     -0.129000
     26 C26         1.4240    5.6300    0.3200 c1        1 06P     -0.004000
     27 C27         1.2460    4.4920   -0.4630 c1        1 06P     -0.142000
     28 HN4        -2.6210   -2.5440    1.4230 hn        1 06P      0.158000
     29 HN4A       -2.4650   -3.7770    0.5560 hn        1 06P      0.158000
     30 H3         -0.4100   -3.6270    0.4340 h1        1 06P      0.127000
     31 H2         -1.2920   -2.6260    2.8030 hc        1 06P      0.101500
     32 H2A         0.1050   -1.9850    2.4210 hc        1 06P      0.101500
     33 H8          2.0970   -3.1070    2.9310 ha        1 06P      0.136000
     34 H12        -1.4220   -5.1950    2.6390 ha        1 06P      0.118000
     35 H9          3.1400   -5.0260    3.8710 ha        1 06P      0.143500
     36 H11        -0.4110   -7.1200    3.5690 ha        1 06P      0.138000
     37 H10         1.8780   -6.9990    4.1780 ha        1 06P      0.143500
     38 H13         1.0500   -0.0420   -2.0930 h1        1 06P      0.116000
     39 H19        -0.8160   -0.4870   -4.1290 hc        1 06P      0.116500
     40 H19A        0.7410   -0.8390   -4.1980 hc        1 06P      0.116500
     41 H20        -0.9740   -2.4610   -4.2330 hc        1 06P      0.106000
     42 H20A        0.5060   -2.6900   -3.5440 hc        1 06P      0.106000
     43 H21        -0.9150   -3.2040   -1.7820 h1        1 06P      0.105000
     44 H21A       -1.9940   -2.0330   -2.1860 h1        1 06P      0.105000
     45 HN16        0.5500    1.9210   -0.7110 hn        1 06P      0.253000
     46 H17        -0.8320    3.3000   -2.6890 h1        1 06P      0.142500
     47 H17A        0.7600    3.2770   -2.8410 h1        1 06P      0.142500
     48 H22        -1.6230    5.2860   -1.8230 ha        1 06P      0.196000
     49 H23        -1.3370    7.2420   -0.4900 ha        1 06P      0.205000
     50 H25         0.5830    7.5320    2.0540 h1        1 06P      0.137000
     51 H25A       -0.0350    8.4440    0.8640 h1        1 06P      0.137000
     52 H25B        1.5440    8.1530    0.9150 h1        1 06P      0.137000
     53 H26         2.2340    5.7200    0.8870 ha        1 06P      0.204000
     54 H27         1.9200    3.7800   -0.4520 ha        1 06P      0.230000
@<TRIPOS>BOND
     1    1    2 1   
     2    1   28 1   
     3    1   29 1   
     4    2    3 1   
     5    2    5 1   
     6    2   30 1   
     7    3    4 1   
     8    3   12 1   
     9    5    6 1   
    10    5   31 1   
    11    5   32 1   
    12    6    7 1   
    13    6    8 1   
    14    7   33 1   
    15    8   10 1   
    16    8   34 1   
    17    9   11 1   
    18    9   35 1   
    19   10   36 1   
    20   11   37 1   
    21   12   13 1   
    22   12   18 1   
    23   13   14 1   
    24   13   16 1   
    25   13   38 1   
    26   14   15 1   
    27   14   19 1   
    28   16   17 1   
    29   16   39 1   
    30   16   40 1   
    31   17   18 1   
    32   17   41 1   
    33   17   42 1   
    34   18   43 1   
    35   18   44 1   
    36   19   20 1   
    37   19   45 1   
    38   20   21 1   
    39   20   46 1   
    40   20   47 1   
    41   21   22 1   
    42   21   27 1   
    43   22   23 1   
    44   22   48 1   
    45   23   49 1   
    46   24   25 1   
    47   24   26 1   
    48   25   50 1   
    49   25   51 1   
    50   25   52 1   
    51   26   53 1   
    52   27   54 1   
@<TRIPOS>SUBSTRUCTURE
     1 06P         1 TEMP              0 ****  ****    0 ROOT
