@<TRIPOS>MOLECULE
06T
   75    70     1     0     0
SMALL
bcc


@<TRIPOS>ATOM
      1 C1         -3.5740   -1.0090   -2.1260 c3        1 06T     -0.169000
      2 C2         -2.0200   -0.8620   -2.1150 c2        1 06T     -0.053000
      3 C3         -1.1770   -0.8100   -0.9480 c1        1 06T     -0.089000
      4 N1          0.1470   -0.7470   -1.3770 n3        1 06T     -0.078000
      5 C4          0.1500   -0.7580   -2.7550 c1        1 06T     -0.011000
      6 C5         -1.2250   -0.8310   -3.2040 c1        1 06T     -0.219000
      7 C6         -1.5040   -0.8760   -4.7650 c1        1 06T      0.304000
      8 O1         -2.6800   -0.8260   -5.1950 o         1 06T     -0.312000
      9 C7         -0.3710   -0.6670   -5.6790 c3        1 06T     -0.203000
     10 C8          0.8860   -1.2840   -5.1630 c3        1 06T     -0.040000
     11 C9          1.2900   -0.9250   -3.8280 c2        1 06T     -0.101000
     12 C10         0.6630   -2.7810   -5.1660 c3        1 06T     -0.210000
     13 C11         2.0090   -0.8400   -6.1010 c3        1 06T     -0.210000
     14 C12         1.3830   -0.5960   -0.4750 c1        1 06T      0.107000
     15 C13         2.5810   -0.0870   -1.0090 c1        1 06T     -0.129000
     16 C14         3.6550    0.1970   -0.1720 c1        1 06T     -0.129000
     17 C15         3.5420   -0.0270    1.2110 c1        1 06T     -0.200000
     18 C16         2.3380   -0.5380    1.7440 c1        1 06T      0.141000
     19 C17         1.2690   -0.8190    0.8980 c1        1 06T     -0.209000
     20 N2          2.1760   -0.6720    3.1750 n3        1 06T     -0.279000
     21 C18         0.8190   -1.0370    3.4670 c3        1 06T      0.004000
     22 C19        -0.0260    0.2040    3.5540 c3        1 06T     -0.149000
     23 C20        -1.4670   -0.1500    3.2380 c3        1 06T     -0.033000
     24 N3         -2.0490    0.8530    2.2770 n3        1 06T     -0.318000
     25 C21        -2.5100    0.3120    0.9190 c3        1 06T     -0.021000
     26 C22        -1.6590   -0.9180    0.5490 c2        1 06T     -0.120000
     27 C23        -2.1650    2.2460    2.6190 c1        1 06T      0.307000
     28 O2         -1.7780    2.6420    3.7360 o         1 06T     -0.376000
     29 C24        -2.9640    3.2040    1.6930 c2        1 06T     -0.044000
     30 C25        -2.2930    4.5120    1.6370 c3        1 06T     -0.245000
     31 N4         -4.2850    3.3790    2.2100 n3        1 06T     -0.339000
     32 C26         0.0560    0.7810    4.9670 c3        1 06T     -0.208000
     33 C27         0.7640   -1.7900    4.7990 c3        1 06T     -0.216000
     34 C28         4.7700    0.1910    2.1340 c1        1 06T      0.356000
     35 O3          4.7190   -0.1570    3.2950 o         1 06T     -0.390000
     36 N5          6.0180    0.6200    1.5720 n2        1 06T     -0.428000
     37 H1         -3.9700   -0.1720   -1.9460 hc        1 06T      0.094333
     38 H2         -3.8720   -1.3320   -3.0300 hc        1 06T      0.094333
     39 H3         -3.8360   -1.6270   -1.4700 hc        1 06T      0.094333
     40 H4         -0.3030    0.2110   -6.0080 hc        1 06T      0.110500
     41 H5         -0.5740   -1.1330   -6.4970 hc        1 06T      0.110500
     42 H6          1.7980   -0.0470   -3.8820 ha        1 06T      0.099500
     43 H7          1.9110   -1.6180   -3.5030 ha        1 06T      0.099500
     44 H8          1.4490   -3.2400   -4.7330 hc        1 06T      0.079833
     45 H9          0.5650   -3.1030   -6.1240 hc        1 06T      0.079833
     46 H10        -0.1430   -2.9860   -4.6730 hc        1 06T      0.079833
     47 H11         1.7740   -1.0760   -7.0270 hc        1 06T      0.079833
     48 H12         2.1260    0.1100   -6.0350 hc        1 06T      0.079833
     49 H13         2.8630   -1.2990   -5.8450 hc        1 06T      0.079833
     50 H14         2.6600    0.0720   -2.0020 ha        1 06T      0.144000
     51 H15         4.4850    0.5500   -0.5450 ha        1 06T      0.144000
     52 H16         0.4100   -1.1840    1.2770 ha        1 06T      0.157000
     53 H17         2.3590    0.1240    3.5710 hn        1 06T      0.224000
     54 H18         0.4700   -1.6230    2.7420 h1        1 06T      0.095000
     55 H19         0.3000    0.8690    2.9060 hc        1 06T      0.104000
     56 H20        -1.5000   -1.0150    2.8480 h1        1 06T      0.100000
     57 H21        -1.9730   -0.1470    4.0410 h1        1 06T      0.100000
     58 H22        -3.4640    0.0500    0.9730 h1        1 06T      0.099500
     59 H23        -2.4020    0.9880    0.2520 h1        1 06T      0.099500
     60 H24        -0.8930   -0.9600    1.1280 ha        1 06T      0.106000
     61 H25        -2.1960   -1.7310    0.6600 ha        1 06T      0.106000
     62 H26        -3.0110    2.8190    0.7840 h4        1 06T      0.110000
     63 H27        -1.8060    4.6740    2.4930 hc        1 06T      0.089667
     64 H28        -1.6210    4.5240    0.8500 hc        1 06T      0.089667
     65 H29        -2.9760    5.2280    1.5010 hc        1 06T      0.089667
     66 H30        -4.7140    4.0560    1.7380 hn        1 06T      0.152500
     67 H31        -4.7520    2.6060    2.1240 hn        1 06T      0.152500
     68 H33        -0.6010    0.3280    5.5430 hc        1 06T      0.082000
     69 H34         0.9320    0.6460    5.3160 hc        1 06T      0.082000
     70 H35        -0.1410    1.7440    4.9400 hc        1 06T      0.082000
     71 H36         1.1830   -2.7180    4.6830 hc        1 06T      0.087667
     72 H37         1.2590   -1.2940    5.4740 hc        1 06T      0.087667
     73 H38        -0.1430   -1.8830    5.0740 hc        1 06T      0.087667
     74 H39         6.0920    0.7470    0.6750 hn        1 06T      0.228500
     75 H40         6.7640    0.7090    2.1150 hn        1 06T      0.228500
@<TRIPOS>BOND
     1    1    2 1   
     2    1   37 1   
     3    1   38 1   
     4    1   39 1   
     5    2    3 1   
     6    2    6 1   
     7    3    4 1   
     8    4    5 1   
     9    4   14 1   
    10    5    6 1   
    11    7    8 1   
    12    7    9 1   
    13    9   10 1   
    14    9   40 1   
    15    9   41 1   
    16   10   11 1   
    17   10   12 1   
    18   10   13 1   
    19   11   42 1   
    20   11   43 1   
    21   12   44 1   
    22   12   45 1   
    23   12   46 1   
    24   13   47 1   
    25   13   48 1   
    26   13   49 1   
    27   14   19 1   
    28   15   16 1   
    29   15   50 1   
    30   16   51 1   
    31   17   18 1   
    32   17   34 1   
    33   18   20 1   
    34   19   52 1   
    35   20   21 1   
    36   20   53 1   
    37   21   22 1   
    38   21   33 1   
    39   21   54 1   
    40   22   23 1   
    41   22   32 1   
    42   22   55 1   
    43   23   24 1   
    44   23   56 1   
    45   23   57 1   
    46   24   25 1   
    47   24   27 1   
    48   25   26 1   
    49   25   58 1   
    50   25   59 1   
    51   26   60 1   
    52   26   61 1   
    53   27   28 1   
    54   29   30 1   
    55   29   31 1   
    56   29   62 1   
    57   30   63 1   
    58   30   64 1   
    59   30   65 1   
    60   31   66 1   
    61   31   67 1   
    62   32   68 1   
    63   32   69 1   
    64   32   70 1   
    65   33   71 1   
    66   33   72 1   
    67   33   73 1   
    68   34   35 1   
    69   36   74 1   
    70   36   75 1   
@<TRIPOS>SUBSTRUCTURE
     1 06T         1 TEMP              0 ****  ****    0 ROOT
