@<TRIPOS>MOLECULE
06T
   78    81     1     0     0
SMALL
bcc


@<TRIPOS>ATOM
      1 C1          0.1840    0.1530    0.7040 c3        1 06T     -0.060800
      2 C2          1.6470    0.1700    0.6090 cc        1 06T     -0.102300
      3 C3          2.5630   -0.4230    1.4940 cd        1 06T     -0.195600
      4 N1          3.8400   -0.4790    0.8560 na        1 06T      0.008800
      5 C4          3.7340    0.1750   -0.3740 cd        1 06T      0.041400
      6 C5          2.4080    0.6340   -0.5170 cc        1 06T     -0.288600
      7 C6          2.0340    1.5410   -1.5900 c         1 06T      0.656700
      8 O1          1.0910    2.3420   -1.4210 o         1 06T     -0.644100
      9 C7          2.9240    1.5600   -2.7910 c3        1 06T     -0.177400
     10 C8          4.0560    0.5260   -2.8040 c3        1 06T     -0.039000
     11 C9          4.7460    0.3780   -1.4340 c3        1 06T     -0.039100
     12 C10         3.5130   -0.8250   -3.2510 c3        1 06T     -0.103100
     13 C11         5.1090    0.9900   -3.8050 c3        1 06T     -0.103100
     14 C12         5.0240   -0.7120    1.5980 ca        1 06T      0.108800
     15 C13         6.0610   -1.5970    1.2160 ca        1 06T     -0.151000
     16 C14         7.1310   -1.7760    2.0760 ca        1 06T     -0.022000
     17 C15         7.2110   -1.1840    3.3590 ca        1 06T     -0.269600
     18 C16         6.1440   -0.3260    3.7830 ca        1 06T      0.309600
     19 C17         5.1480   -0.0370    2.8100 ca        1 06T     -0.272000
     20 N2          5.9850    0.2270    5.0280 nh        1 06T     -0.746600
     21 C18         4.6480    0.5190    5.5400 c3        1 06T      0.231500
     22 C19         4.1160    1.9350    5.1670 c3        1 06T     -0.097700
     23 C20         2.5820    1.9480    5.0110 c3        1 06T      0.105800
     24 N3          2.0520    1.4280    3.6880 n4        1 06T     -0.580200
     25 C21         1.5490    0.0020    3.7680 c3        1 06T      0.108800
     26 C22         2.2450   -0.9860    2.8230 c3        1 06T     -0.037100
     27 C23         0.9840    2.3380    3.1390 c         1 06T      0.512100
     28 O2         -0.1110    2.3810    3.6780 o         1 06T     -0.367100
     29 C24         1.3690    3.1880    1.9110 c3        1 06T      0.067500
     30 C25         1.9830    4.4910    2.4180 c3        1 06T     -0.150100
     31 N4          0.1880    3.4270    1.0200 n4        1 06T     -0.849600
     32 C26         4.4740    2.9700    6.2190 c3        1 06T     -0.110100
     33 C27         4.5810    0.2890    7.0510 c3        1 06T     -0.125100
     34 C28         8.3240   -1.4290    4.2600 c         1 06T      0.578700
     35 O3          8.4990   -1.0020    5.3980 o         1 06T     -0.442100
     36 N5          9.4550   -2.3230    3.7950 n4        1 06T     -0.752400
     37 H1         -0.1840    0.6960    1.6120 hc        1 06T      0.064700
     38 H2         -0.1800   -0.9080    0.7730 hc        1 06T      0.064700
     39 H3         -0.2780    0.6030   -0.2140 hc        1 06T      0.064700
     40 H4          3.3560    2.5970   -2.8760 hc        1 06T      0.112700
     41 H5          2.2840    1.4080   -3.7070 hc        1 06T      0.112700
     42 H6          5.4630   -0.4860   -1.4800 hc        1 06T      0.083700
     43 H7          5.3420    1.3050   -1.2090 hc        1 06T      0.083700
     44 H8          4.3360   -1.5800   -3.2940 hc        1 06T      0.058033
     45 H9          2.7280   -1.1870   -2.5460 hc        1 06T      0.058033
     46 H10         3.0670   -0.7430   -4.2720 hc        1 06T      0.058033
     47 H11         5.9270    0.2330   -3.8820 hc        1 06T      0.058033
     48 H12         5.5510    1.9670   -3.4960 hc        1 06T      0.058033
     49 H13         4.6470    1.1110   -4.8160 hc        1 06T      0.058033
     50 H14         6.0190   -2.1360    0.2540 ha        1 06T      0.193000
     51 H15         7.9360   -2.4410    1.7180 ha        1 06T      0.147000
     52 H16         4.4570    0.7820    3.0220 ha        1 06T      0.115000
     53 H17         6.7170    0.1550    5.7060 hn        1 06T      0.481800
     54 H18         3.9370   -0.2270    5.0590 h1        1 06T      0.031700
     55 H19         4.5930    2.2850    4.2080 hc        1 06T      0.064700
     56 H20         2.2290    3.0180    5.1100 hx        1 06T      0.122200
     57 H21         2.1050    1.3550    5.8450 hx        1 06T      0.122200
     58 H22         0.4380    0.0090    3.5550 hx        1 06T      0.125200
     59 H23         1.6810   -0.3680    4.8270 hx        1 06T      0.125200
     60 H24         3.1600   -1.4040    3.3250 hc        1 06T      0.111200
     61 H25         1.5260   -1.8490    2.6880 hc        1 06T      0.111200
     62 H26         2.1200    2.6250    1.2630 hx        1 06T      0.148700
     63 H27         1.2530    5.0890    3.0210 hc        1 06T      0.105367
     64 H28         2.3380    5.1210    1.5610 hc        1 06T      0.105367
     65 H29         2.8690    4.2560    3.0590 hc        1 06T      0.105367
     66 H30        -0.6780    3.5390    1.5610 hn        1 06T      0.496800
     67 H31         0.0880    2.6370    0.3410 hn        1 06T      0.496800
     68 H33         5.5690    2.9140    6.4430 hc        1 06T      0.075033
     69 H34         4.2490    4.0000    5.8460 hc        1 06T      0.075033
     70 H35         3.9100    2.8080    7.1700 hc        1 06T      0.075033
     71 H36         5.3200    0.9200    7.6040 hc        1 06T      0.077033
     72 H37         3.5560    0.5410    7.4180 hc        1 06T      0.077033
     73 H38         4.7850   -0.7840    7.2930 hc        1 06T      0.077033
     74 H39        10.1650   -2.3860    4.5430 hn        1 06T      0.480800
     75 H40         9.1070   -3.2650    3.5890 hn        1 06T      0.480800
     76 H311        2.8210    1.4430    3.0050 hn        1 06T      0.453800
     77 H43         0.3510    4.2830    0.4660 hn        1 06T      0.496800
     78 H53         9.8950   -1.9350    2.9540 hn        1 06T      0.480800
@<TRIPOS>BOND
     1    1    2 1   
     2    1   37 1   
     3    1   38 1   
     4    1   39 1   
     5    2    3 2   
     6    2    6 1   
     7    3    4 1   
     8    3   26 1   
     9    4    5 1   
    10    4   14 1   
    11    5    6 2   
    12    5   11 1   
    13    6    7 1   
    14    7    8 2   
    15    7    9 1   
    16    9   10 1   
    17    9   40 1   
    18    9   41 1   
    19   10   11 1   
    20   10   12 1   
    21   10   13 1   
    22   11   42 1   
    23   11   43 1   
    24   12   44 1   
    25   12   45 1   
    26   12   46 1   
    27   13   47 1   
    28   13   48 1   
    29   13   49 1   
    30   14   15 ar  
    31   14   19 ar  
    32   15   16 ar  
    33   15   50 1   
    34   16   17 ar  
    35   16   51 1   
    36   17   18 ar  
    37   17   34 1   
    38   18   19 ar  
    39   18   20 1   
    40   19   52 1   
    41   20   21 1   
    42   20   53 1   
    43   21   22 1   
    44   21   33 1   
    45   21   54 1   
    46   22   23 1   
    47   22   32 1   
    48   22   55 1   
    49   23   24 1   
    50   23   56 1   
    51   23   57 1   
    52   24   25 1   
    53   24   27 1   
    54   24   76 1   
    55   25   26 1   
    56   25   58 1   
    57   25   59 1   
    58   26   60 1   
    59   26   61 1   
    60   27   28 2   
    61   27   29 1   
    62   29   30 1   
    63   29   31 1   
    64   29   62 1   
    65   30   63 1   
    66   30   64 1   
    67   30   65 1   
    68   31   66 1   
    69   31   67 1   
    70   31   77 1   
    71   32   68 1   
    72   32   69 1   
    73   32   70 1   
    74   33   71 1   
    75   33   72 1   
    76   33   73 1   
    77   34   35 2   
    78   34   36 1   
    79   36   74 1   
    80   36   75 1   
    81   36   78 1   
@<TRIPOS>SUBSTRUCTURE
     1 06T         1 TEMP              0 ****  ****    0 ROOT
