@<TRIPOS>MOLECULE
06T
   79    82     1     0     0
SMALL
bcc


@<TRIPOS>ATOM
      1 C1          0.5360    1.0820   -0.5160 c3        1 06T     -0.073800
      2 C2          1.9200    0.6250   -0.3840 cc        1 06T      0.061700
      3 C3          2.6910    0.5420    0.7860 cd        1 06T     -0.247600
      4 N1          3.9920    0.0310    0.4380 na        1 06T     -0.017200
      5 C4          3.9770   -0.2220   -0.9690 cd        1 06T      0.022400
      6 C5          2.7330    0.1420   -1.4780 cc        1 06T     -0.193600
      7 C6          2.3810    0.0020   -2.9020 c         1 06T      0.599700
      8 O1          1.2880    0.3770   -3.3270 o         1 06T     -0.473100
      9 C7          3.4570   -0.5820   -3.7660 c3        1 06T     -0.179400
     10 C8          4.4300   -1.5120   -3.0440 c3        1 06T     -0.036000
     11 C9          5.0390   -0.8310   -1.8020 c3        1 06T     -0.046100
     12 C10         3.7270   -2.7990   -2.6390 c3        1 06T     -0.103100
     13 C11         5.5720   -1.8490   -3.9960 c3        1 06T     -0.103100
     14 C12         5.0730   -0.1860    1.2650 ca        1 06T      0.155800
     15 C13         6.4170   -0.0520    0.8100 ca        1 06T     -0.137000
     16 C14         7.4830   -0.2240    1.6740 ca        1 06T     -0.023000
     17 C15         7.3140   -0.4560    3.0530 ca        1 06T     -0.231600
     18 C16         5.9740   -0.5400    3.5340 ca        1 06T      0.080600
     19 C17         4.9070   -0.5430    2.6370 ca        1 06T     -0.203000
     20 N2          5.6740   -0.6430    4.9710 n4        1 06T     -0.663400
     21 C18         4.3340   -0.0670    5.4130 c3        1 06T      0.149500
     22 C19         4.1360    1.4030    4.9650 c3        1 06T     -0.095700
     23 C20         2.6270    1.7220    4.9640 c3        1 06T      0.107800
     24 N3          2.1920    2.7270    3.9240 n4        1 06T     -0.583200
     25 C21         2.5350    2.3230    2.5030 c3        1 06T      0.097800
     26 C22         2.1670    0.8850    2.1200 c3        1 06T      0.003900
     27 C23         0.7070    2.9720    4.0480 c         1 06T      0.505100
     28 O2         -0.0270    2.0080    4.2040 o         1 06T     -0.370100
     29 C24         0.2130    4.4290    3.9480 c3        1 06T      0.075500
     30 C25         0.8440    5.2890    5.0390 c3        1 06T     -0.165100
     31 N4         -1.2880    4.4850    4.0160 n4        1 06T     -0.842600
     32 C26         4.8780    2.3840    5.8470 c3        1 06T     -0.130100
     33 C27         4.1970   -0.2310    6.9230 c3        1 06T     -0.151100
     34 C28         8.4600   -0.6130    3.9480 c         1 06T      0.574700
     35 O3          8.4410   -0.5300    5.1760 o         1 06T     -0.457100
     36 N5          9.8060   -0.9430    3.3740 n4        1 06T     -0.739400
     37 H1         -0.1610    0.2020   -0.4520 hc        1 06T      0.081700
     38 H2          0.3740    1.5480   -1.5280 hc        1 06T      0.081700
     39 H3          0.2650    1.8200    0.2770 hc        1 06T      0.081700
     40 H4          4.0220    0.2770   -4.2270 hc        1 06T      0.112200
     41 H5          2.9730   -1.1450   -4.6130 hc        1 06T      0.112200
     42 H6          5.6290   -1.5930   -1.2280 hc        1 06T      0.072700
     43 H7          5.7390   -0.0200   -2.1520 hc        1 06T      0.072700
     44 H8          2.8870   -2.5860   -1.9370 hc        1 06T      0.057533
     45 H9          3.3110   -3.3080   -3.5450 hc        1 06T      0.057533
     46 H10         4.4440   -3.4990   -2.1480 hc        1 06T      0.057533
     47 H11         6.1060   -0.9240   -4.3220 hc        1 06T      0.057533
     48 H12         5.1690   -2.3610   -4.9050 hc        1 06T      0.057533
     49 H13         6.3010   -2.5340   -3.5020 hc        1 06T      0.057533
     50 H14         6.6270    0.2030   -0.2480 ha        1 06T      0.213000
     51 H15         8.4960   -0.1280    1.2380 ha        1 06T      0.172000
     52 H16         3.9150   -0.8960    2.9620 ha        1 06T      0.180000
     53 H17         5.6850   -1.6400    5.2480 hn        1 06T      0.486800
     54 H18         3.5460   -0.7130    4.9160 hx        1 06T      0.107700
     55 H19         4.5370    1.5010    3.9140 hc        1 06T      0.077700
     56 H20         2.3430    2.1520    5.9720 hx        1 06T      0.127200
     57 H21         2.0110    0.7880    4.8030 hx        1 06T      0.127200
     58 H22         3.6430    2.4890    2.3740 hx        1 06T      0.114700
     59 H23         1.9980    3.0380    1.8120 hx        1 06T      0.114700
     60 H24         1.0420    0.7920    2.0730 hc        1 06T      0.074200
     61 H25         2.5020    0.1710    2.9120 hc        1 06T      0.074200
     62 H26         0.5070    4.8310    2.9230 hx        1 06T      0.160700
     63 H27         0.7350    4.8280    6.0530 hc        1 06T      0.115700
     64 H28         1.9270    5.4600    4.8170 hc        1 06T      0.115700
     65 H29         0.3710    6.3110    5.0740 hc        1 06T      0.115700
     66 H30        -1.5960    5.4550    3.8230 hn        1 06T      0.499800
     67 H31        -1.7190    3.8530    3.3250 hn        1 06T      0.499800
     68 H33         4.7980    3.4190    5.4320 hc        1 06T      0.078033
     69 H34         4.4740    2.3920    6.8910 hc        1 06T      0.078033
     70 H35         5.9650    2.1270    5.9030 hc        1 06T      0.078033
     71 H36         5.0160    0.2820    7.4880 hc        1 06T      0.102033
     72 H37         3.2200    0.2170    7.2400 hc        1 06T      0.102033
     73 H38         4.1830   -1.3120    7.2170 hc        1 06T      0.102033
     74 H39        10.4610   -1.1750    4.1450 hn        1 06T      0.498800
     75 H40         9.7450   -1.7490    2.7370 hn        1 06T      0.498800
     76 H221        6.4150   -0.1570    5.5090 hn        1 06T      0.486800
     77 H311        2.6870    3.6120    4.1170 hn        1 06T      0.466800
     78 H43        -1.6240    4.2200    4.9560 hn        1 06T      0.499800
     79 H53        10.1900   -0.1370    2.8600 hn        1 06T      0.498800
@<TRIPOS>BOND
     1    1    2 1   
     2    1   37 1   
     3    1   38 1   
     4    1   39 1   
     5    2    3 2   
     6    2    6 1   
     7    3    4 1   
     8    3   26 1   
     9    4    5 1   
    10    4   14 1   
    11    5    6 2   
    12    5   11 1   
    13    6    7 1   
    14    7    8 2   
    15    7    9 1   
    16    9   10 1   
    17    9   40 1   
    18    9   41 1   
    19   10   11 1   
    20   10   12 1   
    21   10   13 1   
    22   11   42 1   
    23   11   43 1   
    24   12   44 1   
    25   12   45 1   
    26   12   46 1   
    27   13   47 1   
    28   13   48 1   
    29   13   49 1   
    30   14   15 ar  
    31   14   19 ar  
    32   15   16 ar  
    33   15   50 1   
    34   16   17 ar  
    35   16   51 1   
    36   17   18 ar  
    37   17   34 1   
    38   18   19 ar  
    39   18   20 1   
    40   19   52 1   
    41   20   21 1   
    42   20   53 1   
    43   20   76 1   
    44   21   22 1   
    45   21   33 1   
    46   21   54 1   
    47   22   23 1   
    48   22   32 1   
    49   22   55 1   
    50   23   24 1   
    51   23   56 1   
    52   23   57 1   
    53   24   25 1   
    54   24   27 1   
    55   24   77 1   
    56   25   26 1   
    57   25   58 1   
    58   25   59 1   
    59   26   60 1   
    60   26   61 1   
    61   27   28 2   
    62   27   29 1   
    63   29   30 1   
    64   29   31 1   
    65   29   62 1   
    66   30   63 1   
    67   30   64 1   
    68   30   65 1   
    69   31   66 1   
    70   31   67 1   
    71   31   78 1   
    72   32   68 1   
    73   32   69 1   
    74   32   70 1   
    75   33   71 1   
    76   33   72 1   
    77   33   73 1   
    78   34   35 2   
    79   34   36 1   
    80   36   74 1   
    81   36   75 1   
    82   36   79 1   
@<TRIPOS>SUBSTRUCTURE
     1 06T         1 TEMP              0 ****  ****    0 ROOT
