@<TRIPOS>MOLECULE
06T
   75    78     1     0     0
SMALL
bcc


@<TRIPOS>ATOM
      1 C1         -2.9340    3.1910    0.7540 c3        1 06T     -0.043800
      2 C2         -2.6680    1.7780    0.4720 cc        1 06T     -0.060300
      3 C3         -1.4040    1.1610    0.4110 cd        1 06T     -0.127600
      4 N1         -1.5890   -0.2120    0.1090 na        1 06T      0.017800
      5 C4         -2.9610   -0.4470   -0.0090 cd        1 06T     -0.038600
      6 C5         -3.6510    0.7630    0.2140 cc        1 06T     -0.238600
      7 C6         -5.1010    0.8370    0.1970 c         1 06T      0.613700
      8 O1         -5.7490    1.8660    0.4300 o         1 06T     -0.549100
      9 C7         -5.8030   -0.4500   -0.1640 c3        1 06T     -0.174400
     10 C8         -5.0710   -1.7180    0.2740 c3        1 06T     -0.040000
     11 C9         -3.6400   -1.7330   -0.2820 c3        1 06T     -0.016100
     12 C10        -5.0440   -1.8100    1.7920 c3        1 06T     -0.092100
     13 C11        -5.8140   -2.9260   -0.2840 c3        1 06T     -0.092100
     14 C12        -0.5930   -1.1890   -0.1240 ca        1 06T      0.058800
     15 C13        -0.7510   -2.1310   -1.1670 ca        1 06T     -0.200000
     16 C14         0.2190   -3.1010   -1.3680 ca        1 06T     -0.057000
     17 C15         1.3930   -3.1350   -0.6120 ca        1 06T     -0.218600
     18 C16         1.6130   -2.1550    0.3940 ca        1 06T      0.222600
     19 C17         0.5640   -1.2390    0.6660 ca        1 06T     -0.210000
     20 N2          2.7920   -2.1250    1.1440 nh        1 06T     -0.723600
     21 C18         3.2860   -0.8260    1.5940 c3        1 06T      0.201500
     22 C19         3.4660    0.2060    0.4450 c3        1 06T     -0.108700
     23 C20         2.9940    1.5990    0.9070 c3        1 06T      0.084000
     24 N3          2.1970    2.3330   -0.0580 n         1 06T     -0.466800
     25 C21         0.9060    1.7820   -0.3990 c3        1 06T      0.083000
     26 C22        -0.1320    1.8460    0.7280 c3        1 06T     -0.033100
     27 C23         2.5940    3.6080   -0.4360 c         1 06T      0.612100
     28 O2          3.6910    4.0640   -0.0450 o         1 06T     -0.623100
     29 C24         1.7030    4.4800   -1.3580 c3        1 06T      0.113500
     30 C25         1.9450    4.0230   -2.7970 c3        1 06T     -0.095100
     31 N4          1.9310    5.9000   -1.1880 n3        1 06T     -0.884800
     32 C26         4.8840    0.2720   -0.0750 c3        1 06T     -0.091100
     33 C27         4.5670   -0.9860    2.4120 c3        1 06T     -0.098100
     34 C28         2.4230   -4.1690   -0.9080 c         1 06T      0.681700
     35 O3          3.6390   -3.8990   -1.0230 o         1 06T     -0.628100
     36 N5          1.9990   -5.4650   -1.0660 n         1 06T     -0.667000
     37 H1         -2.4140    3.8470    0.0110 hc        1 06T      0.054700
     38 H2         -4.0340    3.3980    0.7040 hc        1 06T      0.054700
     39 H3         -2.5690    3.4630    1.7770 hc        1 06T      0.054700
     40 H4         -6.8310   -0.4430    0.2880 hc        1 06T      0.072700
     41 H5         -5.9230   -0.4580   -1.2810 hc        1 06T      0.072700
     42 H6         -3.6890   -1.8920   -1.3950 hc        1 06T      0.061200
     43 H7         -3.0740   -2.5940    0.1630 hc        1 06T      0.061200
     44 H8         -6.0850   -1.8130    2.1960 hc        1 06T      0.040867
     45 H9         -4.5350   -2.7500    2.1140 hc        1 06T      0.040867
     46 H10        -4.4950   -0.9380    2.2220 hc        1 06T      0.040867
     47 H11        -5.8650   -2.8770   -1.3980 hc        1 06T      0.040867
     48 H12        -5.2910   -3.8680    0.0090 hc        1 06T      0.040867
     49 H13        -6.8540   -2.9550    0.1200 hc        1 06T      0.040867
     50 H14        -1.6270   -2.0960   -1.8310 ha        1 06T      0.149000
     51 H15         0.0700   -3.8390   -2.1730 ha        1 06T      0.140000
     52 H16         0.6700   -0.5380    1.5100 ha        1 06T      0.157000
     53 H17         3.5220   -2.7090    0.7780 hn        1 06T      0.429800
     54 H18         2.5000   -0.4290    2.3080 h1        1 06T      0.054700
     55 H19         2.8270   -0.1320   -0.4240 hc        1 06T      0.063700
     56 H20         2.3820    1.4980    1.8500 h1        1 06T      0.060700
     57 H21         3.9050    2.2160    1.1670 h1        1 06T      0.060700
     58 H22         0.4860    2.3050   -1.3030 h1        1 06T      0.061700
     59 H23         1.0530    0.7030   -0.6940 h1        1 06T      0.061700
     60 H24        -0.3760    2.9260    0.9350 hc        1 06T      0.061200
     61 H25         0.2910    1.4250    1.6800 hc        1 06T      0.061200
     62 H26         0.6180    4.3090   -1.0870 h1        1 06T      0.072700
     63 H27         1.7090    2.9370   -2.8970 hc        1 06T      0.050700
     64 H28         1.2930    4.5990   -3.4970 hc        1 06T      0.050700
     65 H29         3.0120    4.1830   -3.0880 hc        1 06T      0.050700
     66 H30         1.8640    6.1460   -0.2190 hn        1 06T      0.359800
     67 H31         2.8450    6.1510   -1.5170 hn        1 06T      0.359800
     68 H33         5.5870    0.6690    0.6960 hc        1 06T      0.043367
     69 H34         5.2290   -0.7440   -0.3870 hc        1 06T      0.043367
     70 H35         4.9270    0.9510   -0.9620 hc        1 06T      0.043367
     71 H36         5.3860   -1.4520    1.8130 hc        1 06T      0.048700
     72 H37         4.8990    0.0250    2.7520 hc        1 06T      0.048700
     73 H38         4.3790   -1.6230    3.3100 hc        1 06T      0.048700
     74 H39         1.0560   -5.7140   -0.9160 hn        1 06T      0.315000
     75 H40         2.6640   -6.1760   -1.2440 hn        1 06T      0.315000
@<TRIPOS>BOND
     1    1    2 1   
     2    1   37 1   
     3    1   38 1   
     4    1   39 1   
     5    2    3 2   
     6    2    6 1   
     7    3    4 1   
     8    3   26 1   
     9    4    5 1   
    10    4   14 1   
    11    5    6 2   
    12    5   11 1   
    13    6    7 1   
    14    7    8 2   
    15    7    9 1   
    16    9   10 1   
    17    9   40 1   
    18    9   41 1   
    19   10   11 1   
    20   10   12 1   
    21   10   13 1   
    22   11   42 1   
    23   11   43 1   
    24   12   44 1   
    25   12   45 1   
    26   12   46 1   
    27   13   47 1   
    28   13   48 1   
    29   13   49 1   
    30   14   15 ar  
    31   14   19 ar  
    32   15   16 ar  
    33   15   50 1   
    34   16   17 ar  
    35   16   51 1   
    36   17   18 ar  
    37   17   34 1   
    38   18   19 ar  
    39   18   20 1   
    40   19   52 1   
    41   20   21 1   
    42   20   53 1   
    43   21   22 1   
    44   21   33 1   
    45   21   54 1   
    46   22   23 1   
    47   22   32 1   
    48   22   55 1   
    49   23   24 1   
    50   23   56 1   
    51   23   57 1   
    52   24   25 1   
    53   24   27 1   
    54   25   26 1   
    55   25   58 1   
    56   25   59 1   
    57   26   60 1   
    58   26   61 1   
    59   27   28 2   
    60   27   29 1   
    61   29   30 1   
    62   29   31 1   
    63   29   62 1   
    64   30   63 1   
    65   30   64 1   
    66   30   65 1   
    67   31   66 1   
    68   31   67 1   
    69   32   68 1   
    70   32   69 1   
    71   32   70 1   
    72   33   71 1   
    73   33   72 1   
    74   33   73 1   
    75   34   35 2   
    76   34   36 1   
    77   36   74 1   
    78   36   75 1   
@<TRIPOS>SUBSTRUCTURE
     1 06T         1 TEMP              0 ****  ****    0 ROOT
