@<TRIPOS>MOLECULE
06T
   78    81     1     0     0
SMALL
bcc


@<TRIPOS>ATOM
      1 C1          0.0690    0.1720    0.5710 c3        1 06T     -0.065800
      2 C2          1.5340    0.1350    0.5530 cc        1 06T     -0.094300
      3 C3          2.3650   -0.5340    1.4680 cd        1 06T     -0.200600
      4 N1          3.6900   -0.5820    0.9390 na        1 06T      0.012800
      5 C4          3.6840    0.1270   -0.2720 cd        1 06T      0.037400
      6 C5          2.3850    0.6330   -0.4870 cc        1 06T     -0.288600
      7 C6          2.1100    1.6080   -1.5320 c         1 06T      0.656700
      8 O1          1.1910    2.4370   -1.3740 o         1 06T     -0.643100
      9 C7          3.0670    1.6510   -2.6780 c3        1 06T     -0.177400
     10 C8          4.1730    0.5910   -2.6600 c3        1 06T     -0.040000
     11 C9          4.7650    0.3660   -1.2550 c3        1 06T     -0.040100
     12 C10         3.6320   -0.7260   -3.2030 c3        1 06T     -0.103600
     13 C11         5.3030    1.0690   -3.5670 c3        1 06T     -0.103600
     14 C12         4.8440   -0.8620    1.7080 ca        1 06T      0.125800
     15 C13         6.0320   -1.4220    1.1660 ca        1 06T     -0.174000
     16 C14         7.1390   -1.5680    1.9780 ca        1 06T     -0.012000
     17 C15         7.1790   -1.1450    3.3270 ca        1 06T     -0.289600
     18 C16         5.9970   -0.5610    3.8920 ca        1 06T      0.323600
     19 C17         4.8390   -0.5370    3.0610 ca        1 06T     -0.299000
     20 N2          5.9120   -0.0030    5.1360 nu        1 06T     -0.741600
     21 C18         4.6550    0.4810    5.6970 c3        1 06T      0.232500
     22 C19         4.1280    1.7720    4.9930 c3        1 06T     -0.102700
     23 C20         2.5870    1.8030    4.9310 c3        1 06T      0.106800
     24 N3          1.9920    1.2730    3.6390 nx        1 06T     -0.581200
     25 C21         1.4340   -0.1280    3.7870 c3        1 06T      0.102800
     26 C22         1.8680   -1.1460    2.7160 c3        1 06T     -0.037100
     27 C23         0.9490    2.2180    3.1050 c         1 06T      0.513100
     28 O2         -0.1590    2.2480    3.6190 o         1 06T     -0.371100
     29 C24         1.3710    3.1240    1.9300 c3        1 06T      0.068500
     30 C25         2.0140    4.3810    2.5080 c3        1 06T     -0.151100
     31 N4          0.2020    3.4410    1.0470 nz        1 06T     -0.847600
     32 C26         4.6000    3.0320    5.6960 c3        1 06T     -0.110100
     33 C27         4.7710    0.6780    7.2100 c3        1 06T     -0.124100
     34 C28         8.3720   -1.2790    4.1420 c         1 06T      0.580700
     35 O3          8.6300   -0.7620    5.2260 o         1 06T     -0.446100
     36 N5          9.4790   -2.1910    3.6530 nz        1 06T     -0.752400
     37 H1         -0.3370   -0.8750    0.5060 hc        1 06T      0.068033
     38 H2         -0.3300    0.7330   -0.3140 hc        1 06T      0.068033
     39 H3         -0.3210    0.6270    1.5180 hc        1 06T      0.068033
     40 H4          3.5250    2.6800   -2.7010 hc        1 06T      0.113700
     41 H5          2.4770    1.5460   -3.6340 hc        1 06T      0.113700
     42 H6          5.3560    1.2720   -0.9450 hc        1 06T      0.081700
     43 H7          5.4740   -0.5020   -1.3100 hc        1 06T      0.081700
     44 H8          4.4380   -1.4990   -3.2220 hc        1 06T      0.058533
     45 H9          3.2600   -0.5880   -4.2480 hc        1 06T      0.058533
     46 H10         2.7910   -1.0970   -2.5700 hc        1 06T      0.058533
     47 H11         4.9130    1.2510   -4.5980 hc        1 06T      0.058533
     48 H12         5.7480    2.0180   -3.1830 hc        1 06T      0.058533
     49 H13         6.1040    0.2940   -3.6270 hc        1 06T      0.058533
     50 H14         6.0680   -1.7720    0.1210 ha        1 06T      0.189000
     51 H15         8.0300   -2.0270    1.5140 ha        1 06T      0.147000
     52 H16         3.8960   -0.2710    3.5450 ha        1 06T      0.124000
     53 H17         6.7080    0.0110    5.7420 hn        1 06T      0.486800
     54 H18         3.8770   -0.3310    5.5390 h1        1 06T      0.043700
     55 H19         4.5490    1.8160    3.9460 hc        1 06T      0.062700
     56 H20         2.2420    2.8750    5.0380 hx        1 06T      0.122200
     57 H21         2.1480    1.2250    5.7960 hx        1 06T      0.122200
     58 H22         1.7510   -0.5250    4.7960 hx        1 06T      0.125200
     59 H23         0.3060   -0.0510    3.8000 hx        1 06T      0.125200
     60 H24         0.9510   -1.7590    2.4620 hc        1 06T      0.116200
     61 H25         2.6100   -1.8640    3.1600 hc        1 06T      0.116200
     62 H26         2.1100    2.5750    1.2570 hx        1 06T      0.149700
     63 H27         1.3000    4.9570    3.1500 hc        1 06T      0.105033
     64 H28         2.9010    4.0910    3.1270 hc        1 06T      0.105033
     65 H29         2.3770    5.0540    1.6870 hc        1 06T      0.105033
     66 H30        -0.6590    3.5780    1.5910 hn        1 06T      0.496800
     67 H31         0.0670    2.6750    0.3490 hn        1 06T      0.496800
     68 H33         4.1220    3.1510    6.6990 hc        1 06T      0.072700
     69 H34         5.7090    2.9940    5.8370 hc        1 06T      0.072700
     70 H35         4.3590    3.9330    5.0800 hc        1 06T      0.072700
     71 H36         5.5810    1.3990    7.4810 hc        1 06T      0.079367
     72 H37         4.9850   -0.2970    7.7150 hc        1 06T      0.079367
     73 H38         3.8000    1.0680    7.6010 hc        1 06T      0.079367
     74 H39        10.1900   -2.2880    4.3960 hn        1 06T      0.479800
     75 H40         9.9290   -1.7940    2.8220 hn        1 06T      0.479800
     76 H311        2.7470    1.2360    2.9350 hn        1 06T      0.458800
     77 H43         0.4060    4.3020    0.5150 hn        1 06T      0.496800
     78 H53         9.1060   -3.1180    3.4240 hn        1 06T      0.479800
@<TRIPOS>BOND
     1    1    2 1   
     2    1   37 1   
     3    1   38 1   
     4    1   39 1   
     5    2    3 2   
     6    2    6 1   
     7    3    4 1   
     8    3   26 1   
     9    4    5 1   
    10    4   14 1   
    11    5    6 2   
    12    5   11 1   
    13    6    7 1   
    14    7    8 2   
    15    7    9 1   
    16    9   10 1   
    17    9   40 1   
    18    9   41 1   
    19   10   11 1   
    20   10   12 1   
    21   10   13 1   
    22   11   42 1   
    23   11   43 1   
    24   12   44 1   
    25   12   45 1   
    26   12   46 1   
    27   13   47 1   
    28   13   48 1   
    29   13   49 1   
    30   14   15 ar  
    31   14   19 ar  
    32   15   16 ar  
    33   15   50 1   
    34   16   17 ar  
    35   16   51 1   
    36   17   18 ar  
    37   17   34 1   
    38   18   19 ar  
    39   18   20 1   
    40   19   52 1   
    41   20   21 1   
    42   20   53 1   
    43   21   22 1   
    44   21   33 1   
    45   21   54 1   
    46   22   23 1   
    47   22   32 1   
    48   22   55 1   
    49   23   24 1   
    50   23   56 1   
    51   23   57 1   
    52   24   25 1   
    53   24   27 1   
    54   24   76 1   
    55   25   26 1   
    56   25   58 1   
    57   25   59 1   
    58   26   60 1   
    59   26   61 1   
    60   27   28 2   
    61   27   29 1   
    62   29   30 1   
    63   29   31 1   
    64   29   62 1   
    65   30   63 1   
    66   30   64 1   
    67   30   65 1   
    68   31   66 1   
    69   31   67 1   
    70   31   77 1   
    71   32   68 1   
    72   32   69 1   
    73   32   70 1   
    74   33   71 1   
    75   33   72 1   
    76   33   73 1   
    77   34   35 2   
    78   34   36 1   
    79   36   74 1   
    80   36   75 1   
    81   36   78 1   
@<TRIPOS>SUBSTRUCTURE
     1 06T         1 TEMP              0 ****  ****    0 ROOT
