@<TRIPOS>MOLECULE
06U
   53    55     1     0     0
SMALL
bcc


@<TRIPOS>ATOM
      1 N1         -0.9470    0.6540    0.7600 nb        1 06U     -0.663000
      2 C2          0.3500    0.6400    0.3550 ca        1 06U      0.726900
      3 N3          1.4690    0.3850    1.1230 nb        1 06U     -0.635000
      4 C4          1.2640    0.1150    2.4220 ca        1 06U      0.533600
      5 C5         -0.0730    0.0940    2.9810 ca        1 06U     -0.028600
      6 C6         -1.1420    0.3760    2.0880 ca        1 06U      0.485200
      7 CAA        -7.0110    0.8280    8.3960 ca        1 06U     -0.230300
      8 NAH         0.6120    0.9350   -1.0850 n4        1 06U     -0.813300
      9 CAI         2.4090   -0.1770    3.3470 c3        1 06U     -0.148700
     10 NAJ        -2.5340    0.3780    2.5750 n4        1 06U     -0.820300
     11 CAK        -0.3290   -0.1910    4.3140 cg        1 06U     -0.318000
     12 CAL        -0.6380   -0.4460    5.4520 c1        1 06U      0.145900
     13 CAM        -1.2750   -0.7150    6.7230 c3        1 06U      0.019700
     14 CAN        -1.0140   -2.1340    7.2040 c3        1 06U     -0.092100
     15 CAO        -2.7470   -0.4510    6.5120 ca        1 06U     -0.062300
     16 CAP        -3.3140   -0.8310    5.2880 ca        1 06U     -0.251000
     17 CAQ        -4.6170   -0.4210    4.9830 ca        1 06U      0.105100
     18 CAR        -5.4030    0.2440    5.9300 ca        1 06U     -0.156000
     19 CAS        -4.8560    0.5400    7.1860 cp        1 06U      0.046000
     20 CAT        -3.5120    0.2210    7.4610 ca        1 06U     -0.116000
     21 CAU        -5.6730    1.2020    8.2010 cp        1 06U     -0.050000
     22 CAV        -5.1380    2.2190    9.0050 ca        1 06U     -0.230300
     23 CAW        -5.9690    2.8210    9.9680 ca        1 06U      0.411200
     24 NAX        -7.2550    2.4710   10.1650 nb        1 06U     -0.625000
     25 CAY        -7.7550    1.4900    9.3900 ca        1 06U      0.411200
     26 CAZ         3.7790   -0.1110    2.7260 c3        1 06U     -0.102100
     27 OBA        -5.0020   -0.6370    3.6680 os        1 06U     -0.420900
     28 CBB        -6.3990   -0.8880    3.4680 c3        1 06U      0.117700
     29 HNAH       -0.2700    1.1100   -1.5890 hn        1 06U      0.496467
     30 HNAA        1.2190    1.7660   -1.1510 hn        1 06U      0.496467
     31 HAI         2.3400    0.5580    4.2010 hc        1 06U      0.103200
     32 HAIA        2.2320   -1.2050    3.7760 hc        1 06U      0.103200
     33 HNAJ       -3.0960    1.1040    2.1090 hn        1 06U      0.495467
     34 HNAB       -2.5470    0.5430    3.6020 hn        1 06U      0.495467
     35 HAM        -0.8670    0.0060    7.4970 hc        1 06U      0.122700
     36 HAN         0.0810   -2.3030    7.3420 hc        1 06U      0.070033
     37 HANA       -1.5270   -2.2870    8.1870 hc        1 06U      0.070033
     38 HANB       -1.4120   -2.8810    6.4770 hc        1 06U      0.070033
     39 HAP        -2.7770   -1.5110    4.6110 ha        1 06U      0.131000
     40 HAR        -6.4420    0.5280    5.7000 ha        1 06U      0.171000
     41 HAT        -3.0790    0.4950    8.4370 ha        1 06U      0.168000
     42 HAV        -4.0990    2.5510    8.8900 ha        1 06U      0.143500
     43 HAW        -5.5860    3.6290   10.6200 h4        1 06U      0.044100
     44 HAY        -8.8120    1.2190    9.5790 h4        1 06U      0.044100
     45 HAZ         4.5440   -0.3400    3.5110 hc        1 06U      0.067033
     46 HAZA        3.9930    0.9070    2.3190 hc        1 06U      0.067033
     47 HAZB        3.8900   -0.8580    1.9040 hc        1 06U      0.067033
     48 HBB        -6.9640    0.0720    3.5510 h1        1 06U      0.065700
     49 HBBA       -6.4500   -1.2940    2.4260 h1        1 06U      0.065700
     50 HBBB       -6.7750   -1.6360    4.2050 h1        1 06U      0.065700
     51 HAH3        1.0970    0.1280   -1.5090 hn        1 06U      0.496467
     52 HAJ3       -2.9820   -0.5400    2.4050 hn        1 06U      0.495467
     53 HAA        -7.4710    0.0270    7.8030 ha        1 06U      0.143500
@<TRIPOS>BOND
     1    1    2 ar  
     2    1    6 ar  
     3    2    3 ar  
     4    2    8 1   
     5    3    4 ar  
     6    4    5 ar  
     7    4    9 1   
     8    5    6 ar  
     9    5   11 1   
    10    6   10 1   
    11    7   21 ar  
    12    7   25 ar  
    13    7   53 1   
    14    8   29 1   
    15    8   30 1   
    16    8   51 1   
    17    9   26 1   
    18    9   31 1   
    19    9   32 1   
    20   10   33 1   
    21   10   34 1   
    22   10   52 1   
    23   11   12 3   
    24   12   13 1   
    25   13   14 1   
    26   13   15 1   
    27   13   35 1   
    28   14   36 1   
    29   14   37 1   
    30   14   38 1   
    31   15   16 ar  
    32   15   20 ar  
    33   16   17 ar  
    34   16   39 1   
    35   17   18 ar  
    36   17   27 1   
    37   18   19 ar  
    38   18   40 1   
    39   19   20 ar  
    40   19   21 1   
    41   20   41 1   
    42   21   22 ar  
    43   22   23 ar  
    44   22   42 1   
    45   23   24 ar  
    46   23   43 1   
    47   24   25 ar  
    48   25   44 1   
    49   26   45 1   
    50   26   46 1   
    51   26   47 1   
    52   27   28 1   
    53   28   48 1   
    54   28   49 1   
    55   28   50 1   
@<TRIPOS>SUBSTRUCTURE
     1 06U         1 TEMP              0 ****  ****    0 ROOT
