@<TRIPOS>MOLECULE
06U
   51    53     1     0     0
SMALL
bcc


@<TRIPOS>ATOM
      1 N1          0.3890   -1.1740    0.3530 nb        1 06U     -0.829000
      2 C2          1.2620   -0.2030   -0.1010 ca        1 06U      0.915900
      3 N3          1.8020    0.8240    0.6670 nb        1 06U     -0.791000
      4 C4          1.3940    0.9020    1.9480 ca        1 06U      0.538600
      5 C5          0.4810   -0.0210    2.5180 ca        1 06U     -0.336600
      6 C6          0.0070   -1.0850    1.6650 ca        1 06U      0.740200
      7 CAA         0.4270   -5.4070    8.4320 ca        1 06U     -0.236800
      8 NAH         1.5860   -0.2240   -1.4590 nv        1 06U     -0.931500
      9 CAI         1.9530    2.0160    2.7950 c3        1 06U     -0.138700
     10 NAJ        -0.8070   -2.0740    2.1830 nv        1 06U     -0.951500
     11 CAK         0.0490    0.0700    3.8440 cg        1 06U     -0.081000
     12 CAL        -0.3310    0.1360    4.9800 c1        1 06U     -0.155100
     13 CAM        -0.8010    0.2400    6.3360 c3        1 06U      0.068700
     14 CAN         0.2480    0.8890    7.2310 c3        1 06U     -0.085100
     15 CAO        -1.1970   -1.1030    6.8860 ca        1 06U     -0.049300
     16 CAP        -2.4640   -1.2760    7.4380 ca        1 06U     -0.146000
     17 CAQ        -2.8180   -2.5320    7.9660 ca        1 06U      0.123100
     18 CAR        -1.9200   -3.6020    7.9440 ca        1 06U     -0.190000
     19 CAS        -0.6480   -3.4180    7.3810 cp        1 06U     -0.015000
     20 CAT        -0.2930   -2.1720    6.8550 ca        1 06U     -0.136000
     21 CAU         0.3010   -4.5290    7.3450 cp        1 06U      0.000000
     22 CAV         1.1130   -4.7470    6.2220 ca        1 06U     -0.236800
     23 CAW         2.0080   -5.8300    6.2360 ca        1 06U      0.392200
     24 NAX         2.1380   -6.6790    7.2730 nb        1 06U     -0.663000
     25 CAY         1.3550   -6.4590    8.3470 ca        1 06U      0.392200
     26 CAZ         1.4640    3.3670    2.3330 c3        1 06U     -0.088100
     27 OBA        -4.0960   -2.5960    8.4870 os        1 06U     -0.326900
     28 CBB        -4.4960   -3.8530    9.0210 c3        1 06U      0.112700
     29 HNAH        1.4090   -1.0660   -1.9550 hn        1 06U      0.430800
     30 HNAA        2.3750    0.3080   -1.7420 hn        1 06U      0.430800
     31 HAI         1.6570    1.8510    3.8650 hc        1 06U      0.062700
     32 HAIA        3.0750    1.9850    2.7490 hc        1 06U      0.062700
     33 HNAJ       -1.2590   -2.7030    1.5630 hn        1 06U      0.434800
     34 HNAB       -1.2450   -1.8870    3.0530 hn        1 06U      0.434800
     35 HAM        -1.7170    0.9100    6.3320 hc        1 06U      0.069700
     36 HAN         0.5360    1.8860    6.8210 hc        1 06U      0.044367
     37 HANA       -0.1650    1.0250    8.2590 hc        1 06U      0.044367
     38 HANB        1.1600    0.2490    7.2920 hc        1 06U      0.044367
     39 HAP        -3.1940   -0.4540    7.4710 ha        1 06U      0.152000
     40 HAR        -2.1960   -4.5850    8.3510 ha        1 06U      0.143000
     41 HAT         0.7060   -2.0230    6.4140 ha        1 06U      0.147000
     42 HAV         1.0490   -4.0890    5.3440 ha        1 06U      0.147500
     43 HAW         2.6610   -6.0310    5.3670 h4        1 06U      0.023100
     44 HAY         1.4820   -7.1660    9.1860 h4        1 06U      0.023100
     45 HAZ         1.8050    3.5790    1.2910 hc        1 06U      0.041367
     46 HAZA        0.3490    3.4140    2.3570 hc        1 06U      0.041367
     47 HAZB        1.8660    4.1620    3.0070 hc        1 06U      0.041367
     48 HBB        -3.8410   -4.1430    9.8780 h1        1 06U      0.045367
     49 HBBA       -4.4790   -4.6420    8.2300 h1        1 06U      0.045367
     50 HBBB       -5.5430   -3.6660    9.3690 h1        1 06U      0.045367
     51 HAA        -0.1790   -5.2720    9.3380 ha        1 06U      0.147500
@<TRIPOS>BOND
     1    1    2 ar  
     2    1    6 ar  
     3    2    3 ar  
     4    2    8 1   
     5    3    4 ar  
     6    4    5 ar  
     7    4    9 1   
     8    5    6 ar  
     9    5   11 1   
    10    6   10 1   
    11    7   21 ar  
    12    7   25 ar  
    13    7   51 1   
    14    8   29 1   
    15    8   30 1   
    16    9   26 1   
    17    9   31 1   
    18    9   32 1   
    19   10   33 1   
    20   10   34 1   
    21   11   12 3   
    22   12   13 1   
    23   13   14 1   
    24   13   15 1   
    25   13   35 1   
    26   14   36 1   
    27   14   37 1   
    28   14   38 1   
    29   15   16 ar  
    30   15   20 ar  
    31   16   17 ar  
    32   16   39 1   
    33   17   18 ar  
    34   17   27 1   
    35   18   19 ar  
    36   18   40 1   
    37   19   20 ar  
    38   19   21 1   
    39   20   41 1   
    40   21   22 ar  
    41   22   23 ar  
    42   22   42 1   
    43   23   24 ar  
    44   23   43 1   
    45   24   25 ar  
    46   25   44 1   
    47   26   45 1   
    48   26   46 1   
    49   26   47 1   
    50   27   28 1   
    51   28   48 1   
    52   28   49 1   
    53   28   50 1   
@<TRIPOS>SUBSTRUCTURE
     1 06U         1 TEMP              0 ****  ****    0 ROOT
