@<TRIPOS>MOLECULE
06U
   51    43     1     0     0
SMALL
bcc


@<TRIPOS>ATOM
      1 N1          2.9090   -1.1280   -4.6720 n1        1 06U     -0.305000
      2 C2          3.8820   -0.1790   -4.8890 c1        1 06U      0.196000
      3 N3          4.2310    0.6800   -3.8880 n1        1 06U     -0.266000
      4 C4          3.6270    0.6020   -2.6910 c1        1 06U      0.116000
      5 C5          2.6530   -0.3480   -2.4750 c1        1 06U     -0.203000
      6 C6          2.3040   -1.2090   -3.4790 c2        1 06U      0.223000
      7 CAA        -3.6440    0.5280    4.4340 c1        1 06U     -0.173000
      8 NAH         4.6440   -0.2060   -6.0950 n3        1 06U     -0.329000
      9 CAI         4.1530    1.4500   -1.5110 c3        1 06U     -0.123000
     10 NAJ         1.3700   -2.2770   -3.6480 n3        1 06U     -0.350000
     11 CAK         2.0090   -0.4740   -1.1080 c1        1 06U     -0.133000
     12 CAL         1.5070   -0.5720   -0.0270 c1        1 06U     -0.133000
     13 CAM         0.8880   -0.6960    1.3300 c2        1 06U      0.050000
     14 CAN         1.0650   -2.1030    1.8360 c3        1 06U     -0.204000
     15 CAO        -0.6240   -0.3640    1.2460 c2        1 06U     -0.035000
     16 CAP        -1.4150   -0.9630    0.2620 c2        1 06U     -0.145000
     17 CAQ        -2.7960   -0.7800    0.2710 c1        1 06U      0.078000
     18 CAR        -3.3920    0.0020    1.2610 c2        1 06U     -0.189000
     19 CAS        -2.6070    0.6020    2.2460 c1        1 06U     -0.012000
     20 CAT        -1.2240    0.4210    2.2420 c1        1 06U     -0.142000
     21 CAU        -3.2330    1.2550    3.3450 c1        1 06U      0.000000
     22 CAV        -3.4570    2.5990    3.2990 c1        1 06U     -0.121000
     23 CAW        -4.1000    3.2280    4.3520 c1        1 06U     -0.121000
     24 NAX        -4.5100    2.5020    5.4370 n1        1 06U     -0.136000
     25 CAY        -4.2850    1.1590    5.4830 c1        1 06U     -0.073000
     26 CAZ         4.2920    2.9220   -1.9570 c3        1 06U     -0.206000
     27 OBA        -3.6080   -1.4380   -0.6930 o         1 06U     -0.213000
     28 CBB        -4.2030   -2.6480   -0.2180 c3        1 06U     -0.077000
     29 HAA        -3.4830   -0.4470    4.4680 ha        1 06U      0.145000
     30 HNAH        4.4080   -0.7560   -6.7580 hn        1 06U      0.225000
     31 HNAA        5.4320    0.3210   -6.1710 hn        1 06U      0.225000
     32 HAI         3.5180    1.3930   -0.7550 hc        1 06U      0.101500
     33 HAIA        5.0470    1.1010   -1.2250 hc        1 06U      0.101500
     34 HNAJ        1.1490   -2.5660   -4.4940 hn        1 06U      0.232500
     35 HNAB        0.9750   -2.6390   -2.9380 hn        1 06U      0.232500
     36 HAM         1.3220   -0.0770    1.9400 ha        1 06U      0.109000
     37 HAN         0.5940   -2.2050    2.6680 hc        1 06U      0.084000
     38 HANA        0.7010   -2.7460    1.1660 hc        1 06U      0.084000
     39 HANB        2.0210   -2.2820    1.9760 hc        1 06U      0.084000
     40 HAP        -0.9980   -1.5160   -0.4380 ha        1 06U      0.154000
     41 HAR        -4.3700    0.1300    1.2650 ha        1 06U      0.143000
     42 HAT        -0.6660    0.8480    2.9420 ha        1 06U      0.140000
     43 HAV        -3.1670    3.1130    2.5310 ha        1 06U      0.154500
     44 HAW        -4.2640    4.2030    4.3200 ha        1 06U      0.154500
     45 HAY        -4.5850    0.6290    6.2780 ha        1 06U      0.160000
     46 HAZ         4.6570    3.4540   -1.2200 hc        1 06U      0.080667
     47 HAZA        4.8950    2.9740   -2.7260 hc        1 06U      0.080667
     48 HAZB        3.4040    3.2770   -2.2100 hc        1 06U      0.080667
     49 HBB        -4.7620   -2.4510    0.5880 h1        1 06U      0.085333
     50 HBBA       -4.7680   -3.0310   -0.9200 h1        1 06U      0.085333
     51 HBBB       -3.4950   -3.2890    0.0210 h1        1 06U      0.085333
@<TRIPOS>BOND
     1    1    6 1   
     2    2    3 1   
     3    2    8 1   
     4    4    5 1   
     5    4    9 1   
     6    5    6 1   
     7    6   10 1   
     8    7   21 1   
     9    7   29 1   
    10    8   30 1   
    11    8   31 1   
    12    9   26 1   
    13    9   32 1   
    14    9   33 1   
    15   10   34 1   
    16   10   35 1   
    17   11   12 1   
    18   13   14 1   
    19   13   15 1   
    20   13   36 1   
    21   14   37 1   
    22   14   38 1   
    23   14   39 1   
    24   15   16 1   
    25   15   20 1   
    26   16   17 1   
    27   16   40 1   
    28   17   18 1   
    29   18   19 1   
    30   18   41 1   
    31   20   42 1   
    32   22   23 1   
    33   22   43 1   
    34   23   44 1   
    35   24   25 1   
    36   25   45 1   
    37   26   46 1   
    38   26   47 1   
    39   26   48 1   
    40   27   28 1   
    41   28   49 1   
    42   28   50 1   
    43   28   51 1   
@<TRIPOS>SUBSTRUCTURE
     1 06U         1 TEMP              0 ****  ****    0 ROOT
