@<TRIPOS>MOLECULE
06U
   51    53     1     0     0
SMALL
bcc


@<TRIPOS>ATOM
      1 N1          4.8880   -1.5900   -1.0110 nb        1 06U     -0.831000
      2 C2          5.9000   -0.6490   -0.9700 ca        1 06U      0.914900
      3 N3          5.8190    0.6030   -0.3680 nb        1 06U     -0.792000
      4 C4          4.6330    0.9390    0.1750 ca        1 06U      0.538600
      5 C5          3.5150    0.0680    0.1690 ca        1 06U     -0.337600
      6 C6          3.6990   -1.2320   -0.4340 ca        1 06U      0.744200
      7 CAA        -5.8570    0.1390   -0.1290 ca        1 06U     -0.236800
      8 NAH         7.0870   -0.9620   -1.6380 nh        1 06U     -0.931500
      9 CAI         4.5160    2.2960    0.8190 c3        1 06U     -0.138700
     10 NAJ         2.6800   -2.1620   -0.3920 nh        1 06U     -0.952500
     11 CAK         2.2800    0.4200    0.7190 cg        1 06U     -0.076000
     12 CAL         1.2070    0.6930    1.1820 c1        1 06U     -0.159100
     13 CAM        -0.0800    1.0360    1.7260 c3        1 06U      0.069700
     14 CAN        -0.0930    0.8900    3.2440 c3        1 06U     -0.086100
     15 CAO        -1.1730    0.2020    1.1160 ca        1 06U     -0.042300
     16 CAP        -1.0280   -1.1810    1.0180 ca        1 06U     -0.145000
     17 CAQ        -2.0670   -1.9430    0.4550 ca        1 06U      0.123100
     18 CAR        -3.2420   -1.3360    0.0010 ca        1 06U     -0.189000
     19 CAS        -3.3760    0.0560    0.1040 cp        1 06U     -0.012000
     20 CAT        -2.3420    0.8200    0.6560 ca        1 06U     -0.142000
     21 CAU        -4.5960    0.7070   -0.3700 cp        1 06U      0.000000
     22 CAV        -4.5390    1.9170   -1.0770 ca        1 06U     -0.236800
     23 CAW        -5.7410    2.5020   -1.5120 ca        1 06U      0.392700
     24 NAX        -6.9570    1.9670   -1.2860 nb        1 06U     -0.662000
     25 CAY        -6.9990    0.8060   -0.6050 ca        1 06U      0.392700
     26 CAZ         4.6020    3.4060   -0.1990 c3        1 06U     -0.088100
     27 OBA        -1.8150   -3.3010    0.3900 os        1 06U     -0.329900
     28 CBB        -2.8570   -4.1090   -0.1430 c3        1 06U      0.112700
     29 HNAH        7.2460   -1.9170   -1.8540 hn        1 06U      0.429800
     30 HNAA        7.8840   -0.4130   -1.4180 hn        1 06U      0.429800
     31 HAI         3.5390    2.3610    1.3690 hc        1 06U      0.062200
     32 HAIA        5.3370    2.4150    1.5780 hc        1 06U      0.062200
     33 HNAJ        2.7520   -2.9910   -0.9310 hn        1 06U      0.437300
     34 HNAB        1.7730   -1.8360   -0.1570 hn        1 06U      0.437300
     35 HAM        -0.2770    2.1250    1.4790 hc        1 06U      0.069700
     36 HAN        -1.0820    1.2170    3.6460 hc        1 06U      0.044700
     37 HANA        0.0790   -0.1740    3.5350 hc        1 06U      0.044700
     38 HANB        0.7090    1.5200    3.6960 hc        1 06U      0.044700
     39 HAP        -0.1160   -1.6810    1.3760 ha        1 06U      0.154000
     40 HAR        -4.0550   -1.9280   -0.4410 ha        1 06U      0.143000
     41 HAT        -2.4530    1.9120    0.7350 ha        1 06U      0.140000
     42 HAV        -3.5760    2.3960   -1.2960 ha        1 06U      0.146500
     43 HAW        -5.7320    3.4530   -2.0750 h4        1 06U      0.023600
     44 HAY        -8.0070    0.3890   -0.4300 h4        1 06U      0.023600
     45 HAZ         4.4720    4.3930    0.3090 hc        1 06U      0.041367
     46 HAZA        5.5930    3.4000   -0.7130 hc        1 06U      0.041367
     47 HAZB        3.8030    3.2980   -0.9720 hc        1 06U      0.041367
     48 HBB        -3.0660   -3.8330   -1.2060 h1        1 06U      0.046033
     49 HBBA       -2.4400   -5.1460   -0.0800 h1        1 06U      0.046033
     50 HBBB       -3.7840   -4.0190    0.4740 h1        1 06U      0.046033
     51 HAA        -5.9530   -0.8020    0.4270 ha        1 06U      0.146500
@<TRIPOS>BOND
     1    1    2 ar  
     2    1    6 ar  
     3    2    3 ar  
     4    2    8 1   
     5    3    4 ar  
     6    4    5 ar  
     7    4    9 1   
     8    5    6 ar  
     9    5   11 1   
    10    6   10 1   
    11    7   21 ar  
    12    7   25 ar  
    13    7   51 1   
    14    8   29 1   
    15    8   30 1   
    16    9   26 1   
    17    9   31 1   
    18    9   32 1   
    19   10   33 1   
    20   10   34 1   
    21   11   12 3   
    22   12   13 1   
    23   13   14 1   
    24   13   15 1   
    25   13   35 1   
    26   14   36 1   
    27   14   37 1   
    28   14   38 1   
    29   15   16 ar  
    30   15   20 ar  
    31   16   17 ar  
    32   16   39 1   
    33   17   18 ar  
    34   17   27 1   
    35   18   19 ar  
    36   18   40 1   
    37   19   20 ar  
    38   19   21 1   
    39   20   41 1   
    40   21   22 ar  
    41   22   23 ar  
    42   22   42 1   
    43   23   24 ar  
    44   23   43 1   
    45   24   25 ar  
    46   25   44 1   
    47   26   45 1   
    48   26   46 1   
    49   26   47 1   
    50   27   28 1   
    51   28   48 1   
    52   28   49 1   
    53   28   50 1   
@<TRIPOS>SUBSTRUCTURE
     1 06U         1 TEMP              0 ****  ****    0 ROOT
