@<TRIPOS>MOLECULE
06U
   51    53     1     0     0
SMALL
bcc


@<TRIPOS>ATOM
      1 N1          0.6110   -0.8090   -0.0210 nb        1 06U     -0.831000
      2 C2          1.8730   -0.3000    0.2180 ca        1 06U      0.914900
      3 N3          2.3330    0.1840    1.4390 nb        1 06U     -0.792000
      4 C4          1.4500    0.2030    2.4560 ca        1 06U      0.538600
      5 C5          0.1200   -0.2670    2.3230 ca        1 06U     -0.337600
      6 C6         -0.2620   -0.7980    1.0340 ca        1 06U      0.744200
      7 CAA        -8.5730    1.1430    5.5590 ca        1 06U     -0.236800
      8 NAH         2.7420   -0.2150   -0.8720 nh        1 06U     -0.931500
      9 CAI         1.9210    0.7370    3.7840 c3        1 06U     -0.138700
     10 NAJ        -1.5120   -1.3570    0.8620 nh        1 06U     -0.952500
     11 CAK        -0.8020   -0.2360    3.3720 cg        1 06U     -0.076000
     12 CAL        -1.6160   -0.2210    4.2530 c1        1 06U     -0.159100
     13 CAM        -2.5900   -0.1850    5.3120 c3        1 06U      0.069700
     14 CAN        -2.3720   -1.3260    6.2990 c3        1 06U     -0.086100
     15 CAO        -3.9920   -0.2310    4.7690 ca        1 06U     -0.042300
     16 CAP        -4.3390   -1.1710    3.8000 ca        1 06U     -0.145000
     17 CAQ        -5.6590   -1.2040    3.3150 ca        1 06U      0.123100
     18 CAR        -6.6250   -0.3170    3.7960 ca        1 06U     -0.189000
     19 CAS        -6.2650    0.6250    4.7710 cp        1 06U     -0.012000
     20 CAT        -4.9510    0.6680    5.2500 ca        1 06U     -0.142000
     21 CAU        -7.2630    1.5630    5.2810 cp        1 06U      0.000000
     22 CAV        -6.9380    2.9090    5.5060 ca        1 06U     -0.236800
     23 CAW        -7.9340    3.7710    5.9970 ca        1 06U      0.392700
     24 NAX        -9.1940    3.3790    6.2680 nb        1 06U     -0.662000
     25 CAY        -9.4940    2.0840    6.0500 ca        1 06U      0.392700
     26 CAZ         2.2030    2.2180    3.7220 c3        1 06U     -0.088100
     27 OBA        -5.8920   -2.1620    2.3460 os        1 06U     -0.329900
     28 CBB        -7.2240   -2.2480    1.8550 c3        1 06U      0.112700
     29 HNAH        2.5240   -0.7650   -1.6680 hn        1 06U      0.429800
     30 HNAA        3.7050   -0.0800   -0.6690 hn        1 06U      0.429800
     31 HAI         1.1380    0.5320    4.5630 hc        1 06U      0.062200
     32 HAIA        2.8520    0.1880    4.0920 hc        1 06U      0.062200
     33 HNAJ       -1.8250   -1.5830   -0.0510 hn        1 06U      0.437300
     34 HNAB       -2.1960   -1.1700    1.5560 hn        1 06U      0.437300
     35 HAM        -2.4520    0.7920    5.8710 hc        1 06U      0.069700
     36 HAN        -3.1020   -1.2420    7.1400 hc        1 06U      0.044700
     37 HANA       -2.5160   -2.3110    5.7950 hc        1 06U      0.044700
     38 HANB       -1.3360   -1.2820    6.7120 hc        1 06U      0.044700
     39 HAP        -3.5970   -1.8850    3.4130 ha        1 06U      0.154000
     40 HAR        -7.6570   -0.3390    3.4190 ha        1 06U      0.143000
     41 HAT        -4.6740    1.4090    6.0150 ha        1 06U      0.140000
     42 HAV        -5.9290    3.2870    5.2970 ha        1 06U      0.146500
     43 HAW        -7.7130    4.8380    6.1830 h4        1 06U      0.023600
     44 HAY       -10.5320    1.7860    6.2820 h4        1 06U      0.023600
     45 HAZ         2.5100    2.5850    4.7310 hc        1 06U      0.041367
     46 HAZA        3.0260    2.4370    3.0000 hc        1 06U      0.041367
     47 HAZB        1.2940    2.7810    3.4020 hc        1 06U      0.041367
     48 HBB        -7.5230   -1.2950    1.3550 h1        1 06U      0.046033
     49 HBBA       -7.1730   -3.0850    1.1120 h1        1 06U      0.046033
     50 HBBB       -7.9340   -2.4980    2.6800 h1        1 06U      0.046033
     51 HAA        -8.8730    0.0980    5.4070 ha        1 06U      0.146500
@<TRIPOS>BOND
     1    1    2 ar  
     2    1    6 ar  
     3    2    3 ar  
     4    2    8 1   
     5    3    4 ar  
     6    4    5 ar  
     7    4    9 1   
     8    5    6 ar  
     9    5   11 1   
    10    6   10 1   
    11    7   21 ar  
    12    7   25 ar  
    13    7   51 1   
    14    8   29 1   
    15    8   30 1   
    16    9   26 1   
    17    9   31 1   
    18    9   32 1   
    19   10   33 1   
    20   10   34 1   
    21   11   12 3   
    22   12   13 1   
    23   13   14 1   
    24   13   15 1   
    25   13   35 1   
    26   14   36 1   
    27   14   37 1   
    28   14   38 1   
    29   15   16 ar  
    30   15   20 ar  
    31   16   17 ar  
    32   16   39 1   
    33   17   18 ar  
    34   17   27 1   
    35   18   19 ar  
    36   18   40 1   
    37   19   20 ar  
    38   19   21 1   
    39   20   41 1   
    40   21   22 ar  
    41   22   23 ar  
    42   22   42 1   
    43   23   24 ar  
    44   23   43 1   
    45   24   25 ar  
    46   25   44 1   
    47   26   45 1   
    48   26   46 1   
    49   26   47 1   
    50   27   28 1   
    51   28   48 1   
    52   28   49 1   
    53   28   50 1   
@<TRIPOS>SUBSTRUCTURE
     1 06U         1 TEMP              0 ****  ****    0 ROOT
