@<TRIPOS>MOLECULE
06V
   55    57     1     0     0
SMALL
bcc


@<TRIPOS>ATOM
      1 N1          4.7180   -0.3520   -2.1320 nb        1 06V     -0.829000
      2 C2          5.8610    0.0550   -1.4710 ca        1 06V      0.913900
      3 N3          5.9160    0.5140   -0.1590 nb        1 06V     -0.791000
      4 C4          4.7450    0.6160    0.4990 ca        1 06V      0.537600
      5 C5          3.5060    0.2540   -0.0860 ca        1 06V     -0.333600
      6 C6          3.5430   -0.2600   -1.4350 ca        1 06V      0.739200
      7 CAA        -5.6940   -0.2440   -0.5600 c3        1 06V      0.148800
      8 NAH         7.0510    0.0590   -2.2010 nh        1 06V     -0.931500
      9 CAI         4.7790    1.1270    1.9160 c3        1 06V     -0.138700
     10 NAJ         2.3850   -0.7240   -2.0290 nh        1 06V     -0.951500
     11 CAK         2.2890    0.3750    0.5920 cg        1 06V     -0.086000
     12 CAL         1.2370    0.4750    1.1580 c1        1 06V     -0.150100
     13 CAM        -0.0230    0.6210    1.8390 c3        1 06V      0.067700
     14 CAN         0.0780    0.1530    3.2860 c3        1 06V     -0.084100
     15 CAO        -1.1230   -0.1200    1.1280 ca        1 06V     -0.024300
     16 CAP        -0.9620   -1.4760    0.8220 ca        1 06V     -0.222000
     17 CAQ        -2.0040   -2.1460    0.1780 ca        1 06V      0.147100
     18 CAR        -3.1960   -1.4890   -0.1700 ca        1 06V     -0.211000
     19 CAS        -3.3590   -0.1280    0.1460 ca        1 06V      0.165600
     20 CAT        -2.2980    0.5490    0.7990 ca        1 06V     -0.185000
     21 NAU        -4.5760    0.5620   -0.0920 nh        1 06V     -0.632000
     22 CAV        -4.4500    1.8140   -0.8280 c3        1 06V      0.148800
     23 CAW        -5.7810    2.5740   -0.9010 c3        1 06V      0.123900
     24 OAX        -6.8290    1.7540   -1.4030 os        1 06V     -0.413600
     25 CAY        -6.9940    0.5680   -0.6350 c3        1 06V      0.123900
     26 CAZ         5.1760    2.5810    1.9760 c3        1 06V     -0.087100
     27 OBA        -1.9660   -3.4810   -0.1810 os        1 06V     -0.330900
     28 CBB        -0.7810   -4.1900    0.1640 c3        1 06V      0.112700
     29 HAAA       -5.8440   -1.0910    0.1660 h1        1 06V      0.049200
     30 HNAH        7.0730   -0.4810   -3.0340 hn        1 06V      0.429800
     31 HNAA        7.8960    0.1180   -1.6830 hn        1 06V      0.429800
     32 HAI         3.7670    0.9900    2.3820 hc        1 06V      0.062200
     33 HAIA        5.5080    0.5120    2.5110 hc        1 06V      0.062200
     34 HNAJ        2.3830   -0.9170   -3.0010 hn        1 06V      0.435300
     35 HNAB        1.5260   -0.4580   -1.6090 hn        1 06V      0.435300
     36 HAM        -0.2800    1.7260    1.8490 hc        1 06V      0.067700
     37 HAN         0.3080   -0.9380    3.3290 hc        1 06V      0.043367
     38 HANA        0.8880    0.7120    3.8130 hc        1 06V      0.043367
     39 HANB       -0.8900    0.3360    3.8100 hc        1 06V      0.043367
     40 HAP        -0.0260   -1.9850    1.0890 ha        1 06V      0.147000
     41 HAR        -3.9740   -2.0700   -0.6850 ha        1 06V      0.151000
     42 HAT        -2.4040    1.6100    1.0700 ha        1 06V      0.138000
     43 HAV        -3.6970    2.4680   -0.3080 h1        1 06V      0.049200
     44 HAVA       -4.0860    1.6290   -1.8800 h1        1 06V      0.049200
     45 HAW        -6.0660    2.9730    0.1080 h1        1 06V      0.056450
     46 HAWA       -5.7020    3.4130   -1.6410 h1        1 06V      0.056450
     47 HAY        -7.7770   -0.0160   -1.1850 h1        1 06V      0.056450
     48 HAYA       -7.3570    0.8320    0.3930 h1        1 06V      0.056450
     49 HAZ         6.2080    2.7300    1.5750 hc        1 06V      0.041033
     50 HAZA        4.4710    3.2090    1.3780 hc        1 06V      0.041033
     51 HAZB        5.1520    2.9340    3.0350 hc        1 06V      0.041033
     52 HBB        -0.9810   -5.2260   -0.2100 h1        1 06V      0.045700
     53 HBBA        0.1060   -3.7490   -0.3520 h1        1 06V      0.045700
     54 HBBB       -0.6310   -4.1920    1.2700 h1        1 06V      0.045700
     55 HAA        -5.4900   -0.6820   -1.5810 h1        1 06V      0.049200
@<TRIPOS>BOND
     1    1    2 ar  
     2    1    6 ar  
     3    2    3 ar  
     4    2    8 1   
     5    3    4 ar  
     6    4    5 ar  
     7    4    9 1   
     8    5    6 ar  
     9    5   11 1   
    10    6   10 1   
    11    7   21 1   
    12    7   25 1   
    13    7   29 1   
    14    7   55 1   
    15    8   30 1   
    16    8   31 1   
    17    9   26 1   
    18    9   32 1   
    19    9   33 1   
    20   10   34 1   
    21   10   35 1   
    22   11   12 3   
    23   12   13 1   
    24   13   14 1   
    25   13   15 1   
    26   13   36 1   
    27   14   37 1   
    28   14   38 1   
    29   14   39 1   
    30   15   16 ar  
    31   15   20 ar  
    32   16   17 ar  
    33   16   40 1   
    34   17   18 ar  
    35   17   27 1   
    36   18   19 ar  
    37   18   41 1   
    38   19   20 ar  
    39   19   21 1   
    40   20   42 1   
    41   21   22 1   
    42   22   23 1   
    43   22   43 1   
    44   22   44 1   
    45   23   24 1   
    46   23   45 1   
    47   23   46 1   
    48   24   25 1   
    49   25   47 1   
    50   25   48 1   
    51   26   49 1   
    52   26   50 1   
    53   26   51 1   
    54   27   28 1   
    55   28   52 1   
    56   28   53 1   
    57   28   54 1   
@<TRIPOS>SUBSTRUCTURE
     1 06V         1 TEMP              0 ****  ****    0 ROOT
