@<TRIPOS>MOLECULE
06V
   55    57     1     0     0
SMALL
bcc


@<TRIPOS>ATOM
      1 N1         -1.0570   -0.6470    0.1090 nb        1 06V     -0.829000
      2 C2          0.1330   -0.1130   -0.3470 ca        1 06V      0.913900
      3 N3          1.0890    0.5200    0.4400 nb        1 06V     -0.790000
      4 C4          0.8490    0.5730    1.7640 ca        1 06V      0.538600
      5 C5         -0.3240    0.0320    2.3500 ca        1 06V     -0.333600
      6 C6         -1.2860   -0.5670    1.4560 ca        1 06V      0.738200
      7 CAA        -3.4790    4.4790    4.5880 c3        1 06V      0.148300
      8 NAH         0.4250   -0.2740   -1.7030 nh        1 06V     -0.931500
      9 CAI         1.8820    1.2360    2.6390 c3        1 06V     -0.139700
     10 NAJ        -2.4940   -1.0250    1.9480 nh        1 06V     -0.951500
     11 CAK        -0.5620    0.0720    3.7270 cg        1 06V     -0.087000
     12 CAL        -0.7760    0.0970    4.9070 c1        1 06V     -0.149100
     13 CAM        -1.0030    0.1200    6.3280 c3        1 06V      0.067700
     14 CAN        -2.1300   -0.8290    6.7170 c3        1 06V     -0.086100
     15 CAO        -1.3020    1.5080    6.8280 ca        1 06V     -0.023300
     16 CAP        -0.6220    1.9880    7.9520 ca        1 06V     -0.226000
     17 CAQ        -0.9240    3.2680    8.4200 ca        1 06V      0.148100
     18 CAR        -1.8800    4.0780    7.7850 ca        1 06V     -0.210000
     19 CAS        -2.5670    3.5900    6.6570 ca        1 06V      0.166600
     20 CAT        -2.2600    2.2890    6.1890 ca        1 06V     -0.174000
     21 NAU        -3.6070    4.3240    6.0320 nh        1 06V     -0.631000
     22 CAV        -4.0110    5.5580    6.6880 c3        1 06V      0.148300
     23 CAW        -5.2400    6.1880    6.0170 c3        1 06V      0.123900
     24 OAX        -5.0470    6.3610    4.6190 os        1 06V     -0.414600
     25 CAY        -4.7190    5.1380    3.9690 c3        1 06V      0.123900
     26 CAZ         1.9730    2.7180    2.3720 c3        1 06V     -0.087100
     27 OBA        -0.3260    3.8560    9.5210 os        1 06V     -0.329900
     28 CBB         0.6740    3.0880   10.1770 c3        1 06V      0.114700
     29 HAAA       -2.5760    5.1040    4.3280 h1        1 06V      0.049950
     30 HNAH       -0.3300   -0.5000   -2.3060 hn        1 06V      0.430800
     31 HNAA        1.1450    0.2970   -2.0790 hn        1 06V      0.430800
     32 HAI         2.8810    0.7560    2.4540 hc        1 06V      0.063700
     33 HAIA        1.6200    1.0610    3.7170 hc        1 06V      0.063700
     34 HNAJ       -3.0730   -1.5810    1.3660 hn        1 06V      0.432300
     35 HNAB       -2.5540   -1.1640    2.9280 hn        1 06V      0.432300
     36 HAM        -0.0530   -0.2450    6.8280 hc        1 06V      0.067700
     37 HAN        -1.9010   -1.8630    6.3660 hc        1 06V      0.042700
     38 HANA       -3.0940   -0.4980    6.2620 hc        1 06V      0.042700
     39 HANB       -2.2460   -0.8410    7.8270 hc        1 06V      0.042700
     40 HAP         0.1330    1.3630    8.4480 ha        1 06V      0.137000
     41 HAR        -2.0620    5.0810    8.1950 ha        1 06V      0.151000
     42 HAT        -2.7820    1.8710    5.3140 ha        1 06V      0.144000
     43 HAV        -4.2720    5.3200    7.7560 h1        1 06V      0.049950
     44 HAVA       -3.1780    6.3200    6.6850 h1        1 06V      0.049950
     45 HAW        -5.3980    7.2260    6.4090 h1        1 06V      0.055700
     46 HAWA       -6.1540    5.5620    6.1960 h1        1 06V      0.055700
     47 HAY        -5.6000    4.4440    4.0090 h1        1 06V      0.055700
     48 HAYA       -4.5060    5.4320    2.9080 h1        1 06V      0.055700
     49 HAZ         2.3000    2.9150    1.3220 hc        1 06V      0.040700
     50 HAZA        0.9850    3.2110    2.5330 hc        1 06V      0.040700
     51 HAZB        2.7160    3.1790    3.0670 hc        1 06V      0.040700
     52 HBB         1.0150    3.7580   11.0070 h1        1 06V      0.044033
     53 HBBA        0.2410    2.1430   10.5860 h1        1 06V      0.044033
     54 HBBB        1.5190    2.8620    9.4820 h1        1 06V      0.044033
     55 HAA        -3.3480    3.4650    4.1210 h1        1 06V      0.049950
@<TRIPOS>BOND
     1    1    2 ar  
     2    1    6 ar  
     3    2    3 ar  
     4    2    8 1   
     5    3    4 ar  
     6    4    5 ar  
     7    4    9 1   
     8    5    6 ar  
     9    5   11 1   
    10    6   10 1   
    11    7   21 1   
    12    7   25 1   
    13    7   29 1   
    14    7   55 1   
    15    8   30 1   
    16    8   31 1   
    17    9   26 1   
    18    9   32 1   
    19    9   33 1   
    20   10   34 1   
    21   10   35 1   
    22   11   12 3   
    23   12   13 1   
    24   13   14 1   
    25   13   15 1   
    26   13   36 1   
    27   14   37 1   
    28   14   38 1   
    29   14   39 1   
    30   15   16 ar  
    31   15   20 ar  
    32   16   17 ar  
    33   16   40 1   
    34   17   18 ar  
    35   17   27 1   
    36   18   19 ar  
    37   18   41 1   
    38   19   20 ar  
    39   19   21 1   
    40   20   42 1   
    41   21   22 1   
    42   22   23 1   
    43   22   43 1   
    44   22   44 1   
    45   23   24 1   
    46   23   45 1   
    47   23   46 1   
    48   24   25 1   
    49   25   47 1   
    50   25   48 1   
    51   26   49 1   
    52   26   50 1   
    53   26   51 1   
    54   27   28 1   
    55   28   52 1   
    56   28   53 1   
    57   28   54 1   
@<TRIPOS>SUBSTRUCTURE
     1 06V         1 TEMP              0 ****  ****    0 ROOT
