@<TRIPOS>MOLECULE
06V
   57    59     1     0     0
SMALL
bcc


@<TRIPOS>ATOM
      1 N1         -0.1200   -1.2310    0.3640 nb        1 06V     -0.663000
      2 C2          1.2060   -0.9880    0.1990 ca        1 06V      0.722900
      3 N3          2.0460   -0.2860    1.0410 nb        1 06V     -0.636000
      4 C4          1.4990    0.2180    2.1590 ca        1 06V      0.531600
      5 C5          0.0950    0.0270    2.4570 ca        1 06V     -0.026600
      6 C6         -0.6660   -0.7130    1.5090 ca        1 06V      0.487200
      7 CAA        -8.2180    1.2040    4.3250 c3        1 06V      0.166800
      8 NAH         1.8440   -1.5370   -1.0340 n4        1 06V     -0.813300
      9 CAI         2.3190    0.9960    3.1460 c3        1 06V     -0.147700
     10 NAJ        -2.1020   -0.9500    1.7380 n4        1 06V     -0.826300
     11 CAK        -0.5120    0.5180    3.6020 cg        1 06V     -0.316000
     12 CAL        -1.1330    0.8830    4.5700 c1        1 06V      0.147900
     13 CAM        -2.0940    1.1920    5.6050 c3        1 06V      0.016700
     14 CAN        -1.7140    0.5730    6.9410 c3        1 06V     -0.091100
     15 CAO        -3.4250    0.6750    5.1060 ca        1 06V     -0.008300
     16 CAP        -3.4300   -0.5410    4.4050 ca        1 06V     -0.342000
     17 CAQ        -4.6190   -0.9320    3.7740 ca        1 06V      0.163100
     18 CAR        -5.8020   -0.2170    3.9190 ca        1 06V     -0.269000
     19 CAS        -5.8300    0.9470    4.7430 ca        1 06V      0.267600
     20 CAT        -4.5800    1.4160    5.2660 ca        1 06V     -0.214000
     21 NAU        -7.0150    1.5870    5.0400 nh        1 06V     -0.634000
     22 CAV        -6.9710    2.8840    5.6910 c3        1 06V      0.166800
     23 CAW        -8.3390    3.4500    6.0960 c3        1 06V      0.115400
     24 OAX        -9.3090    3.2570    5.0800 os        1 06V     -0.385600
     25 CAY        -9.5060    1.8770    4.8190 c3        1 06V      0.115400
     26 CAZ         3.7620    1.2030    2.7700 c3        1 06V     -0.101100
     27 OBA        -4.4830   -2.0160    2.9180 os        1 06V     -0.421900
     28 CBB        -5.6440   -2.8410    2.7680 c3        1 06V      0.118700
     29 HNAH        1.1550   -2.0440   -1.6070 hn        1 06V      0.495133
     30 HNAA        2.6040   -2.1780   -0.7600 hn        1 06V      0.495133
     31 HAI         1.8120    1.9940    3.2830 hc        1 06V      0.102200
     32 HAIA        2.2540    0.4500    4.1310 hc        1 06V      0.102200
     33 HNAJ       -2.2610   -1.9010    2.1180 hn        1 06V      0.496133
     34 HNAB       -2.4720   -0.2750    2.4470 hn        1 06V      0.496133
     35 HAM        -2.1450    2.3180    5.7320 hc        1 06V      0.118700
     36 HAN        -1.6670   -0.5390    6.8650 hc        1 06V      0.068700
     37 HANA       -0.7240    0.9600    7.2820 hc        1 06V      0.068700
     38 HANB       -2.4870    0.8440    7.7020 hc        1 06V      0.068700
     39 HAP        -2.5770   -1.2300    4.4660 ha        1 06V      0.134000
     40 HAR        -6.7080   -0.5700    3.4050 ha        1 06V      0.161000
     41 HAT        -4.5280    2.3720    5.8110 ha        1 06V      0.158000
     42 HAV        -6.3590    2.7900    6.6340 h1        1 06V      0.056200
     43 HAVA       -6.4640    3.6240    5.0050 h1        1 06V      0.056200
     44 HAW        -8.6880    2.9820    7.0550 h1        1 06V      0.076450
     45 HAWA       -8.2660    4.5640    6.2150 h1        1 06V      0.076450
     46 HAY       -10.2820    1.8470    4.0080 h1        1 06V      0.076450
     47 HAYA       -9.8890    1.3620    5.7400 h1        1 06V      0.076450
     48 HAZ         4.3010    0.2300    2.6710 hc        1 06V      0.066033
     49 HAZA        3.8560    1.7660    1.8100 hc        1 06V      0.066033
     50 HAZB        4.2640    1.7990    3.5740 hc        1 06V      0.066033
     51 HBB        -5.2450   -3.7850    2.3190 h1        1 06V      0.063367
     52 HBBA       -6.1200   -3.0410    3.7570 h1        1 06V      0.063367
     53 HBBB       -6.3650   -2.3430    2.0740 h1        1 06V      0.063367
     54 HAA        -8.0870    1.4380    3.2280 h1        1 06V      0.056200
     55 HAH3        2.2410   -0.7570   -1.5810 hn        1 06V      0.495133
     56 HAJ3       -2.6410   -0.8560    0.8680 hn        1 06V      0.496133
     57 HAAA       -8.3620    0.0900    4.4390 h1        1 06V      0.056200
@<TRIPOS>BOND
     1    1    2 ar  
     2    1    6 ar  
     3    2    3 ar  
     4    2    8 1   
     5    3    4 ar  
     6    4    5 ar  
     7    4    9 1   
     8    5    6 ar  
     9    5   11 1   
    10    6   10 1   
    11    7   21 1   
    12    7   25 1   
    13    7   54 1   
    14    7   57 1   
    15    8   29 1   
    16    8   30 1   
    17    8   55 1   
    18    9   26 1   
    19    9   31 1   
    20    9   32 1   
    21   10   33 1   
    22   10   34 1   
    23   10   56 1   
    24   11   12 3   
    25   12   13 1   
    26   13   14 1   
    27   13   15 1   
    28   13   35 1   
    29   14   36 1   
    30   14   37 1   
    31   14   38 1   
    32   15   16 ar  
    33   15   20 ar  
    34   16   17 ar  
    35   16   39 1   
    36   17   18 ar  
    37   17   27 1   
    38   18   19 ar  
    39   18   40 1   
    40   19   20 ar  
    41   19   21 1   
    42   20   41 1   
    43   21   22 1   
    44   22   23 1   
    45   22   42 1   
    46   22   43 1   
    47   23   24 1   
    48   23   44 1   
    49   23   45 1   
    50   24   25 1   
    51   25   46 1   
    52   25   47 1   
    53   26   48 1   
    54   26   49 1   
    55   26   50 1   
    56   27   28 1   
    57   28   51 1   
    58   28   52 1   
    59   28   53 1   
@<TRIPOS>SUBSTRUCTURE
     1 06V         1 TEMP              0 ****  ****    0 ROOT
