@<TRIPOS>MOLECULE
06V
   55    57     1     0     0
SMALL
bcc


@<TRIPOS>ATOM
      1 N1          0.3900   -0.2150   -0.1570 nb        1 06V     -0.832000
      2 C2          1.6640   -0.6990    0.0710 ca        1 06V      0.915900
      3 N3          2.2790   -0.8070    1.3140 nb        1 06V     -0.792000
      4 C4          1.5480   -0.4430    2.3860 ca        1 06V      0.538600
      5 C5          0.2180    0.0340    2.2800 ca        1 06V     -0.336600
      6 C6         -0.3420    0.1240    0.9500 ca        1 06V      0.744200
      7 CAA        -7.6110    3.7910    5.4070 c3        1 06V      0.148800
      8 NAH         2.3760   -1.1630   -1.0360 nv        1 06V     -0.933500
      9 CAI         2.1910   -0.5580    3.7440 c3        1 06V     -0.138700
     10 NAJ        -1.6500    0.5250    0.7790 nv        1 06V     -0.956500
     11 CAK        -0.5400    0.4100    3.3920 cg        1 06V     -0.085000
     12 CAL        -1.2040    0.7360    4.3360 c1        1 06V     -0.151100
     13 CAM        -1.9840    1.1470    5.4740 c3        1 06V      0.067700
     14 CAN        -1.8120    0.1750    6.6360 c3        1 06V     -0.084100
     15 CAO        -3.4410    1.2840    5.1220 ca        1 06V     -0.024300
     16 CAP        -4.1100    0.2230    4.5030 ca        1 06V     -0.221000
     17 CAQ        -5.4650    0.3680    4.2040 ca        1 06V      0.147100
     18 CAR        -6.1620    1.5510    4.5030 ca        1 06V     -0.211000
     19 CAS        -5.4890    2.6140    5.1330 ca        1 06V      0.164600
     20 CAT        -4.1120    2.4630    5.4350 ca        1 06V     -0.185000
     21 NAU        -6.1620    3.7930    5.5470 nh        1 06V     -0.632000
     22 CAV        -5.5630    5.0430    5.0990 c3        1 06V      0.148800
     23 CAW        -6.2520    6.2660    5.7210 c3        1 06V      0.123900
     24 OAX        -7.6590    6.2370    5.5190 os        1 06V     -0.413600
     25 CAY        -8.2470    5.0440    6.0250 c3        1 06V      0.123900
     26 CAZ         3.3240    0.4240    3.9120 c3        1 06V     -0.087100
     27 OBA        -6.2350   -0.6040    3.5910 os        1 06V     -0.330900
     28 CBB        -5.5730   -1.8250    3.2800 c3        1 06V      0.112700
     29 HAAA       -8.0150    2.8860    5.9410 h1        1 06V      0.048950
     30 HNAH        2.0530   -0.8880   -1.9330 hn        1 06V      0.430800
     31 HNAA        3.3550   -1.2830   -0.9260 hn        1 06V      0.430800
     32 HAI         1.4150   -0.3800    4.5360 hc        1 06V      0.063200
     33 HAIA        2.5750   -1.6050    3.8810 hc        1 06V      0.063200
     34 HNAJ       -1.9880    0.7220   -0.1320 hn        1 06V      0.438300
     35 HNAB       -2.1030    0.9500    1.5510 hn        1 06V      0.438300
     36 HAM        -1.5960    2.1590    5.8080 hc        1 06V      0.067700
     37 HAN        -2.2020   -0.8340    6.3630 hc        1 06V      0.043700
     38 HANA       -0.7320    0.0840    6.9010 hc        1 06V      0.043700
     39 HANB       -2.3730    0.5480    7.5250 hc        1 06V      0.043700
     40 HAP        -3.5610   -0.6990    4.2650 ha        1 06V      0.148000
     41 HAR        -7.2260    1.6060    4.2320 ha        1 06V      0.151000
     42 HAT        -3.5660    3.2730    5.9390 ha        1 06V      0.138000
     43 HAV        -4.4800    5.0570    5.3990 h1        1 06V      0.048950
     44 HAVA       -5.6170    5.1370    3.9750 h1        1 06V      0.048950
     45 HAW        -6.0300    6.3300    6.8180 h1        1 06V      0.056450
     46 HAWA       -5.9130    7.2000    5.2010 h1        1 06V      0.056450
     47 HAY        -9.3250    5.1120    5.7240 h1        1 06V      0.056450
     48 HAYA       -8.1570    5.0250    7.1430 h1        1 06V      0.056450
     49 HAZ         4.1400    0.2200    3.1770 hc        1 06V      0.040033
     50 HAZA        2.9670    1.4710    3.7630 hc        1 06V      0.040033
     51 HAZB        3.7470    0.3380    4.9420 hc        1 06V      0.040033
     52 HBB        -6.3790   -2.4450    2.8110 h1        1 06V      0.046033
     53 HBBA       -4.7390   -1.6490    2.5580 h1        1 06V      0.046033
     54 HBBB       -5.1910   -2.3140    4.2090 h1        1 06V      0.046033
     55 HAA        -7.9220    3.7350    4.3230 h1        1 06V      0.048950
@<TRIPOS>BOND
     1    1    2 ar  
     2    1    6 ar  
     3    2    3 ar  
     4    2    8 1   
     5    3    4 ar  
     6    4    5 ar  
     7    4    9 1   
     8    5    6 ar  
     9    5   11 1   
    10    6   10 1   
    11    7   21 1   
    12    7   25 1   
    13    7   29 1   
    14    7   55 1   
    15    8   30 1   
    16    8   31 1   
    17    9   26 1   
    18    9   32 1   
    19    9   33 1   
    20   10   34 1   
    21   10   35 1   
    22   11   12 3   
    23   12   13 1   
    24   13   14 1   
    25   13   15 1   
    26   13   36 1   
    27   14   37 1   
    28   14   38 1   
    29   14   39 1   
    30   15   16 ar  
    31   15   20 ar  
    32   16   17 ar  
    33   16   40 1   
    34   17   18 ar  
    35   17   27 1   
    36   18   19 ar  
    37   18   41 1   
    38   19   20 ar  
    39   19   21 1   
    40   20   42 1   
    41   21   22 1   
    42   22   23 1   
    43   22   43 1   
    44   22   44 1   
    45   23   24 1   
    46   23   45 1   
    47   23   46 1   
    48   24   25 1   
    49   25   47 1   
    50   25   48 1   
    51   26   49 1   
    52   26   50 1   
    53   26   51 1   
    54   27   28 1   
    55   28   52 1   
    56   28   53 1   
    57   28   54 1   
@<TRIPOS>SUBSTRUCTURE
     1 06V         1 TEMP              0 ****  ****    0 ROOT
