@<TRIPOS>MOLECULE
06V
   55    51     1     0     0
SMALL
bcc


@<TRIPOS>ATOM
      1 N1          2.9330    0.6110    4.4570 n1        1 06V     -0.305000
      2 C2          4.2650    0.3020    4.5190 c1        1 06V      0.196000
      3 N3          4.9480   -0.0150    3.3780 n1        1 06V     -0.263000
      4 C4          4.3120   -0.0250    2.1930 c1        1 06V      0.116000
      5 C5          2.9770    0.2850    2.1290 c1        1 06V     -0.211000
      6 C6          2.2940    0.6030    3.2730 c2        1 06V      0.225000
      7 CAA        -4.6070   -1.4520   -1.5270 c3        1 06V     -0.087500
      8 NAH         4.9530    0.3540    5.7720 n3        1 06V     -0.329000
      9 CAI         5.0900   -0.3290    0.9080 c3        1 06V     -0.122000
     10 NAJ         1.1610    0.9020    4.0980 n3        1 06V     -0.351000
     11 CAK         2.2760    0.3760    0.7690 c1        1 06V     -0.133000
     12 CAL         1.7220    0.4480   -0.3060 c1        1 06V     -0.133000
     13 CAM         1.0300    0.5380   -1.6510 c2        1 06V      0.049000
     14 CAN         1.5560    1.7390   -2.4100 c3        1 06V     -0.204000
     15 CAO        -0.4710    0.6860   -1.4420 c2        1 06V     -0.012000
     16 CAP        -0.9820    1.8610   -0.8930 c2        1 06V     -0.192500
     17 CAQ        -2.3620    2.0570   -0.8260 c1        1 06V      0.094000
     18 CAR        -3.2290    1.0780   -1.3080 c2        1 06V     -0.230000
     19 CAS        -2.7180   -0.0970   -1.8570 c1        1 06V      0.094000
     20 CAT        -1.3390   -0.2930   -1.9240 c2        1 06V     -0.192500
     21 NAU        -3.6180   -1.0610   -2.4690 n2        1 06V     -0.236000
     22 CAV        -2.8690   -2.1620   -2.9630 c3        1 06V     -0.087500
     23 CAW        -3.7590   -3.2810   -3.4850 c3        1 06V     -0.026500
     24 OAX        -4.7470   -3.6700   -2.5430 os        1 06V     -0.269000
     25 CAY        -5.4960   -2.5710   -2.0500 c3        1 06V     -0.026500
     26 CAZ         6.3940   -1.0550    1.2600 c3        1 06V     -0.201000
     27 OBA        -2.8780    3.3020   -0.3790 o         1 06V     -0.214000
     28 CBB        -3.8060    3.1900    0.6900 c3        1 06V     -0.076000
     29 HAA        -5.1680   -0.6730   -1.3130 h1        1 06V      0.087750
     30 HAAA       -4.1610   -1.7570   -0.7060 h1        1 06V      0.087750
     31 HNAH        4.5110    0.6330    6.5270 hn        1 06V      0.224000
     32 HNAA        5.8410    0.1310    5.8170 hn        1 06V      0.224000
     33 HAI         5.2990    0.5120    0.4450 hc        1 06V      0.102000
     34 HAIA        4.5460   -0.8990    0.3220 hc        1 06V      0.102000
     35 HNAJ        0.4060    1.2640    3.7250 hn        1 06V      0.233000
     36 HNAB        1.1960    0.7430    5.0010 hn        1 06V      0.233000
     37 HAM         1.2090   -0.2790   -2.1660 ha        1 06V      0.107000
     38 HAN         0.9610    1.9340   -3.1670 hc        1 06V      0.083000
     39 HANA        2.4600    1.5440   -2.7450 hc        1 06V      0.083000
     40 HANB        1.5890    2.5170   -1.8100 hc        1 06V      0.083000
     41 HAP        -0.3720    2.5500   -0.5540 ha        1 06V      0.144000
     42 HAR        -4.1990    1.2160   -1.2610 ha        1 06V      0.142000
     43 HAT        -0.9790   -1.1200   -2.3100 ha        1 06V      0.144000
     44 HAV        -2.3070   -2.5150   -2.2380 h1        1 06V      0.087750
     45 HAVA       -2.2890   -1.8500   -3.6940 h1        1 06V      0.087750
     46 HAW        -4.2050   -2.9750   -4.3070 h1        1 06V      0.095750
     47 HAWA       -3.1980   -4.0600   -3.6990 h1        1 06V      0.095750
     48 HAY        -6.0760   -2.8840   -1.3190 h1        1 06V      0.095750
     49 HAYA       -6.0580   -2.2180   -2.7750 h1        1 06V      0.095750
     50 HAZ         7.1340   -0.4070    1.2850 hc        1 06V      0.079000
     51 HAZA        6.5810   -1.7400    0.5790 hc        1 06V      0.079000
     52 HAZB        6.3030   -1.4830    2.1380 hc        1 06V      0.079000
     53 HBB        -3.5230    2.4700    1.2940 h1        1 06V      0.084000
     54 HBBA       -4.6970    2.9850    0.3310 h1        1 06V      0.084000
     55 HBBB       -3.8400    4.0390    1.1860 h1        1 06V      0.084000
@<TRIPOS>BOND
     1    1    6 1   
     2    2    3 1   
     3    2    8 1   
     4    4    5 1   
     5    4    9 1   
     6    5    6 1   
     7    6   10 1   
     8    7   21 1   
     9    7   25 1   
    10    7   29 1   
    11    7   30 1   
    12    8   31 1   
    13    8   32 1   
    14    9   26 1   
    15    9   33 1   
    16    9   34 1   
    17   10   35 1   
    18   10   36 1   
    19   11   12 1   
    20   13   14 1   
    21   13   15 1   
    22   13   37 1   
    23   14   38 1   
    24   14   39 1   
    25   14   40 1   
    26   15   16 1   
    27   15   20 1   
    28   16   17 1   
    29   16   41 1   
    30   17   18 1   
    31   18   19 1   
    32   18   42 1   
    33   19   20 1   
    34   20   43 1   
    35   21   22 1   
    36   22   23 1   
    37   22   44 1   
    38   22   45 1   
    39   23   24 1   
    40   23   46 1   
    41   23   47 1   
    42   24   25 1   
    43   25   48 1   
    44   25   49 1   
    45   26   50 1   
    46   26   51 1   
    47   26   52 1   
    48   27   28 1   
    49   28   53 1   
    50   28   54 1   
    51   28   55 1   
@<TRIPOS>SUBSTRUCTURE
     1 06V         1 TEMP              0 ****  ****    0 ROOT
