@<TRIPOS>MOLECULE
06W
   51    45     1     0     0
SMALL
bcc


@<TRIPOS>ATOM
      1 N1          5.4280   -2.4660   -1.3950 n1        1 06W     -0.303000
      2 C2          5.6140   -1.7010   -2.4930 c1        1 06W      0.196000
      3 N3          4.7090   -0.6880   -2.8010 n1        1 06W     -0.264000
      4 C4          3.6370   -0.4680   -1.9970 c1        1 06W      0.117000
      5 C5          3.4460   -1.2590   -0.8610 c1        1 06W     -0.201000
      6 C6          4.3360   -2.2460   -0.5700 c2        1 06W      0.219000
      7 CAA        -4.5870    2.4590   -0.0510 c1        1 06W     -0.173000
      8 NAH         6.9020   -1.8390   -3.3000 n3        1 06W     -0.329000
      9 CAI         2.5570    0.5250   -2.4240 c3        1 06W     -0.123000
     10 NAJ         4.4220   -3.1010    0.5680 n3        1 06W     -0.349000
     11 CAK         2.3790   -0.8580    0.1960 c1        1 06W     -0.133000
     12 CAL         1.5310   -0.5430    1.0420 c1        1 06W     -0.133000
     13 CAM         0.4960   -0.1540    2.0790 c2        1 06W      0.050000
     14 CAN         0.7220    1.2480    2.4960 c3        1 06W     -0.204000
     15 CAO        -0.9100   -0.2860    1.4770 c2        1 06W     -0.037000
     16 CAP        -1.5240   -1.5840    1.3940 c2        1 06W     -0.144000
     17 CAQ        -2.8400   -1.6930    1.1280 c1        1 06W      0.079000
     18 CAR        -3.6230   -0.5230    0.9300 c1        1 06W     -0.189000
     19 CAS        -3.0160    0.7610    1.0120 c1        1 06W     -0.015000
     20 CAT        -1.6790    0.8660    1.2820 c2        1 06W     -0.135000
     21 CAU        -3.9080    2.0480    1.0620 c1        1 06W      0.002000
     22 CAV        -3.9880    2.7960    2.2480 c2        1 06W     -0.171000
     23 CAW        -4.7620    3.9610    2.2880 c1        1 06W     -0.072000
     24 NAX        -5.4420    4.3690    1.1700 n1        1 06W     -0.137000
     25 CAY        -5.3630    3.6270   -0.0100 c1        1 06W     -0.073000
     26 CAZ         3.1170    1.4600   -3.5050 c3        1 06W     -0.205000
     27 OBA        -3.4960   -3.0250    1.1730 os        1 06W     -0.210000
     28 CBB        -4.4710   -3.2080    0.1830 c3        1 06W     -0.077000
     29 HAA        -4.5290    1.8940   -0.9450 ha        1 06W      0.145000
     30 HNAH        7.5660   -2.4890   -3.0420 hn        1 06W      0.226000
     31 HNAA        7.0730   -1.2830   -3.9230 hn        1 06W      0.226000
     32 HAI         1.7950    0.0410   -2.7790 hc        1 06W      0.102000
     33 HAIA        2.2790    1.0450   -1.6550 hc        1 06W      0.102000
     34 HNAJ        3.7400   -3.0990    1.2030 hn        1 06W      0.228500
     35 HNAB        5.1250   -3.5400    0.7100 hn        1 06W      0.228500
     36 HAM         0.5730   -0.7310    2.8420 ha        1 06W      0.107000
     37 HAN         1.6520    1.3410    2.8620 hc        1 06W      0.083000
     38 HANA        0.6060    1.8890    1.6600 hc        1 06W      0.083000
     39 HANB        0.0990    1.4810    3.1580 hc        1 06W      0.083000
     40 HAP        -1.0130   -2.3500    1.5230 ha        1 06W      0.151000
     41 HAR        -4.6640   -0.6120    0.7200 ha        1 06W      0.142000
     42 HAT        -1.2790    1.7100    1.3370 ha        1 06W      0.145000
     43 HAV        -3.5080    2.5060    3.0330 ha        1 06W      0.148000
     44 HAW        -4.8220    4.4940    3.1330 ha        1 06W      0.160000
     45 HAY        -5.8580    3.9270   -0.8220 ha        1 06W      0.159000
     46 HAZ         2.3680    2.1020   -3.8320 hc        1 06W      0.081000
     47 HAZA        3.8200    1.9600   -3.1480 hc        1 06W      0.081000
     48 HAZB        3.4240    0.9630   -4.2100 hc        1 06W      0.081000
     49 HBB        -4.0830   -2.9900   -0.7100 h1        1 06W      0.084667
     50 HBBA       -4.7780   -4.1560    0.1900 h1        1 06W      0.084667
     51 HBBB       -5.2740   -2.5810    0.3730 h1        1 06W      0.084667
@<TRIPOS>BOND
     1    1    6 1   
     2    2    3 1   
     3    2    8 1   
     4    4    5 1   
     5    4    9 1   
     6    5    6 1   
     7    6   10 1   
     8    7   21 1   
     9    7   29 1   
    10    8   30 1   
    11    8   31 1   
    12    9   26 1   
    13    9   32 1   
    14    9   33 1   
    15   10   34 1   
    16   10   35 1   
    17   11   12 1   
    18   13   14 1   
    19   13   15 1   
    20   13   36 1   
    21   14   37 1   
    22   14   38 1   
    23   14   39 1   
    24   15   16 1   
    25   15   20 1   
    26   16   17 1   
    27   16   40 1   
    28   17   27 1   
    29   18   19 1   
    30   18   41 1   
    31   19   20 1   
    32   20   42 1   
    33   21   22 1   
    34   22   23 1   
    35   22   43 1   
    36   23   44 1   
    37   24   25 1   
    38   25   45 1   
    39   26   46 1   
    40   26   47 1   
    41   26   48 1   
    42   27   28 1   
    43   28   49 1   
    44   28   50 1   
    45   28   51 1   
@<TRIPOS>SUBSTRUCTURE
     1 06W         1 TEMP              0 ****  ****    0 ROOT
