@<TRIPOS>MOLECULE
06W
   51    53     1     0     0
SMALL
bcc


@<TRIPOS>ATOM
      1 N1         -0.8630   -1.7040    0.7090 nb        1 06W     -0.829000
      2 C2          0.4630   -1.6500    0.3200 ca        1 06W      0.915900
      3 N3          1.5070   -1.1260    1.0750 nb        1 06W     -0.790000
      4 C4          1.1840   -0.5810    2.2640 ca        1 06W      0.539600
      5 C5         -0.1460   -0.5540    2.7560 ca        1 06W     -0.336600
      6 C6         -1.1620   -1.1630    1.9310 ca        1 06W      0.739200
      7 CAA        -0.1230   -3.9290    7.6760 ca        1 06W     -0.236800
      8 NAH         0.7680   -2.1110   -0.9620 nh        1 06W     -0.932500
      9 CAI         2.2970    0.0070    3.0920 c3        1 06W     -0.139700
     10 NAJ        -2.4620   -1.2580    2.3920 nh        1 06W     -0.951500
     11 CAK        -0.4790    0.0220    3.9850 cg        1 06W     -0.082000
     12 CAL        -0.7760    0.5160    5.0370 c1        1 06W     -0.155100
     13 CAM        -1.1150    1.1360    6.2910 c3        1 06W      0.068700
     14 CAN        -2.6260    1.2180    6.4710 c3        1 06W     -0.086100
     15 CAO        -0.4940    0.4140    7.4550 ca        1 06W     -0.048300
     16 CAP         0.2120    1.1360    8.4150 ca        1 06W     -0.144000
     17 CAQ         0.7730    0.4540    9.5110 ca        1 06W      0.123100
     18 CAR         0.6320   -0.9290    9.6490 ca        1 06W     -0.189000
     19 CAS        -0.0760   -1.6460    8.6740 cp        1 06W     -0.015000
     20 CAT        -0.6350   -0.9740    7.5820 ca        1 06W     -0.133000
     21 CAU        -0.2270   -3.0950    8.7990 cp        1 06W      0.001000
     22 CAV        -0.4800   -3.6900   10.0440 ca        1 06W     -0.236800
     23 CAW        -0.6180   -5.0870   10.1100 ca        1 06W      0.391700
     24 NAX        -0.5190   -5.8980    9.0390 nb        1 06W     -0.663000
     25 CAY        -0.2750   -5.3160    7.8490 ca        1 06W      0.391700
     26 CAZ         2.8730    1.2460    2.4520 c3        1 06W     -0.087100
     27 OBA         1.4490    1.2630   10.4050 os        1 06W     -0.327900
     28 CBB         2.0730    0.6050   11.5010 c3        1 06W      0.112700
     29 HNAH        1.7240   -2.2910   -1.1600 hn        1 06W      0.430800
     30 HNAA        0.0990   -2.6930   -1.4070 hn        1 06W      0.430800
     31 HAI         3.1060   -0.7630    3.2200 hc        1 06W      0.064200
     32 HAIA        1.9060    0.2540    4.1150 hc        1 06W      0.064200
     33 HNAJ       -3.1800   -1.5260    1.7640 hn        1 06W      0.433300
     34 HNAB       -2.7080   -0.6800    3.1600 hn        1 06W      0.433300
     35 HAM        -0.7090    2.1950    6.2680 hc        1 06W      0.071700
     36 HAN        -3.0850    1.7710    5.6170 hc        1 06W      0.043033
     37 HANA       -2.8640    1.7560    7.4200 hc        1 06W      0.043033
     38 HANB       -3.0710    0.1950    6.5190 hc        1 06W      0.043033
     39 HAP         0.3430    2.2240    8.3340 ha        1 06W      0.151000
     40 HAR         1.0740   -1.4640   10.5010 ha        1 06W      0.142000
     41 HAT        -1.1910   -1.5340    6.8150 ha        1 06W      0.145000
     42 HAV        -0.5790   -3.0780   10.9510 ha        1 06W      0.148000
     43 HAW        -0.8210   -5.5870   11.0730 h4        1 06W      0.022600
     44 HAY        -0.1960   -6.0010    6.9860 h4        1 06W      0.022600
     45 HAZ         3.3270    1.0080    1.4600 hc        1 06W      0.041033
     46 HAZA        3.6670    1.6740    3.1110 hc        1 06W      0.041033
     47 HAZB        2.0820    2.0190    2.3030 hc        1 06W      0.041033
     48 HBB         2.5670    1.4400   12.0580 h1        1 06W      0.045033
     49 HBBA        2.8310   -0.1320   11.1410 h1        1 06W      0.045033
     50 HBBB        1.3110    0.1010   12.1430 h1        1 06W      0.045033
     51 HAA         0.0800   -3.5100    6.6810 ha        1 06W      0.148000
@<TRIPOS>BOND
     1    1    2 ar  
     2    1    6 ar  
     3    2    3 ar  
     4    2    8 1   
     5    3    4 ar  
     6    4    5 ar  
     7    4    9 1   
     8    5    6 ar  
     9    5   11 1   
    10    6   10 1   
    11    7   21 ar  
    12    7   25 ar  
    13    7   51 1   
    14    8   29 1   
    15    8   30 1   
    16    9   26 1   
    17    9   31 1   
    18    9   32 1   
    19   10   33 1   
    20   10   34 1   
    21   11   12 3   
    22   12   13 1   
    23   13   14 1   
    24   13   15 1   
    25   13   35 1   
    26   14   36 1   
    27   14   37 1   
    28   14   38 1   
    29   15   16 ar  
    30   15   20 ar  
    31   16   17 ar  
    32   16   39 1   
    33   17   18 ar  
    34   17   27 1   
    35   18   19 ar  
    36   18   40 1   
    37   19   20 ar  
    38   19   21 1   
    39   20   41 1   
    40   21   22 ar  
    41   22   23 ar  
    42   22   42 1   
    43   23   24 ar  
    44   23   43 1   
    45   24   25 ar  
    46   25   44 1   
    47   26   45 1   
    48   26   46 1   
    49   26   47 1   
    50   27   28 1   
    51   28   48 1   
    52   28   49 1   
    53   28   50 1   
@<TRIPOS>SUBSTRUCTURE
     1 06W         1 TEMP              0 ****  ****    0 ROOT
