@<TRIPOS>MOLECULE
06W
   51    53     1     0     0
SMALL
bcc


@<TRIPOS>ATOM
      1 N1         -4.7880   -1.6990   -1.0960 nb        1 06W     -0.834000
      2 C2         -5.8670   -0.8400   -1.0250 ca        1 06W      0.916900
      3 N3         -5.8310    0.4710   -0.5600 nb        1 06W     -0.794000
      4 C4         -4.6490    0.9170   -0.0930 ca        1 06W      0.540600
      5 C5         -3.4780    0.1180   -0.0870 ca        1 06W     -0.341600
      6 C6         -3.5930   -1.2180   -0.6290 ca        1 06W      0.752200
      7 CAA         5.9150    0.0830   -0.0660 ca        1 06W     -0.236800
      8 NAH        -7.1120   -1.3490   -1.4020 nh        1 06W     -0.931500
      9 CAI        -4.5870    2.3300    0.4270 c3        1 06W     -0.138700
     10 NAJ        -2.4810   -2.0230   -0.7170 nh        1 06W     -0.963500
     11 CAK        -2.2540    0.5720    0.4090 cg        1 06W     -0.075000
     12 CAL        -1.1910    0.9320    0.8330 c1        1 06W     -0.161100
     13 CAM         0.0840    1.3770    1.3280 c3        1 06W      0.070700
     14 CAN         0.0580    1.5520    2.8420 c3        1 06W     -0.086100
     15 CAO         1.1860    0.4300    0.9370 ca        1 06W     -0.042300
     16 CAP         1.0200   -0.9450    1.0970 ca        1 06W     -0.145000
     17 CAQ         2.0670   -1.8110    0.7360 ca        1 06W      0.123100
     18 CAR         3.2710   -1.3130    0.2280 ca        1 06W     -0.189000
     19 CAS         3.4260    0.0710    0.0690 cp        1 06W     -0.012000
     20 CAT         2.3840    0.9370    0.4200 ca        1 06W     -0.142000
     21 CAU         4.6770    0.6070   -0.4660 cp        1 06W      0.000000
     22 CAV         4.6710    1.6590   -1.3930 ca        1 06W     -0.236800
     23 CAW         5.9000    2.1380   -1.8780 ca        1 06W      0.392700
     24 NAX         7.0960    1.6440   -1.5010 nb        1 06W     -0.662000
     25 CAY         7.0880    0.6350   -0.6090 ca        1 06W      0.392700
     26 CAZ        -5.3910    2.4940    1.6930 c3        1 06W     -0.087100
     27 OBA         1.7940   -3.1530    0.9210 os        1 06W     -0.329900
     28 CBB         2.8390   -4.0600    0.5910 c3        1 06W      0.112700
     29 HNAH       -7.1150   -2.1770   -1.9500 hn        1 06W      0.429800
     30 HNAA       -7.8320   -0.6900   -1.5820 hn        1 06W      0.429800
     31 HAI        -3.5160    2.6060    0.6190 hc        1 06W      0.061700
     32 HAIA       -4.9780    3.0290   -0.3610 hc        1 06W      0.061700
     33 HNAJ       -1.6470   -1.7230   -0.2740 hn        1 06W      0.443300
     34 HNAB       -2.5680   -2.9700   -0.9910 hn        1 06W      0.443300
     35 HAM         0.2990    2.3890    0.8630 hc        1 06W      0.069700
     36 HAN        -0.7500    2.2670    3.1300 hc        1 06W      0.044367
     37 HANA       -0.1320    0.5740    3.3450 hc        1 06W      0.044367
     38 HANB        1.0390    1.9520    3.1930 hc        1 06W      0.044367
     39 HAP         0.0850   -1.3570    1.5030 ha        1 06W      0.152000
     40 HAR         4.0910   -1.9880   -0.0570 ha        1 06W      0.143000
     41 HAT         2.5120    2.0220    0.2930 ha        1 06W      0.140000
     42 HAV         3.7260    2.0980   -1.7410 ha        1 06W      0.146500
     43 HAW         5.9320    2.9640   -2.6110 h4        1 06W      0.023600
     44 HAY         8.0810    0.2490   -0.3130 h4        1 06W      0.023600
     45 HAZ        -5.2900    3.5410    2.0700 hc        1 06W      0.041033
     46 HAZA       -6.4730    2.2870    1.5080 hc        1 06W      0.041033
     47 HAZB       -5.0290    1.7960    2.4860 hc        1 06W      0.041033
     48 HBB         3.7430   -3.8660    1.2180 h1        1 06W      0.046367
     49 HBBA        2.4000   -5.0610    0.8310 h1        1 06W      0.046367
     50 HBBB        3.0930   -3.9900   -0.4940 h1        1 06W      0.046367
     51 HAA         5.9710   -0.7350    0.6640 ha        1 06W      0.146500
@<TRIPOS>BOND
     1    1    2 ar  
     2    1    6 ar  
     3    2    3 ar  
     4    2    8 1   
     5    3    4 ar  
     6    4    5 ar  
     7    4    9 1   
     8    5    6 ar  
     9    5   11 1   
    10    6   10 1   
    11    7   21 ar  
    12    7   25 ar  
    13    7   51 1   
    14    8   29 1   
    15    8   30 1   
    16    9   26 1   
    17    9   31 1   
    18    9   32 1   
    19   10   33 1   
    20   10   34 1   
    21   11   12 3   
    22   12   13 1   
    23   13   14 1   
    24   13   15 1   
    25   13   35 1   
    26   14   36 1   
    27   14   37 1   
    28   14   38 1   
    29   15   16 ar  
    30   15   20 ar  
    31   16   17 ar  
    32   16   39 1   
    33   17   18 ar  
    34   17   27 1   
    35   18   19 ar  
    36   18   40 1   
    37   19   20 ar  
    38   19   21 1   
    39   20   41 1   
    40   21   22 ar  
    41   22   23 ar  
    42   22   42 1   
    43   23   24 ar  
    44   23   43 1   
    45   24   25 ar  
    46   25   44 1   
    47   26   45 1   
    48   26   46 1   
    49   26   47 1   
    50   27   28 1   
    51   28   48 1   
    52   28   49 1   
    53   28   50 1   
@<TRIPOS>SUBSTRUCTURE
     1 06W         1 TEMP              0 ****  ****    0 ROOT
