@<TRIPOS>MOLECULE
06W
   51    53     1     0     0
SMALL
bcc


@<TRIPOS>ATOM
      1 N1         -0.5050    0.6070    0.2650 nb        1 06W     -0.834000
      2 C2          0.8430    0.3740    0.0710 ca        1 06W      0.915900
      3 N3          1.7580    0.0320    1.0610 nb        1 06W     -0.794000
      4 C4          1.2920   -0.0250    2.3240 ca        1 06W      0.540600
      5 C5         -0.0640    0.2240    2.6510 ca        1 06W     -0.342600
      6 C6         -0.9580    0.5300    1.5560 ca        1 06W      0.753200
      7 CAA        -7.0230   -2.2890    7.6840 ca        1 06W     -0.236800
      8 NAH         1.3380    0.5490   -1.2240 nv        1 06W     -0.931500
      9 CAI         2.2670   -0.3830    3.4160 c3        1 06W     -0.138700
     10 NAJ        -2.2990    0.7170    1.7940 nv        1 06W     -0.963500
     11 CAK        -0.5470    0.1800    3.9610 cg        1 06W     -0.075000
     12 CAL        -0.9900    0.1550    5.0760 c1        1 06W     -0.161100
     13 CAM        -1.5160    0.1060    6.4140 c3        1 06W      0.069700
     14 CAN        -0.9710    1.2490    7.2630 c3        1 06W     -0.086100
     15 CAO        -3.0200    0.1340    6.4140 ca        1 06W     -0.042300
     16 CAP        -3.7070    1.0340    5.6010 ca        1 06W     -0.145000
     17 CAQ        -5.1130    1.0460    5.6230 ca        1 06W      0.123100
     18 CAR        -5.8290    0.1730    6.4470 ca        1 06W     -0.189000
     19 CAS        -5.1280   -0.7250    7.2640 cp        1 06W     -0.012000
     20 CAT        -3.7290   -0.7420    7.2450 ca        1 06W     -0.142000
     21 CAU        -5.8620   -1.6430    8.1340 cp        1 06W      0.000000
     22 CAV        -5.4240   -1.9020    9.4410 ca        1 06W     -0.236800
     23 CAW        -6.1660   -2.7910   10.2380 ca        1 06W      0.393200
     24 NAX        -7.2810   -3.4180    9.8170 nb        1 06W     -0.662000
     25 CAY        -7.6910   -3.1630    8.5590 ca        1 06W      0.393200
     26 CAZ         3.3000    0.6990    3.6190 c3        1 06W     -0.087100
     27 OBA        -5.6940    1.9660    4.7690 os        1 06W     -0.329900
     28 CBB        -7.1120    2.0640    4.8210 c3        1 06W      0.112700
     29 HNAH        0.6780    0.5520   -1.9650 hn        1 06W      0.429300
     30 HNAA        2.2300    0.1580   -1.4200 hn        1 06W      0.429300
     31 HAI         1.7040   -0.5540    4.3720 hc        1 06W      0.061700
     32 HAIA        2.7780   -1.3480    3.1510 hc        1 06W      0.061700
     33 HNAJ       -2.6080    0.7720    2.7340 hn        1 06W      0.443800
     34 HNAB       -2.9010    1.0210    1.0700 hn        1 06W      0.443800
     35 HAM        -1.1760   -0.8700    6.8810 hc        1 06W      0.070700
     36 HAN         0.1440    1.2170    7.2750 hc        1 06W      0.044033
     37 HANA       -1.2980    2.2320    6.8490 hc        1 06W      0.044033
     38 HANB       -1.3490    1.1560    8.3090 hc        1 06W      0.044033
     39 HAP        -3.1650    1.7320    4.9480 ha        1 06W      0.152000
     40 HAR        -6.9280    0.1840    6.4700 ha        1 06W      0.143000
     41 HAT        -3.1840   -1.4570    7.8810 ha        1 06W      0.140000
     42 HAV        -4.5240   -1.4160    9.8400 ha        1 06W      0.146500
     43 HAW        -5.8510   -3.0150   11.2730 h4        1 06W      0.023100
     44 HAY        -8.6060   -3.6910    8.2370 h4        1 06W      0.023100
     45 HAZ         3.9780    0.4180    4.4600 hc        1 06W      0.040700
     46 HAZA        3.9150    0.8400    2.6980 hc        1 06W      0.040700
     47 HAZB        2.8110    1.6710    3.8680 hc        1 06W      0.040700
     48 HBB        -7.4540    2.3400    5.8480 h1        1 06W      0.046033
     49 HBBA       -7.3430    2.8840    4.0940 h1        1 06W      0.046033
     50 HBBB       -7.5840    1.1050    4.4950 h1        1 06W      0.046033
     51 HAA        -7.4000   -2.1260    6.6660 ha        1 06W      0.146500
@<TRIPOS>BOND
     1    1    2 ar  
     2    1    6 ar  
     3    2    3 ar  
     4    2    8 1   
     5    3    4 ar  
     6    4    5 ar  
     7    4    9 1   
     8    5    6 ar  
     9    5   11 1   
    10    6   10 1   
    11    7   21 ar  
    12    7   25 ar  
    13    7   51 1   
    14    8   29 1   
    15    8   30 1   
    16    9   26 1   
    17    9   31 1   
    18    9   32 1   
    19   10   33 1   
    20   10   34 1   
    21   11   12 3   
    22   12   13 1   
    23   13   14 1   
    24   13   15 1   
    25   13   35 1   
    26   14   36 1   
    27   14   37 1   
    28   14   38 1   
    29   15   16 ar  
    30   15   20 ar  
    31   16   17 ar  
    32   16   39 1   
    33   17   18 ar  
    34   17   27 1   
    35   18   19 ar  
    36   18   40 1   
    37   19   20 ar  
    38   19   21 1   
    39   20   41 1   
    40   21   22 ar  
    41   22   23 ar  
    42   22   42 1   
    43   23   24 ar  
    44   23   43 1   
    45   24   25 ar  
    46   25   44 1   
    47   26   45 1   
    48   26   46 1   
    49   26   47 1   
    50   27   28 1   
    51   28   48 1   
    52   28   49 1   
    53   28   50 1   
@<TRIPOS>SUBSTRUCTURE
     1 06W         1 TEMP              0 ****  ****    0 ROOT
