@<TRIPOS>MOLECULE
06W
   53    55     1     0     0
SMALL
bcc


@<TRIPOS>ATOM
      1 N1          0.1200    0.5110    0.0750 nb        1 06W     -0.659000
      2 C2          1.4400    0.3660    0.3550 ca        1 06W      0.726900
      3 N3          2.0070    0.0750    1.5820 nb        1 06W     -0.637000
      4 C4          1.1740   -0.0830    2.6210 ca        1 06W      0.538600
      5 C5         -0.2670    0.0460    2.4570 ca        1 06W     -0.002600
      6 C6         -0.7190    0.3450    1.1470 ca        1 06W      0.460200
      7 CAA         2.4650   -2.8100    8.3310 ca        1 06W     -0.240800
      8 NAH         2.3990    0.5330   -0.7750 n4        1 06W     -0.813300
      9 CAI         1.7480   -0.3950    3.9760 c3        1 06W     -0.156700
     10 NAJ        -2.1640    0.4920    0.8850 n4        1 06W     -0.814300
     11 CAK        -1.1390   -0.1200    3.5210 cg        1 06W     -0.358000
     12 CAL        -1.7980   -0.2880    4.5200 c1        1 06W      0.179900
     13 CAM        -2.5790   -0.4840    5.7170 c3        1 06W      0.013700
     14 CAN        -3.5840   -1.6170    5.5410 c3        1 06W     -0.093100
     15 CAO        -1.6710   -0.7470    6.8870 ca        1 06W     -0.082300
     16 CAP        -1.8370   -0.0030    8.0600 ca        1 06W     -0.194000
     17 CAQ        -1.0010   -0.2690    9.1520 ca        1 06W      0.154100
     18 CAR        -0.0000   -1.2600    9.0740 ca        1 06W     -0.119000
     19 CAS         0.1530   -1.9910    7.8970 cp        1 06W      0.004000
     20 CAT        -0.6900   -1.7340    6.8020 ca        1 06W     -0.168000
     21 CAU         1.1870   -3.0200    7.7940 cp        1 06W     -0.027000
     22 CAV         0.9240   -4.2420    7.1580 ca        1 06W     -0.240800
     23 CAW         1.9550   -5.1950    7.0780 ca        1 06W      0.401200
     24 NAX         3.1910   -4.9980    7.5740 nb        1 06W     -0.641000
     25 CAY         3.4280   -3.8260    8.1930 ca        1 06W      0.401200
     26 CAZ         2.4710    0.7970    4.5580 c3        1 06W     -0.100100
     27 OBA        -1.0550    0.3940   10.3540 os        1 06W     -0.306900
     28 CBB        -2.1420    1.2970   10.5440 c3        1 06W      0.106700
     29 HNAH        3.0430    1.3090   -0.5550 hn        1 06W      0.497467
     30 HNAA        1.9000    0.7390   -1.6530 hn        1 06W      0.497467
     31 HAI         0.9190   -0.7180    4.6660 hc        1 06W      0.106200
     32 HAIA        2.4650   -1.2600    3.8840 hc        1 06W      0.106200
     33 HNAJ       -2.3680    1.4430    0.5420 hn        1 06W      0.489800
     34 HNAB       -2.6770    0.3280    1.7660 hn        1 06W      0.489800
     35 HAM        -3.1560    0.4760    5.9060 hc        1 06W      0.110700
     36 HAN        -4.1920   -1.7090    6.4750 hc        1 06W      0.064700
     37 HANA       -4.2700   -1.4070    4.6860 hc        1 06W      0.064700
     38 HANB       -3.0610   -2.5880    5.3680 hc        1 06W      0.064700
     39 HAP        -2.6180    0.7680    8.1270 ha        1 06W      0.148000
     40 HAR         0.6370   -1.4520    9.9530 ha        1 06W      0.178000
     41 HAT        -0.5810   -2.3300    5.8850 ha        1 06W      0.124000
     42 HAV        -0.0720   -4.4690    6.7560 ha        1 06W      0.147000
     43 HAW         1.7820   -6.1760    6.5980 h4        1 06W      0.037100
     44 HAY         4.4460   -3.6990    8.6100 h4        1 06W      0.037100
     45 HAZ         1.7880    1.6750    4.6600 hc        1 06W      0.066367
     46 HAZA        3.3460    1.0880    3.9280 hc        1 06W      0.066367
     47 HAZB        2.8480    0.5280    5.5770 hc        1 06W      0.066367
     48 HBB        -2.0600    2.1590    9.8390 h1        1 06W      0.057033
     49 HBBA       -3.1200    0.7720   10.4200 h1        1 06W      0.057033
     50 HBBB       -2.0050    1.6380   11.6030 h1        1 06W      0.057033
     51 HAH3        2.9440   -0.3360   -0.8840 hn        1 06W      0.497467
     52 HAJ3       -2.4710   -0.1910    0.1770 hn        1 06W      0.489800
     53 HAA         2.7130   -1.8770    8.8560 ha        1 06W      0.147000
@<TRIPOS>BOND
     1    1    2 ar  
     2    1    6 ar  
     3    2    3 ar  
     4    2    8 1   
     5    3    4 ar  
     6    4    5 ar  
     7    4    9 1   
     8    5    6 ar  
     9    5   11 1   
    10    6   10 1   
    11    7   21 ar  
    12    7   25 ar  
    13    7   53 1   
    14    8   29 1   
    15    8   30 1   
    16    8   51 1   
    17    9   26 1   
    18    9   31 1   
    19    9   32 1   
    20   10   33 1   
    21   10   34 1   
    22   10   52 1   
    23   11   12 3   
    24   12   13 1   
    25   13   14 1   
    26   13   15 1   
    27   13   35 1   
    28   14   36 1   
    29   14   37 1   
    30   14   38 1   
    31   15   16 ar  
    32   15   20 ar  
    33   16   17 ar  
    34   16   39 1   
    35   17   18 ar  
    36   17   27 1   
    37   18   19 ar  
    38   18   40 1   
    39   19   20 ar  
    40   19   21 1   
    41   20   41 1   
    42   21   22 ar  
    43   22   23 ar  
    44   22   42 1   
    45   23   24 ar  
    46   23   43 1   
    47   24   25 ar  
    48   25   44 1   
    49   26   45 1   
    50   26   46 1   
    51   26   47 1   
    52   27   28 1   
    53   28   48 1   
    54   28   49 1   
    55   28   50 1   
@<TRIPOS>SUBSTRUCTURE
     1 06W         1 TEMP              0 ****  ****    0 ROOT
