@<TRIPOS>MOLECULE
06X
   53    48     1     0     0
SMALL
bcc


@<TRIPOS>ATOM
      1 CLAG        3.7860   -1.7340   -0.0790 cl        1 06X     -0.012000
      2 CAZ         2.9130   -1.4370    1.3930 c1        1 06X     -0.043000
      3 CAJ         3.5850   -1.4470    2.6210 c1        1 06X     -0.124500
      4 CAH         2.8920   -1.1890    3.7850 c1        1 06X     -0.124500
      5 CAI         1.5250   -0.9190    3.7400 c1        1 06X     -0.124500
      6 CAK         0.8580   -0.9090    2.5240 c1        1 06X     -0.124500
      7 CBA         1.5470   -1.1670    1.3500 c1        1 06X     -0.061000
      8 CBB         0.7860   -1.2100    0.0050 c3        1 06X      0.054000
      9 CAY         0.4880    0.1910   -0.2810 c2        1 06X     -0.223000
     10 CAV         1.5060    1.0450   -1.0270 c2        1 06X      0.361000
     11 OAF         1.8810    2.0720   -0.5540 o         1 06X     -0.392000
     12 OAS         2.0380    0.6000   -2.2430 os        1 06X     -0.261000
     13 CAL         2.9050    1.5330   -2.8600 c3        1 06X     -0.009000
     14 CAA         3.7210    0.8300   -3.9550 c3        1 06X     -0.219000
     15 CAX        -0.3890   -2.1050    0.2800 c1        1 06X     -0.222000
     16 CAU        -0.1710   -3.6080    0.4830 c1        1 06X      0.359000
     17 OAE         0.0070   -4.0580    1.6200 o         1 06X     -0.382000
     18 OAQ        -0.0520   -4.4640   -0.6490 o         1 06X     -0.262000
     19 CAB         0.2560   -5.8100   -0.3230 c3        1 06X     -0.061000
     20 CAT        -1.8140   -1.5360    0.2170 c1        1 06X      0.109000
     21 CAC        -3.0270   -2.4890    0.1370 c2        1 06X     -0.202000
     22 NAP        -2.0160   -0.1180    0.2190 n3        1 06X     -0.243000
     23 CAW        -0.9010    0.7630    0.0270 c2        1 06X      0.104000
     24 CAO        -1.1170    2.2860    0.0220 c3        1 06X     -0.002000
     25 OAR        -2.4720    2.5670    0.2560 os        1 06X     -0.309000
     26 CAN        -2.7690    3.9830    0.3760 c3        1 06X     -0.015000
     27 CAM        -3.9970    4.3280   -0.4820 c3        1 06X     -0.083000
     28 NAD        -4.1660    5.7990   -0.5250 n3        1 06X     -0.348000
     29 H1          4.5430   -1.6390    2.6550 ha        1 06X      0.137500
     30 H2          3.3500   -1.1950    4.6270 ha        1 06X      0.137500
     31 H3          1.0460   -0.7410    4.5490 ha        1 06X      0.137500
     32 H4         -0.0670   -0.7260    2.4970 ha        1 06X      0.137500
     33 H5          2.3690    2.2680   -3.2650 h1        1 06X      0.089500
     34 H6          3.5090    1.9010   -2.1930 h1        1 06X      0.089500
     35 H7          3.1210    0.4770   -4.6280 hc        1 06X      0.087667
     36 H8          4.3590    1.4990   -4.3860 hc        1 06X      0.087667
     37 H9          4.2500    0.0740   -3.5470 hc        1 06X      0.087667
     38 H10         1.1660   -5.8570    0.0700 h1        1 06X      0.088667
     39 H11         0.2230   -6.3620   -1.1410 h1        1 06X      0.088667
     40 H12        -0.4000   -6.1460    0.3280 h1        1 06X      0.088667
     41 H13        -3.2320   -2.8360    1.0370 ha        1 06X      0.111000
     42 H14        -2.8190   -3.2320   -0.4580 ha        1 06X      0.111000
     43 H15        -3.8030   -2.0020   -0.2080 ha        1 06X      0.111000
     44 H16        -0.8550    2.6470   -0.8410 h1        1 06X      0.118000
     45 H17        -0.5610    2.7030    0.7380 h1        1 06X      0.118000
     46 H18        -2.9580    4.2030    1.3310 h1        1 06X      0.083000
     47 H19        -1.9920    4.5110    0.0640 h1        1 06X      0.083000
     48 H20        -4.7850    3.9220   -0.0960 h1        1 06X      0.077000
     49 H21        -3.8700    3.9900   -1.3850 h1        1 06X      0.077000
     50 H22        -4.0090    6.1070   -1.3950 hn        1 06X      0.149500
     51 H23        -5.0150    6.0170   -0.2730 hn        1 06X      0.149500
     52 H25         1.4160   -1.5920   -0.6130 hc        1 06X      0.151000
     53 H26        -2.7920    0.2100    0.4540 hn        1 06X      0.261000
@<TRIPOS>BOND
     1    1    2 1   
     2    2    7 1   
     3    3    4 1   
     4    3   29 1   
     5    4   30 1   
     6    5    6 1   
     7    5   31 1   
     8    6   32 1   
     9    7    8 1   
    10    8    9 1   
    11    8   15 1   
    12    8   52 1   
    13    9   10 1   
    14    9   23 1   
    15   10   11 1   
    16   10   12 1   
    17   12   13 1   
    18   13   14 1   
    19   13   33 1   
    20   13   34 1   
    21   14   35 1   
    22   14   36 1   
    23   14   37 1   
    24   15   20 1   
    25   16   17 1   
    26   18   19 1   
    27   19   38 1   
    28   19   39 1   
    29   19   40 1   
    30   20   22 1   
    31   21   41 1   
    32   21   42 1   
    33   21   43 1   
    34   22   23 1   
    35   22   53 1   
    36   23   24 1   
    37   24   25 1   
    38   24   44 1   
    39   24   45 1   
    40   25   26 1   
    41   26   27 1   
    42   26   46 1   
    43   26   47 1   
    44   27   28 1   
    45   27   48 1   
    46   27   49 1   
    47   28   50 1   
    48   28   51 1   
@<TRIPOS>SUBSTRUCTURE
     1 06X         1 TEMP              0 ****  ****    0 ROOT
