@<TRIPOS>MOLECULE
06X
   54    55     1     0     0
SMALL
bcc


@<TRIPOS>ATOM
      1 CLAG        0.9470    0.9820    0.0450 cl        1 06X     -0.035400
      2 CAZ         2.5760    0.6410   -0.2700 ca        1 06X      0.024400
      3 CAJ         3.4900    0.7770    0.7870 ca        1 06X     -0.118000
      4 CAH         4.8420    0.5160    0.5840 ca        1 06X     -0.117000
      5 CAI         5.2890    0.1080   -0.6730 ca        1 06X     -0.166000
      6 CAK         4.3800   -0.0420   -1.7180 ca        1 06X     -0.178000
      7 CBA         3.0150    0.2280   -1.5390 ca        1 06X     -0.096300
      8 CBB         2.0610    0.0530   -2.6960 c3        1 06X      0.090000
      9 CAY         2.1570    1.2380   -3.6150 ce        1 06X     -0.266400
     10 CAV         1.4130    2.4320   -3.1930 c         1 06X      0.652300
     11 OAF         0.2090    2.5800   -3.0220 o         1 06X     -0.458000
     12 OAS         2.2310    3.5200   -2.9510 os        1 06X     -0.538900
     13 CAL         1.5920    4.7180   -2.4630 c3        1 06X      0.131400
     14 CAA         2.6990    5.6170   -1.9720 c3        1 06X     -0.112100
     15 CAX         2.3410   -1.2240   -3.4390 ce        1 06X     -0.223400
     16 CAU         1.7990   -2.4220   -2.7850 c         1 06X      0.648300
     17 OAE         0.8830   -2.4610   -1.9600 o         1 06X     -0.519000
     18 OAQ         2.3920   -3.6050   -3.1390 os        1 06X     -0.445900
     19 CAB         1.8950   -4.7820   -2.4920 c3        1 06X      0.124700
     20 CAT         2.9930   -1.2360   -4.6400 c2        1 06X      0.175800
     21 CAC         3.3250   -2.4930   -5.3740 c3        1 06X     -0.079900
     22 NAP         3.3930   -0.0250   -5.2300 nh        1 06X     -0.618800
     23 CAW         2.8160    1.1660   -4.8100 c2        1 06X      0.119800
     24 CAO         2.9820    2.3690   -5.7170 c3        1 06X      0.137600
     25 OAR         4.3590    2.7160   -5.8170 os        1 06X     -0.405600
     26 CAN         4.8010    3.7780   -4.9900 c3        1 06X      0.105400
     27 CAM         5.6730    3.2340   -3.8490 c3        1 06X      0.069800
     28 NAD         4.8800    2.7040   -2.7130 n4        1 06X     -0.848600
     29 H1          3.1300    1.0750    1.7860 ha        1 06X      0.169000
     30 H2          5.5500    0.6070    1.4230 ha        1 06X      0.158000
     31 H3          6.3500   -0.1470   -0.8240 ha        1 06X      0.147000
     32 H4          4.7240   -0.4420   -2.6870 ha        1 06X      0.146000
     33 H5          1.0220    5.1740   -3.3140 h1        1 06X      0.076700
     34 H6          0.8760    4.4470   -1.6420 h1        1 06X      0.076700
     35 H7          3.2380    5.1530   -1.1110 hc        1 06X      0.049367
     36 H8          2.2530    6.5850   -1.6320 hc        1 06X      0.049367
     37 H9          3.4330    5.8290   -2.7860 hc        1 06X      0.049367
     38 H10         0.8120   -4.9160   -2.7300 h1        1 06X      0.060367
     39 H11         2.0390   -4.6980   -1.3890 h1        1 06X      0.060367
     40 H12         2.5190   -5.6010   -2.9290 h1        1 06X      0.060367
     41 H13         2.4040   -3.1260   -5.4580 hc        1 06X      0.079033
     42 H14         3.7270   -2.3110   -6.4010 hc        1 06X      0.079033
     43 H15         4.0830   -3.0720   -4.7870 hc        1 06X      0.079033
     44 H16         2.3540    3.2240   -5.3510 h1        1 06X      0.096200
     45 H17         2.6840    2.1160   -6.7740 h1        1 06X      0.096200
     46 H18         3.9540    4.4050   -4.6020 h1        1 06X      0.095700
     47 H19         5.4660    4.4010   -5.6550 h1        1 06X      0.095700
     48 H20         6.3210    2.4000   -4.2470 hx        1 06X      0.113200
     49 H21         6.3340    4.0620   -3.4640 hx        1 06X      0.113200
     50 H22         5.4850    2.2720   -2.0050 hn        1 06X      0.468133
     51 H23         4.3220    3.4580   -2.2850 hn        1 06X      0.468133
     52 H25         1.0010   -0.0120   -2.2920 hc        1 06X      0.132700
     53 H26         3.7770   -0.0560   -6.1510 hn        1 06X      0.461800
     54 HAD3        4.2100    1.9860   -3.0480 hn        1 06X      0.468133
@<TRIPOS>BOND
     1    1    2 1   
     2    2    3 ar  
     3    2    7 ar  
     4    3    4 ar  
     5    3   29 1   
     6    4    5 ar  
     7    4   30 1   
     8    5    6 ar  
     9    5   31 1   
    10    6    7 ar  
    11    6   32 1   
    12    7    8 1   
    13    8    9 1   
    14    8   15 1   
    15    8   52 1   
    16    9   10 1   
    17    9   23 2   
    18   10   11 2   
    19   10   12 1   
    20   12   13 1   
    21   13   14 1   
    22   13   33 1   
    23   13   34 1   
    24   14   35 1   
    25   14   36 1   
    26   14   37 1   
    27   15   16 1   
    28   15   20 2   
    29   16   17 2   
    30   16   18 1   
    31   18   19 1   
    32   19   38 1   
    33   19   39 1   
    34   19   40 1   
    35   20   21 1   
    36   20   22 1   
    37   21   41 1   
    38   21   42 1   
    39   21   43 1   
    40   22   23 1   
    41   22   53 1   
    42   23   24 1   
    43   24   25 1   
    44   24   44 1   
    45   24   45 1   
    46   25   26 1   
    47   26   27 1   
    48   26   46 1   
    49   26   47 1   
    50   27   28 1   
    51   27   48 1   
    52   27   49 1   
    53   28   50 1   
    54   28   51 1   
    55   28   54 1   
@<TRIPOS>SUBSTRUCTURE
     1 06X         1 TEMP              0 ****  ****    0 ROOT
