@<TRIPOS>MOLECULE
06X
   54    55     1     0     0
SMALL
bcc


@<TRIPOS>ATOM
      1 CLAG        1.0370    1.0130    0.1130 cl        1 06X     -0.035400
      2 CAZ         2.6540    0.6630   -0.2470 ca        1 06X      0.024400
      3 CAJ         3.5990    0.8010    0.7820 ca        1 06X     -0.118000
      4 CAH         4.9430    0.5330    0.5410 ca        1 06X     -0.117000
      5 CAI         5.3520    0.1140   -0.7260 ca        1 06X     -0.166000
      6 CAK         4.4120   -0.0390   -1.7420 ca        1 06X     -0.178000
      7 CBA         3.0540    0.2390   -1.5260 ca        1 06X     -0.096300
      8 CBB         2.0660    0.0600   -2.6520 c3        1 06X      0.090000
      9 CAY         2.1390    1.2390   -3.5820 ce        1 06X     -0.266400
     10 CAV         1.4140    2.4390   -3.1470 c         1 06X      0.652300
     11 OAF         0.2170    2.5950   -2.9420 o         1 06X     -0.458000
     12 OAS         2.2450    3.5250   -2.9360 os        1 06X     -0.538900
     13 CAL         1.6260    4.7290   -2.4380 c3        1 06X      0.131400
     14 CAA         2.7520    5.6260   -1.9840 c3        1 06X     -0.112100
     15 CAX         2.3170   -1.2220   -3.3940 ce        1 06X     -0.223400
     16 CAU         1.7900   -2.4140   -2.7170 c         1 06X      0.648300
     17 OAE         0.8980   -2.4430   -1.8650 o         1 06X     -0.519000
     18 OAQ         2.3680   -3.6010   -3.0790 os        1 06X     -0.445900
     19 CAB         1.8850   -4.7720   -2.4090 c3        1 06X      0.124700
     20 CAT         2.9330   -1.2450   -4.6140 c2        1 06X      0.175800
     21 CAC         3.2380   -2.5090   -5.3490 c3        1 06X     -0.079900
     22 NAP         3.3210   -0.0410   -5.2240 nh        1 06X     -0.618800
     23 CAW         2.7630    1.1560   -4.7960 c2        1 06X      0.119800
     24 CAO         2.9070    2.3520   -5.7150 c3        1 06X      0.137600
     25 OAR         4.2830    2.6910   -5.8590 os        1 06X     -0.405600
     26 CAN         4.7550    3.7570   -5.0530 c3        1 06X      0.105400
     27 CAM         5.6570    3.2160   -3.9350 c3        1 06X      0.069800
     28 NAD         4.8960    2.6980   -2.7720 n4        1 06X     -0.848600
     29 H1          3.2700    1.1070    1.7890 ha        1 06X      0.169000
     30 H2          5.6760    0.6260    1.3580 ha        1 06X      0.158000
     31 H3          6.4060   -0.1460   -0.9060 ha        1 06X      0.147000
     32 H4          4.7250   -0.4460   -2.7180 ha        1 06X      0.146000
     33 H5          0.9330    4.4680   -1.5950 h1        1 06X      0.076700
     34 H6          1.0340    5.1830   -3.2750 h1        1 06X      0.076700
     35 H7          3.3130    5.1640   -1.1370 hc        1 06X      0.049367
     36 H8          2.3210    6.5980   -1.6390 hc        1 06X      0.049367
     37 H9          3.4630    5.8270   -2.8210 hc        1 06X      0.049367
     38 H10         0.7950   -4.9030   -2.6140 h1        1 06X      0.060367
     39 H11         2.4920   -5.5960   -2.8580 h1        1 06X      0.060367
     40 H12         2.0620   -4.6800   -1.3110 h1        1 06X      0.060367
     41 H13         2.3120   -3.1390   -5.4010 hc        1 06X      0.079033
     42 H14         3.6100   -2.3370   -6.3890 hc        1 06X      0.079033
     43 H15         4.0110   -3.0880   -4.7810 hc        1 06X      0.079033
     44 H16         2.2960    3.2130   -5.3370 h1        1 06X      0.096200
     45 H17         2.5770    2.0930   -6.7620 h1        1 06X      0.096200
     46 H18         5.4030    4.3710   -5.7420 h1        1 06X      0.095700
     47 H19         3.9230    4.3910   -4.6440 h1        1 06X      0.095700
     48 H20         6.3330    4.0430   -3.5750 hx        1 06X      0.113200
     49 H21         6.2880    2.3750   -4.3460 hx        1 06X      0.113200
     50 H22         4.2120    1.9810   -3.0820 hn        1 06X      0.468133
     51 H23         5.5180    2.2670   -2.0790 hn        1 06X      0.468133
     52 H25         1.0180    0.0040   -2.2170 hc        1 06X      0.132700
     53 H26         3.6780   -0.0800   -6.1560 hn        1 06X      0.461800
     54 HAD3        4.3540    3.4580   -2.3330 hn        1 06X      0.468133
@<TRIPOS>BOND
     1    1    2 1   
     2    2    3 ar  
     3    2    7 ar  
     4    3    4 ar  
     5    3   29 1   
     6    4    5 ar  
     7    4   30 1   
     8    5    6 ar  
     9    5   31 1   
    10    6    7 ar  
    11    6   32 1   
    12    7    8 1   
    13    8    9 1   
    14    8   15 1   
    15    8   52 1   
    16    9   10 1   
    17    9   23 2   
    18   10   11 2   
    19   10   12 1   
    20   12   13 1   
    21   13   14 1   
    22   13   33 1   
    23   13   34 1   
    24   14   35 1   
    25   14   36 1   
    26   14   37 1   
    27   15   16 1   
    28   15   20 2   
    29   16   17 2   
    30   16   18 1   
    31   18   19 1   
    32   19   38 1   
    33   19   39 1   
    34   19   40 1   
    35   20   21 1   
    36   20   22 1   
    37   21   41 1   
    38   21   42 1   
    39   21   43 1   
    40   22   23 1   
    41   22   53 1   
    42   23   24 1   
    43   24   25 1   
    44   24   44 1   
    45   24   45 1   
    46   25   26 1   
    47   26   27 1   
    48   26   46 1   
    49   26   47 1   
    50   27   28 1   
    51   27   48 1   
    52   27   49 1   
    53   28   50 1   
    54   28   51 1   
    55   28   54 1   
@<TRIPOS>SUBSTRUCTURE
     1 06X         1 TEMP              0 ****  ****    0 ROOT
