@<TRIPOS>MOLECULE
06X
   53    54     1     0     0
SMALL
bcc


@<TRIPOS>ATOM
      1 CLAG       -3.0930   -2.1320    1.3900 cl        1 06X     -0.071400
      2 CAZ        -2.5880   -1.9450   -0.2220 ca        1 06X      0.032400
      3 CAJ        -3.1540   -2.7970   -1.1800 ca        1 06X     -0.133000
      4 CAH        -2.7810   -2.6930   -2.5160 ca        1 06X     -0.120000
      5 CAI        -1.8420   -1.7370   -2.9030 ca        1 06X     -0.137000
      6 CAK        -1.2820   -0.8910   -1.9510 ca        1 06X     -0.106000
      7 CBA        -1.6420   -0.9780   -0.5990 ca        1 06X     -0.079300
      8 CBB        -1.0100   -0.0390    0.3970 c3        1 06X      0.101000
      9 CAY         0.4710   -0.2820    0.4800 ce        1 06X     -0.228400
     10 CAV         0.8570   -1.4710    1.2450 c         1 06X      0.656300
     11 OAF         0.3530   -1.9010    2.2850 o         1 06X     -0.527000
     12 OAS         1.9120   -2.1750    0.7170 os        1 06X     -0.457900
     13 CAL         2.2670   -3.3930    1.3970 c3        1 06X      0.138400
     14 CAA         3.3760   -4.0230    0.5900 c3        1 06X     -0.100100
     15 CAX        -1.2990    1.3900    0.0310 ce        1 06X     -0.235400
     16 CAU        -2.6520    1.8450    0.3590 c         1 06X      0.655300
     17 OAE        -3.3580    1.5030    1.3110 o         1 06X     -0.531000
     18 OAQ        -3.1840    2.7670   -0.5120 os        1 06X     -0.450900
     19 CAB        -4.5270    3.1790   -0.2570 c3        1 06X      0.126700
     20 CAT        -0.3520    2.2000   -0.5310 c2        1 06X      0.176800
     21 CAC        -0.6470    3.6030   -0.9590 c3        1 06X     -0.073900
     22 NAP         0.9450    1.7270   -0.7440 nh        1 06X     -0.609800
     23 CAW         1.3730    0.5700   -0.0940 c2        1 06X      0.166800
     24 CAO         2.8510    0.2580   -0.0750 c3        1 06X      0.157600
     25 OAR         3.6080    1.4560   -0.2460 os        1 06X     -0.453600
     26 CAN         4.9930    1.1850   -0.4680 c3        1 06X      0.129400
     27 CAM         5.7110    2.5390   -0.4450 c3        1 06X      0.159800
     28 NAD         5.7940    3.1160    0.8740 n3        1 06X     -0.915800
     29 H1         -3.8950   -3.5510   -0.8720 ha        1 06X      0.145000
     30 H2         -3.2280   -3.3650   -3.2640 ha        1 06X      0.134000
     31 H3         -1.5450   -1.6500   -3.9580 ha        1 06X      0.132000
     32 H4         -0.5430   -0.1350   -2.2580 ha        1 06X      0.138000
     33 H5          2.5980   -3.1370    2.4380 h1        1 06X      0.054200
     34 H6          1.3620   -4.0530    1.4530 h1        1 06X      0.054200
     35 H7          3.6780   -4.9810    1.0750 hc        1 06X      0.046033
     36 H8          3.0320   -4.2330   -0.4510 hc        1 06X      0.046033
     37 H9          4.2600   -3.3450    0.5380 hc        1 06X      0.046033
     38 H10        -5.2090    2.2950   -0.2780 h1        1 06X      0.049700
     39 H11        -4.5880    3.6830    0.7380 h1        1 06X      0.049700
     40 H12        -4.7500    3.8880   -1.0910 h1        1 06X      0.049700
     41 H13         0.2750    4.2030   -1.1550 hc        1 06X      0.066033
     42 H14        -1.2660    3.5750   -1.8910 hc        1 06X      0.066033
     43 H15        -1.2450    4.1170   -0.1640 hc        1 06X      0.066033
     44 H16         3.1270   -0.2100    0.9100 h1        1 06X      0.070700
     45 H17         3.0750   -0.4680   -0.9050 h1        1 06X      0.070700
     46 H18         5.3810    0.4950    0.3260 h1        1 06X      0.044200
     47 H19         5.1180    0.7070   -1.4760 h1        1 06X      0.044200
     48 H20         6.7630    2.3700   -0.8120 h1        1 06X      0.036200
     49 H21         5.1920    3.2140   -1.1890 h1        1 06X      0.036200
     50 H22         6.0980    4.0670    0.8190 hn        1 06X      0.356300
     51 H23         4.9070    3.0760    1.3370 hn        1 06X      0.356300
     52 H25        -1.4530   -0.2320    1.4240 hc        1 06X      0.115700
     53 H26         1.6490    2.3870   -0.9990 hn        1 06X      0.456800
@<TRIPOS>BOND
     1    1    2 1   
     2    2    3 ar  
     3    2    7 ar  
     4    3    4 ar  
     5    3   29 1   
     6    4    5 ar  
     7    4   30 1   
     8    5    6 ar  
     9    5   31 1   
    10    6    7 ar  
    11    6   32 1   
    12    7    8 1   
    13    8    9 1   
    14    8   15 1   
    15    8   52 1   
    16    9   10 1   
    17    9   23 2   
    18   10   11 2   
    19   10   12 1   
    20   12   13 1   
    21   13   14 1   
    22   13   33 1   
    23   13   34 1   
    24   14   35 1   
    25   14   36 1   
    26   14   37 1   
    27   15   16 1   
    28   15   20 2   
    29   16   17 2   
    30   16   18 1   
    31   18   19 1   
    32   19   38 1   
    33   19   39 1   
    34   19   40 1   
    35   20   21 1   
    36   20   22 1   
    37   21   41 1   
    38   21   42 1   
    39   21   43 1   
    40   22   23 1   
    41   22   53 1   
    42   23   24 1   
    43   24   25 1   
    44   24   44 1   
    45   24   45 1   
    46   25   26 1   
    47   26   27 1   
    48   26   46 1   
    49   26   47 1   
    50   27   28 1   
    51   27   48 1   
    52   27   49 1   
    53   28   50 1   
    54   28   51 1   
@<TRIPOS>SUBSTRUCTURE
     1 06X         1 TEMP              0 ****  ****    0 ROOT
