@<TRIPOS>MOLECULE
06X
   54    55     1     0     0
SMALL
bcc


@<TRIPOS>ATOM
      1 ClAG        0.9390    0.9160    0.0380 cl        1 06X     -0.035400
      2 CAZ         2.5690    0.5820   -0.2800 ca        1 06X      0.024400
      3 CAJ         3.4800    0.6950    0.7820 ca        1 06X     -0.118000
      4 CAH         4.8320    0.4380    0.5770 ca        1 06X     -0.117000
      5 CAI         5.2830    0.0580   -0.6880 ca        1 06X     -0.166000
      6 CAK         4.3770   -0.0690   -1.7380 ca        1 06X     -0.178000
      7 CBA         3.0110    0.1970   -1.5570 ca        1 06X     -0.096300
      8 CBB         2.0600    0.0480   -2.7190 c3        1 06X      0.090000
      9 CAY         2.1580    1.2530   -3.6120 ce        1 06X     -0.266400
     10 CAV         1.4140    2.4380   -3.1660 c         1 06X      0.652300
     11 OAF         0.2100    2.5830   -2.9940 o         1 06X     -0.458000
     12 OAS         2.2320    3.5200   -2.8970 os        1 06X     -0.538900
     13 CAL         1.5930    4.7070   -2.3850 c3        1 06X      0.131400
     14 CAA         2.6990    5.5940   -1.8700 c3        1 06X     -0.112100
     15 CAX         2.3410   -1.2120   -3.4900 ce        1 06X     -0.223400
     16 CAU         1.7980   -2.4250   -2.8640 c         1 06X      0.648300
     17 OAE         0.8790   -2.4810   -2.0420 o         1 06X     -0.519000
     18 OAQ         2.3920   -3.5990   -3.2410 os        1 06X     -0.445900
     19 CAB         1.8920   -4.7900   -2.6220 c3        1 06X      0.124700
     20 CAT         2.9950   -1.1980   -4.6890 c2        1 06X      0.175800
     21 CAC         3.3290   -2.4390   -5.4500 c3        1 06X     -0.079900
     22 NAP         3.3970    0.0250   -5.2520 nu        1 06X     -0.618800
     23 CAW         2.8200    1.2070   -4.8070 c2        1 06X      0.119800
     24 CAO         2.9890    2.4300   -5.6870 c3        1 06X      0.137600
     25 OAR         4.3670    2.7780   -5.7770 os        1 06X     -0.405600
     26 CAN         4.8080    3.8210   -4.9260 c3        1 06X      0.105400
     27 CAM         5.6760    3.2520   -3.7950 c3        1 06X      0.069800
     28 NAD         4.8810    2.6970   -2.6720 nz        1 06X     -0.848600
     29 H1          3.1180    0.9700    1.7870 ha        1 06X      0.169000
     30 H2          5.5390    0.5100    1.4190 ha        1 06X      0.158000
     31 H3          6.3440   -0.1940   -0.8420 ha        1 06X      0.147000
     32 H4          4.7220   -0.4470   -2.7150 ha        1 06X      0.146000
     33 H5          1.0260    5.1820   -3.2270 h1        1 06X      0.076700
     34 H6          0.8740    4.4190   -1.5720 h1        1 06X      0.076700
     35 H7          2.2540    6.5540   -1.5100 hc        1 06X      0.049367
     36 H8          3.2350    5.1100   -1.0190 hc        1 06X      0.049367
     37 H9          3.4360    5.8220   -2.6780 hc        1 06X      0.049367
     38 H10         2.5170   -5.5990   -3.0740 h1        1 06X      0.060367
     39 H11         0.8100   -4.9190   -2.8640 h1        1 06X      0.060367
     40 H12         2.0340   -4.7300   -1.5160 h1        1 06X      0.060367
     41 H13         4.0860   -3.0310   -4.8740 hc        1 06X      0.079033
     42 H14         2.4080   -3.0700   -5.5490 hc        1 06X      0.079033
     43 H15         3.7330   -2.2350   -6.4720 hc        1 06X      0.079033
     44 H16         2.3610    3.2770   -5.3030 h1        1 06X      0.096200
     45 H17         2.6920    2.2000   -6.7500 h1        1 06X      0.096200
     46 H18         5.4740    4.4580   -5.5760 h1        1 06X      0.095700
     47 H19         3.9600    4.4400   -4.5260 h1        1 06X      0.095700
     48 H20         6.3370    4.0700   -3.3910 hx        1 06X      0.113200
     49 H21         6.3240    2.4250   -4.2100 hx        1 06X      0.113200
     50 H22         4.3220    3.4430   -2.2300 hn        1 06X      0.468133
     51 H23         5.4830    2.2490   -1.9720 hn        1 06X      0.468133
     52 H25         0.9990   -0.0250   -2.3200 hc        1 06X      0.132700
     53 H26         3.7840    0.0140   -6.1720 hn        1 06X      0.461800
     54 HAD3        4.2100    1.9880   -3.0240 hn        1 06X      0.468133
@<TRIPOS>BOND
     1    1    2 1   
     2    2    3 ar  
     3    2    7 ar  
     4    3    4 ar  
     5    3   29 1   
     6    4    5 ar  
     7    4   30 1   
     8    5    6 ar  
     9    5   31 1   
    10    6    7 ar  
    11    6   32 1   
    12    7    8 1   
    13    8    9 1   
    14    8   15 1   
    15    8   52 1   
    16    9   10 1   
    17    9   23 2   
    18   10   11 2   
    19   10   12 1   
    20   12   13 1   
    21   13   14 1   
    22   13   33 1   
    23   13   34 1   
    24   14   35 1   
    25   14   36 1   
    26   14   37 1   
    27   15   16 1   
    28   15   20 2   
    29   16   17 2   
    30   16   18 1   
    31   18   19 1   
    32   19   38 1   
    33   19   39 1   
    34   19   40 1   
    35   20   21 1   
    36   20   22 1   
    37   21   41 1   
    38   21   42 1   
    39   21   43 1   
    40   22   23 1   
    41   22   53 1   
    42   23   24 1   
    43   24   25 1   
    44   24   44 1   
    45   24   45 1   
    46   25   26 1   
    47   26   27 1   
    48   26   46 1   
    49   26   47 1   
    50   27   28 1   
    51   27   48 1   
    52   27   49 1   
    53   28   50 1   
    54   28   51 1   
    55   28   54 1   
@<TRIPOS>SUBSTRUCTURE
     1 06X         1 TEMP              0 ****  ****    0 ROOT
