@<TRIPOS>MOLECULE
06Y
   18    14     1     0     0
SMALL
bcc


@<TRIPOS>ATOM
      1 C1          2.1050    0.8330   -2.6870 c1        1 06Y      0.345000
      2 O1          3.2210    1.4010   -2.8170 o         1 06Y     -0.556000
      3 C2          1.4230    0.8040   -1.3370 c2        1 06Y     -0.110000
      4 O2          0.5750   -0.3180   -1.2630 os        1 06Y     -0.171000
      5 C3         -0.1880   -0.3770   -0.0850 c1        1 06Y      0.117000
      6 C4          0.2700   -1.1070    1.0010 c1        1 06Y     -0.179000
      7 C5         -0.5030   -1.2010    2.1480 c1        1 06Y     -0.157250
      8 C6         -1.7340   -0.5670    2.2080 c1        1 06Y     -0.157250
      9 C7         -2.1920    0.1630    1.1220 c1        1 06Y     -0.157250
     10 C8         -1.4190    0.2580   -0.0240 c1        1 06Y     -0.157250
     11 H30         2.0990    0.7500   -0.6310 h4        1 06Y      0.060000
     12 H31         0.8950    1.6210   -1.2210 h4        1 06Y      0.060000
     13 H32         1.1370   -1.5540    0.9580 ha        1 06Y      0.144000
     14 H33        -0.1920   -1.7350    2.9030 ha        1 06Y      0.118750
     15 H34        -2.2780   -0.6330    3.0160 ha        1 06Y      0.118750
     16 H35        -3.0580    0.6100    1.1650 ha        1 06Y      0.118750
     17 H36        -1.7310    0.7900   -0.7810 ha        1 06Y      0.118750
     18 OXT         1.5700    0.2620   -3.6740 o         1 06Y     -0.556000
@<TRIPOS>BOND
     1    1    2 1   
     2    1   18 1   
     3    3    4 1   
     4    3   11 1   
     5    3   12 1   
     6    4    5 1   
     7    5    6 1   
     8    6   13 1   
     9    7    8 1   
    10    7   14 1   
    11    8   15 1   
    12    9   10 1   
    13    9   16 1   
    14   10   17 1   
@<TRIPOS>SUBSTRUCTURE
     1 06Y         1 TEMP              0 ****  ****    0 ROOT
