@<TRIPOS>MOLECULE
06Y
   18    18     1     0     0
SMALL
bcc


@<TRIPOS>ATOM
      1 C1          0.0350   -0.7720    0.5610 c         1 06Y      0.896600
      2 O1         -0.5650   -1.8630    0.7870 o         1 06Y     -0.829300
      3 C2         -0.6570    0.5260    1.0380 c3        1 06Y      0.002400
      4 O2         -0.0840    1.1010    2.2220 os        1 06Y     -0.327900
      5 C3         -0.4540    0.5640    3.4290 ca        1 06Y      0.154100
      6 C4         -0.1400    1.3550    4.5530 ca        1 06Y     -0.190500
      7 C5         -0.4730    0.8990    5.8240 ca        1 06Y     -0.113000
      8 C6         -1.1150   -0.3270    5.9920 ca        1 06Y     -0.198000
      9 C7         -1.4130   -1.1100    4.8750 ca        1 06Y     -0.113000
     10 C8         -1.0870   -0.6790    3.5930 ca        1 06Y     -0.190500
     11 H30        -1.7520    0.3550    1.1900 h1        1 06Y      0.034700
     12 H31        -0.4860    1.3390    0.2820 h1        1 06Y      0.034700
     13 H32        -1.2820   -1.3180    2.7080 ha        1 06Y      0.169000
     14 H33         0.3710    2.3160    4.4090 ha        1 06Y      0.169000
     15 H34        -0.2270    1.5140    6.7020 ha        1 06Y      0.111500
     16 H35        -1.3780   -0.6780    6.9980 ha        1 06Y      0.107000
     17 H36        -1.9040   -2.0850    5.0060 ha        1 06Y      0.111500
     18 OXT         1.1150   -0.6670   -0.0770 o         1 06Y     -0.829300
@<TRIPOS>BOND
     1    1    2 1   
     2    1    3 1   
     3    1   18 1   
     4    3    4 1   
     5    3   11 1   
     6    3   12 1   
     7    4    5 1   
     8    5    6 ar  
     9    5   10 ar  
    10    6    7 ar  
    11    6   14 1   
    12    7    8 ar  
    13    7   15 1   
    14    8    9 ar  
    15    8   16 1   
    16    9   10 ar  
    17    9   17 1   
    18   10   13 1   
@<TRIPOS>SUBSTRUCTURE
     1 06Y         1 TEMP              0 ****  ****    0 ROOT
