@<TRIPOS>MOLECULE
06Y
   18    18     1     0     0
SMALL
bcc


@<TRIPOS>ATOM
      1 C1          2.8380    0.0840    0.0060 c         1 06Y      0.925600
      2 O1          3.3610    0.4310    1.0970 o         1 06Y     -0.821300
      3 C2          1.4170   -0.5510    0.0730 c3        1 06Y     -0.009600
      4 O2          0.4700    0.5140   -0.0760 os        1 06Y     -0.287900
      5 C3         -0.8500    0.1610   -0.0440 ca        1 06Y      0.162100
      6 C4         -1.7630    1.2300   -0.1930 ca        1 06Y     -0.200500
      7 C5         -3.1260    0.9750   -0.1740 ca        1 06Y     -0.102000
      8 C6         -3.6050   -0.3280   -0.0110 ca        1 06Y     -0.203000
      9 C7         -2.7040   -1.3800    0.1350 ca        1 06Y     -0.102000
     10 C8         -1.3300   -1.1490    0.1200 ca        1 06Y     -0.200500
     11 H30         1.2830   -1.2860   -0.7610 h1        1 06Y      0.020700
     12 H31         1.2630   -1.0490    1.0630 h1        1 06Y      0.020700
     13 H32        -1.3700    2.2480   -0.3200 ha        1 06Y      0.142000
     14 H33        -3.8360    1.8060   -0.2900 ha        1 06Y      0.112000
     15 H34        -4.6860   -0.5190    0.0020 ha        1 06Y      0.111000
     16 H35        -3.0770   -2.4060    0.2640 ha        1 06Y      0.112000
     17 H36        -0.6300   -1.9870    0.2370 ha        1 06Y      0.142000
     18 OXT         3.3850    0.1430   -1.1260 o         1 06Y     -0.821300
@<TRIPOS>BOND
     1    1    2 1   
     2    1    3 1   
     3    1   18 1   
     4    3    4 1   
     5    3   11 1   
     6    3   12 1   
     7    4    5 1   
     8    5    6 ar  
     9    5   10 ar  
    10    6    7 ar  
    11    6   13 1   
    12    7    8 ar  
    13    7   14 1   
    14    8    9 ar  
    15    8   15 1   
    16    9   10 ar  
    17    9   16 1   
    18   10   17 1   
@<TRIPOS>SUBSTRUCTURE
     1 06Y         1 TEMP              0 ****  ****    0 ROOT
