@<TRIPOS>MOLECULE
06Y
   18    18     1     0     0
SMALL
bcc


@<TRIPOS>ATOM
      1 C1         -0.2260   -0.8000    0.5180 c         1 06Y      0.896600
      2 O1         -0.9610   -1.8010    0.7620 o         1 06Y     -0.829300
      3 C2         -0.7030    0.5720    1.0500 c3        1 06Y      0.002400
      4 O2          0.0050    1.0360    2.2090 os        1 06Y     -0.327900
      5 C3         -0.3750    0.5300    3.4270 ca        1 06Y      0.154100
      6 C4          0.1030    1.2460    4.5430 ca        1 06Y     -0.190500
      7 C5         -0.2260    0.8150    5.8240 ca        1 06Y     -0.113000
      8 C6         -1.0250   -0.3120    6.0090 ca        1 06Y     -0.198000
      9 C7         -1.4860   -1.0220    4.8990 ca        1 06Y     -0.113000
     10 C8         -1.1690   -0.6150    3.6070 ca        1 06Y     -0.190500
     11 H30        -1.8020    0.5530    1.2580 h1        1 06Y      0.034700
     12 H31        -0.4590    1.3680    0.2970 h1        1 06Y      0.034700
     13 H32        -1.4960   -1.2020    2.7250 ha        1 06Y      0.169000
     14 H33         0.7370    2.1290    4.3850 ha        1 06Y      0.169000
     15 H34         0.1490    1.3710    6.6950 ha        1 06Y      0.111500
     16 H35        -1.2830   -0.6440    7.0220 ha        1 06Y      0.107000
     17 H36        -2.1030   -1.9220    5.0430 ha        1 06Y      0.111500
     18 OXT         0.8230   -0.8330   -0.1770 o         1 06Y     -0.829300
@<TRIPOS>BOND
     1    1    2 1   
     2    1    3 1   
     3    1   18 1   
     4    3    4 1   
     5    3   11 1   
     6    3   12 1   
     7    4    5 1   
     8    5    6 ar  
     9    5   10 ar  
    10    6    7 ar  
    11    6   14 1   
    12    7    8 ar  
    13    7   15 1   
    14    8    9 ar  
    15    8   16 1   
    16    9   10 ar  
    17    9   17 1   
    18   10   13 1   
@<TRIPOS>SUBSTRUCTURE
     1 06Y         1 TEMP              0 ****  ****    0 ROOT
