@<TRIPOS>MOLECULE
06Y
   18    18     1     0     0
SMALL
bcc


@<TRIPOS>ATOM
      1 C1         -0.1920   -0.7310    0.5030 c         1 06Y      0.896600
      2 O1         -0.9230   -1.7420    0.7170 o         1 06Y     -0.829300
      3 C2         -0.6830    0.6250    1.0630 c3        1 06Y      0.002400
      4 O2          0.0100    1.0650    2.2400 os        1 06Y     -0.327900
      5 C3         -0.3790    0.5300    3.4410 ca        1 06Y      0.154100
      6 C4          0.0840    1.2220    4.5790 ca        1 06Y     -0.190500
      7 C5         -0.2560    0.7590    5.8460 ca        1 06Y     -0.113000
      8 C6         -1.0500   -0.3770    5.9960 ca        1 06Y     -0.198000
      9 C7         -1.4960   -1.0630    4.8650 ca        1 06Y     -0.113000
     10 C8         -1.1670   -0.6240    3.5870 ca        1 06Y     -0.190500
     11 H30        -1.7840    0.5950    1.2590 h1        1 06Y      0.034700
     12 H31        -0.4360    1.4400    0.3310 h1        1 06Y      0.034700
     13 H32        -1.4820   -1.1920    2.6880 ha        1 06Y      0.169000
     14 H33         0.7130    2.1120    4.4480 ha        1 06Y      0.169000
     15 H34         0.1060    1.2960    6.7340 ha        1 06Y      0.111500
     16 H35        -1.3170   -0.7340    6.9990 ha        1 06Y      0.107000
     17 H36        -2.1080   -1.9700    4.9820 ha        1 06Y      0.111500
     18 OXT         0.8630   -0.7410   -0.1830 o         1 06Y     -0.829300
@<TRIPOS>BOND
     1    1    2 1   
     2    1    3 1   
     3    1   18 1   
     4    3    4 1   
     5    3   11 1   
     6    3   12 1   
     7    4    5 1   
     8    5    6 ar  
     9    5   10 ar  
    10    6    7 ar  
    11    6   14 1   
    12    7    8 ar  
    13    7   15 1   
    14    8    9 ar  
    15    8   16 1   
    16    9   10 ar  
    17    9   17 1   
    18   10   13 1   
@<TRIPOS>SUBSTRUCTURE
     1 06Y         1 TEMP              0 ****  ****    0 ROOT
