@<TRIPOS>MOLECULE
06Z
   34    36     1     0     0
SMALL
bcc


@<TRIPOS>ATOM
      1 F           0.1690   -0.5540    0.0760 f         1 06Z     -0.153000
      2 N1          6.1520   -1.3930   -0.8080 n2        1 06Z     -0.236000
      3 C2          7.4760   -1.8250   -1.0150 c2        1 06Z      0.214000
      4 N3          7.9210   -2.2660   -2.2270 nv        1 06Z     -0.340000
      5 C4          8.2860   -1.8090    0.1530 c2        1 06Z     -0.604000
      6 C5          9.6540   -2.2120    0.2780 c2        1 06Z      0.354000
      7 C6         10.1330   -2.0820    1.6730 c2        1 06Z     -0.058000
      8 C7         11.4820   -2.5290    2.1150 c3        1 06Z     -0.128000
      9 C8         12.0110   -1.6200    3.1820 c2        1 06Z     -0.107000
     10 C9         11.2290   -0.7870    3.9100 c2        1 06Z     -0.176000
     11 C10         9.7830   -0.9400    3.7910 c2        1 06Z      0.002000
     12 C11         9.3930   -1.4510    2.6090 c1        1 06Z     -0.257000
     13 O12        10.3810   -2.6240   -0.6450 o         1 06Z     -0.359000
     14 S13         7.4240   -1.2310    1.4910 ss        1 06Z      0.571000
     15 C14         6.0000   -1.0540    0.4960 c2        1 06Z     -0.128000
     16 C16         3.7410   -0.1760    0.2240 c2        1 06Z      0.009000
     17 C17         2.4530   -0.2130    0.6800 c2        1 06Z     -0.272000
     18 C18         1.3090    0.1840   -0.2110 c3        1 06Z      0.117000
     19 C19         1.6630    0.1040   -1.6750 c2        1 06Z     -0.149000
     20 C20         2.9520    0.1800   -2.0610 c2        1 06Z     -0.199000
     21 C21         3.9750    0.4180   -1.0880 c1        1 06Z      0.075000
     22 HN3         7.3590   -2.1650   -3.0340 hn        1 06Z      0.247500
     23 HN3A        8.8900   -2.4690   -2.3150 hn        1 06Z      0.247500
     24 H7         12.1490   -2.4900    1.2060 hc        1 06Z      0.143000
     25 H8         11.5020   -3.5890    2.4910 hc        1 06Z      0.143000
     26 H9         13.0940   -1.6920    3.3640 ha        1 06Z      0.141000
     27 H10        11.6350   -0.0910    4.6550 ha        1 06Z      0.145000
     28 H11         9.1300   -0.7090    4.6390 ha        1 06Z      0.156000
     29 HN15        4.6230   -0.8100    1.9600 hn        1 06Z      0.230000
     30 H17         2.1750   -0.4780    1.7080 ha        1 06Z      0.150000
     31 H19         1.0640    1.2740    0.0130 h1        1 06Z      0.109000
     32 H20         0.8170    0.0440   -2.3720 ha        1 06Z      0.152000
     33 H21         3.2600    0.1540   -3.1190 ha        1 06Z      0.167000
     34 N15         4.8380   -0.5130    1.0310 nu        1 06Z     -0.205000
@<TRIPOS>BOND
     1    1   18 1   
     2    2    3 1   
     3    2   15 1   
     4    3    4 1   
     5    3    5 1   
     6    4   22 1   
     7    4   23 1   
     8    5    6 1   
     9    5   14 1   
    10    6    7 1   
    11    6   13 1   
    12    7    8 1   
    13    7   12 1   
    14    8    9 1   
    15    8   24 1   
    16    8   25 1   
    17    9   10 1   
    18    9   26 1   
    19   10   11 1   
    20   10   27 1   
    21   11   12 1   
    22   11   28 1   
    23   14   15 1   
    24   15   34 1   
    25   16   17 1   
    26   16   21 1   
    27   16   34 1   
    28   17   18 1   
    29   17   30 1   
    30   18   19 1   
    31   18   31 1   
    32   19   20 1   
    33   19   32 1   
    34   20   21 1   
    35   20   33 1   
    36   29   34 1   
@<TRIPOS>SUBSTRUCTURE
     1 06Z         1 TEMP              0 ****  ****    0 ROOT
