@<TRIPOS>MOLECULE
06Z
   34    30     1     0     0
SMALL
bcc


@<TRIPOS>ATOM
      1 F          -5.4850    0.8360    1.5240 f         1 06Z     -0.102000
      2 N1         -0.4560    0.1160   -2.0160 n2        1 06Z     -0.231000
      3 C2          0.9670   -0.5160   -1.8260 c1        1 06Z      0.200000
      4 N3          1.5240   -1.5600   -2.6100 n2        1 06Z     -0.342000
      5 C4          1.6140    0.1460   -0.7190 c1        1 06Z     -0.617000
      6 C5          3.0380   -0.0780   -0.2570 c1        1 06Z      0.363000
      7 C6          3.3050   -0.8170    1.0360 c2        1 06Z     -0.135000
      8 C7          4.6080   -1.0880    1.4220 c1        1 06Z     -0.081000
      9 C8          4.8580   -1.7010    2.6400 c1        1 06Z     -0.124500
     10 C9          3.8040   -2.0430    3.4720 c1        1 06Z     -0.124500
     11 C10         2.5000   -1.7720    3.0860 c1        1 06Z     -0.134000
     12 C11         2.2510   -1.1590    1.8690 c2        1 06Z     -0.111000
     13 O12         3.9650    0.2770   -0.9560 o         1 06Z     -0.347000
     14 S13         0.6510    1.1980   -0.1770 ss        1 06Z      0.543000
     15 C14        -0.6330    1.1340   -1.0300 c1        1 06Z     -0.118000
     16 N15        -1.6620    2.1120   -1.0600 n2        1 06Z     -0.215000
     17 C16        -3.0210    1.7130   -0.9830 c2        1 06Z      0.087000
     18 C17        -3.5860    1.4100    0.2460 c2        1 06Z     -0.221000
     19 C18        -4.9320    1.0930    0.3320 c2        1 06Z      0.127000
     20 C19        -5.7140    1.0780   -0.8120 c2        1 06Z     -0.192000
     21 C20        -5.1500    1.3800   -2.0420 c1        1 06Z     -0.073000
     22 C21        -3.8040    1.6980   -2.1270 c1        1 06Z     -0.188000
     23 HN3         2.4140   -1.5490   -2.8190 hn        1 06Z      0.254500
     24 HN3A        0.9960   -2.2490   -2.8950 hn        1 06Z      0.254500
     25 H7          5.3510   -0.8470    0.8350 ha        1 06Z      0.150000
     26 H8          5.7760   -1.8920    2.9110 ha        1 06Z      0.135000
     27 H9          3.9800   -2.4750    4.3290 ha        1 06Z      0.135000
     28 H10         1.7580   -2.0130    3.6730 ha        1 06Z      0.136000
     29 H11         1.3330   -0.9680    1.5980 ha        1 06Z      0.141000
     30 HN15       -1.4480    2.9970   -1.0980 hn        1 06Z      0.233000
     31 H17        -3.0300    1.4010    1.0490 ha        1 06Z      0.159000
     32 H19        -6.6630    0.8540   -0.7520 ha        1 06Z      0.154000
     33 H20        -5.7020    1.3700   -2.8480 ha        1 06Z      0.142000
     34 H21        -3.4070    1.9110   -2.9930 ha        1 06Z      0.142000
@<TRIPOS>BOND
     1    1   19 1   
     2    2    3 1   
     3    2   15 1   
     4    3    5 1   
     5    4   23 1   
     6    4   24 1   
     7    5   14 1   
     8    6    7 1   
     9    6   13 1   
    10    7    8 1   
    11    7   12 1   
    12    8   25 1   
    13    9   10 1   
    14    9   26 1   
    15   10   27 1   
    16   11   12 1   
    17   11   28 1   
    18   12   29 1   
    19   14   15 1   
    20   16   17 1   
    21   16   30 1   
    22   17   18 1   
    23   17   22 1   
    24   18   19 1   
    25   18   31 1   
    26   19   20 1   
    27   20   21 1   
    28   20   32 1   
    29   21   33 1   
    30   22   34 1   
@<TRIPOS>SUBSTRUCTURE
     1 06Z         1 TEMP              0 ****  ****    0 ROOT
