@<TRIPOS>MOLECULE
06Z
   34    36     1     0     0
SMALL
bcc


@<TRIPOS>ATOM
      1 F           0.3970    0.9110    0.2350 f         1 06Z     -0.159000
      2 N1          6.2280   -1.2920   -0.8700 n2        1 06Z     -0.240000
      3 C2          7.5400   -1.7750   -1.0420 c2        1 06Z      0.215000
      4 N3          7.9490   -2.3790   -2.1960 nh        1 06Z     -0.333000
      5 C4          8.3760   -1.6220    0.0960 c2        1 06Z     -0.604000
      6 C5          9.7640   -1.9500    0.2150 c2        1 06Z      0.354000
      7 C6         10.3030   -1.5660    1.5390 c2        1 06Z     -0.057000
      8 C7         11.7410   -1.7000    1.9030 c3        1 06Z     -0.129000
      9 C8         11.8840   -2.0430    3.3540 c2        1 06Z     -0.105000
     10 C9         10.9020   -1.8530    4.2680 c2        1 06Z     -0.177000
     11 C10         9.7330   -1.0860    3.8530 c2        1 06Z      0.004000
     12 C11         9.4880   -1.1510    2.5310 c1        1 06Z     -0.258000
     13 O12        10.4670   -2.4790   -0.6660 o         1 06Z     -0.360000
     14 S13         7.5390   -0.9090    1.3850 ss        1 06Z      0.549000
     15 C14         6.1090   -0.7870    0.3820 c2        1 06Z     -0.107000
     16 C16         3.7950   -0.0510    0.1070 c2        1 06Z      0.031000
     17 C17         2.5440   -0.0560    0.6690 c2        1 06Z     -0.272000
     18 C18         1.2980   -0.0680   -0.1660 c3        1 06Z      0.116000
     19 C19         1.5560   -0.0170   -1.6480 c2        1 06Z     -0.149000
     20 C20         2.8100    0.0440   -2.1420 c2        1 06Z     -0.182000
     21 C21         3.9030    0.3500   -1.2810 c1        1 06Z      0.056000
     22 HN3         7.3950   -2.3100   -3.0130 hn        1 06Z      0.244000
     23 HN3A        8.9180   -2.5920   -2.2770 hn        1 06Z      0.244000
     24 H7         12.1590   -2.5310    1.2640 hc        1 06Z      0.143500
     25 H8         12.3470   -0.7790    1.6810 hc        1 06Z      0.143500
     26 H9         12.8680   -2.4400    3.6470 ha        1 06Z      0.140000
     27 H10        11.0020   -2.1520    5.3190 ha        1 06Z      0.145000
     28 H11         9.1840   -0.4760    4.5790 ha        1 06Z      0.155000
     29 HN15        4.8540   -0.1900    1.8650 hn        1 06Z      0.237000
     30 H17         2.3730   -0.0430    1.7540 ha        1 06Z      0.144000
     31 H19         0.8030   -1.0780    0.0290 h1        1 06Z      0.121000
     32 H20         0.6590   -0.0180   -2.2850 ha        1 06Z      0.147000
     33 H21         3.0170   -0.0060   -3.2240 ha        1 06Z      0.165000
     34 N15         4.9550   -0.2040    0.8750 nh        1 06Z     -0.221000
@<TRIPOS>BOND
     1    1   18 1   
     2    2    3 1   
     3    2   15 1   
     4    3    4 1   
     5    3    5 1   
     6    4   22 1   
     7    4   23 1   
     8    5    6 1   
     9    5   14 1   
    10    6    7 1   
    11    6   13 1   
    12    7    8 1   
    13    7   12 1   
    14    8    9 1   
    15    8   24 1   
    16    8   25 1   
    17    9   10 1   
    18    9   26 1   
    19   10   11 1   
    20   10   27 1   
    21   11   12 1   
    22   11   28 1   
    23   14   15 1   
    24   15   34 1   
    25   16   17 1   
    26   16   21 1   
    27   16   34 1   
    28   17   18 1   
    29   17   30 1   
    30   18   19 1   
    31   18   31 1   
    32   19   20 1   
    33   19   32 1   
    34   20   21 1   
    35   20   33 1   
    36   29   34 1   
@<TRIPOS>SUBSTRUCTURE
     1 06Z         1 TEMP              0 ****  ****    0 ROOT
