@<TRIPOS>MOLECULE
06Z
   34    36     1     0     0
SMALL
bcc


@<TRIPOS>ATOM
      1 F           6.3470    1.7600   -0.7410 f         1 06Z     -0.139900
      2 N1          0.8210   -1.3440   -0.2240 nc        1 06Z     -0.756000
      3 C2         -0.4760   -1.8550   -0.4530 cc        1 06Z      0.729200
      4 N3         -0.6690   -3.1600   -0.7870 nh        1 06Z     -0.943500
      5 C4         -1.5230   -0.9010   -0.3070 cd        1 06Z     -0.420000
      6 C5         -2.9290   -1.1750   -0.4540 c         1 06Z      0.643300
      7 C6         -3.8650   -0.0460   -0.2160 ca        1 06Z     -0.152600
      8 C7         -5.0390   -0.2870    0.5100 ca        1 06Z     -0.095500
      9 C8         -5.9340    0.7530    0.7550 ca        1 06Z     -0.136500
     10 C9         -5.6710    2.0330    0.2650 ca        1 06Z     -0.112000
     11 C10        -4.5120    2.2710   -0.4730 ca        1 06Z     -0.136500
     12 C11        -3.6090    1.2360   -0.7140 ca        1 06Z     -0.095500
     13 O12        -3.3720   -2.3050   -0.7370 o         1 06Z     -0.590100
     14 S13        -0.8860    0.6070    0.1150 ss        1 06Z     -0.122300
     15 C14         0.7320   -0.0390    0.1000 cd        1 06Z      0.688300
     16 C16         3.1420    0.3820    0.3860 ca        1 06Z      0.155600
     17 C17         4.0850    1.2590   -0.1890 ca        1 06Z     -0.212000
     18 C18         5.4450    0.9100   -0.1930 ca        1 06Z      0.144900
     19 C19         5.8770   -0.3090    0.3580 ca        1 06Z     -0.177000
     20 C20         4.9340   -1.1650    0.9180 ca        1 06Z     -0.091000
     21 C21         3.5810   -0.8370    0.9440 ca        1 06Z     -0.130000
     22 HN3         0.0970   -3.7780   -0.8830 hn        1 06Z      0.460300
     23 HN3A       -1.5980   -3.4760   -0.9480 hn        1 06Z      0.460300
     24 H7         -5.2470   -1.3040    0.8750 ha        1 06Z      0.146000
     25 H8         -6.8520    0.5610    1.3310 ha        1 06Z      0.135000
     26 H9         -6.3800    2.8520    0.4570 ha        1 06Z      0.134000
     27 H10        -4.3100    3.2760   -0.8710 ha        1 06Z      0.135000
     28 H11        -2.7060    1.4280   -1.3160 ha        1 06Z      0.146000
     29 HN15        1.6340    1.7520    0.2570 hn        1 06Z      0.433800
     30 H17         3.7820    2.2190   -0.6330 ha        1 06Z      0.147000
     31 H19         6.9440   -0.5700    0.3410 ha        1 06Z      0.152000
     32 H20         5.2630   -2.1220    1.3530 ha        1 06Z      0.142000
     33 H21         2.8650   -1.5350    1.4040 ha        1 06Z      0.161000
     34 N15         1.7880    0.7860    0.4660 nh        1 06Z     -0.700300
@<TRIPOS>BOND
     1    1   18 1   
     2    2    3 1   
     3    2   15 2   
     4    3    4 1   
     5    3    5 2   
     6    4   22 1   
     7    4   23 1   
     8    5    6 1   
     9    5   14 1   
    10    6    7 1   
    11    6   13 2   
    12    7    8 ar  
    13    7   12 ar  
    14    8    9 ar  
    15    8   24 1   
    16    9   10 ar  
    17    9   25 1   
    18   10   11 ar  
    19   10   26 1   
    20   11   12 ar  
    21   11   27 1   
    22   12   28 1   
    23   14   15 1   
    24   15   34 1   
    25   16   17 ar  
    26   16   21 ar  
    27   16   34 1   
    28   17   18 ar  
    29   17   30 1   
    30   18   19 ar  
    31   19   20 ar  
    32   19   31 1   
    33   20   21 ar  
    34   20   32 1   
    35   21   33 1   
    36   29   34 1   
@<TRIPOS>SUBSTRUCTURE
     1 06Z         1 TEMP              0 ****  ****    0 ROOT
