@<TRIPOS>MOLECULE
06Z
   36    39     1     0     0
SMALL
bcc


@<TRIPOS>ATOM
      1 F           2.6500    2.1040    0.2060 f         1 06Z     -0.199300
      2 N1          5.5820   -4.0850   -0.0280 n1        1 06Z     -0.967500
      3 C2          7.0110   -3.9740   -0.0440 ce        1 06Z      0.676700
      4 N3          7.7480   -5.1160   -0.6170 n4        1 06Z     -0.731400
      5 C4          7.6140   -2.8320    0.3810 cf        1 06Z     -0.189500
      6 C5          9.0350   -2.5090    0.4050 cf        1 06Z      0.588500
      7 C6          9.2150   -1.1920    1.0870 ce        1 06Z      0.026800
      8 C7         10.5310   -0.5990    1.3180 c3        1 06Z     -0.125000
      9 C8         10.5020    0.6830    2.0260 c2        1 06Z      0.088800
     10 C9          9.3150    1.2600    2.4320 cf        1 06Z     -0.209000
     11 C10         8.0860    0.6340    2.1800 cf        1 06Z      0.178000
     12 C11         8.0390   -0.6040    1.4940 ce        1 06Z     -0.100300
     13 O12         9.9480   -3.2110   -0.0380 o         1 06Z     -0.513300
     14 S13         6.5850   -1.5970    1.2260 sx        1 06Z      0.704600
     15 C14         5.1400   -3.0600    0.6520 c1        1 06Z      0.063600
     16 C16         4.1470   -1.0200    0.3270 ce        1 06Z      0.086000
     17 C17         3.1640   -0.2010   -0.0930 c2        1 06Z     -0.147200
     18 C18         3.4420    1.2210   -0.5110 c3        1 06Z      0.253000
     19 C19         4.8990    1.5650   -0.4050 c2        1 06Z     -0.171200
     20 C20         5.8300    0.7090    0.0390 ce        1 06Z     -0.096000
     21 C21         5.5450   -0.6220    0.5270 ce        1 06Z     -0.690000
     22 HN3         7.5790   -5.9590   -0.0500 hn        1 06Z      0.487800
     23 HN3A        8.7600   -4.9030   -0.6300 hn        1 06Z      0.487800
     24 H7         11.0800   -0.4750    0.3210 hc        1 06Z      0.200200
     25 H8         11.2030   -1.3340    1.8790 hc        1 06Z      0.200200
     26 H9         11.4740    1.1790    2.2280 ha        1 06Z      0.204000
     27 H10         9.3270    2.2310    2.9690 ha        1 06Z      0.210000
     28 H11         7.1420    1.1100    2.5180 ha        1 06Z      0.203000
     29 HN15        3.4230   -2.5140    1.5900 hn        1 06Z      0.462800
     30 H17         2.1020   -0.4960   -0.1580 ha        1 06Z      0.175000
     31 H19         3.1440    1.3060   -1.6070 h1        1 06Z      0.101700
     32 H20         5.1540    2.5870   -0.7300 ha        1 06Z      0.172000
     33 H21         6.8900    1.0180    0.0240 ha        1 06Z      0.117000
     34 H33         7.4230   -5.2990   -1.5780 hn        1 06Z      0.487800
     35 H152        3.1570   -2.8260   -0.0350 hn        1 06Z      0.462800
     36 N15         3.8290   -2.4480    0.6460 n4        1 06Z     -0.495400
@<TRIPOS>BOND
     1    1   18 1   
     2    2    3 1   
     3    2   15 3   
     4    3    4 1   
     5    3    5 2   
     6    4   22 1   
     7    4   23 1   
     8    4   34 1   
     9    5    6 1   
    10    5   14 1   
    11    6    7 2   
    12    6   13 1   
    13    7    8 1   
    14    7   12 1   
    15    8    9 1   
    16    8   24 1   
    17    8   25 1   
    18    9   10 2   
    19    9   26 1   
    20   10   11 1   
    21   10   27 1   
    22   11   12 2   
    23   11   28 1   
    24   12   14 1   
    25   14   21 2   
    26   15   36 1   
    27   16   17 2   
    28   16   21 1   
    29   16   36 1   
    30   17   18 1   
    31   17   30 1   
    32   18   19 1   
    33   18   31 1   
    34   19   20 2   
    35   19   32 1   
    36   20   21 1   
    37   20   33 1   
    38   29   36 1   
    39   35   36 1   
@<TRIPOS>SUBSTRUCTURE
     1 06Z         1 TEMP              0 ****  ****    0 ROOT
