@<TRIPOS>MOLECULE
070
   43    45     1     0     0
SMALL
bcc


@<TRIPOS>ATOM
      1 C27        -0.1470    0.0300    0.5780 ca        1 070     -0.125000
      2 C28         1.1050   -0.5680    0.7090 ca        1 070     -0.121000
      3 C29         1.3530   -1.4530    1.7580 ca        1 070     -0.113000
      4 C30         0.3460   -1.7360    2.6820 ca        1 070     -0.121000
      5 C31        -0.9060   -1.1390    2.5540 ca        1 070     -0.125000
      6 C26        -1.1610   -0.2540    1.4990 ca        1 070     -0.108300
      7 C25        -2.4930    0.4000    1.3790 c3        1 070     -0.032100
      8 C24        -3.5430   -0.5920    0.9710 cx        1 070      0.124100
      9 O5         -4.8490   -0.0430    0.6800 os        1 070     -0.454600
     10 C23        -4.1030   -0.6090   -0.4120 cx        1 070     -0.001900
     11 C22        -4.6650   -1.8720   -1.0270 c3        1 070      0.131100
     12 O4         -5.0560   -1.6320   -2.3720 oh        1 070     -0.618800
     13 C14        -5.9290   -2.3870   -0.2960 c3        1 070      0.135500
     14 C15        -6.3140   -3.7780   -0.8180 c3        1 070     -0.055100
     15 C16        -7.5810   -4.2620   -0.2080 ca        1 070     -0.156300
     16 C17        -7.5670   -4.9140    1.0300 ca        1 070     -0.134500
     17 C18        -8.7550   -5.3900    1.5850 ca        1 070     -0.113500
     18 C19        -9.9620   -5.2200    0.9060 ca        1 070     -0.100000
     19 C20        -9.9800   -4.5770   -0.3330 ca        1 070     -0.113500
     20 C21        -8.7950   -4.0990   -0.8890 ca        1 070     -0.134500
     21 N2         -7.0660   -1.4170   -0.4450 n4        1 070     -0.835600
     22 H1         -0.3320    0.7380   -0.2440 ha        1 070      0.130000
     23 H2          1.9020   -0.3350   -0.0150 ha        1 070      0.143500
     24 H3          2.3440   -1.9210    1.8630 ha        1 070      0.146000
     25 H4          0.5430   -2.4250    3.5170 ha        1 070      0.143500
     26 H5         -1.6930   -1.3500    3.2940 ha        1 070      0.130000
     27 H6         -2.4540    1.2460    0.6400 hc        1 070      0.078200
     28 H7         -2.7910    0.8410    2.3700 hc        1 070      0.078200
     29 H8         -3.5750   -1.5150    1.5870 h1        1 070      0.097700
     30 H9         -3.7600    0.1380   -1.1600 h1        1 070      0.124700
     31 H10        -3.8860   -2.6870   -0.9810 h1        1 070      0.097700
     32 H11        -4.2520   -1.5180   -2.8970 ho        1 070      0.450000
     33 H12        -5.6980   -2.4440    0.8110 hx        1 070      0.114700
     34 H13        -6.3940   -3.7480   -1.9390 hc        1 070      0.095200
     35 H14        -5.4700   -4.4750   -0.5610 hc        1 070      0.095200
     36 H15        -6.6150   -5.0680    1.5600 ha        1 070      0.136000
     37 H16        -8.7360   -5.9100    2.5560 ha        1 070      0.155000
     38 H17       -10.8980   -5.6050    1.3410 ha        1 070      0.158000
     39 H18       -10.9300   -4.4600   -0.8780 ha        1 070      0.155000
     40 H19        -8.8110   -3.6330   -1.8870 ha        1 070      0.136000
     41 H20        -7.9360   -1.8600   -0.1260 hn        1 070      0.469467
     42 H21        -7.1580   -1.1590   -1.4350 hn        1 070      0.469467
     43 H23        -6.8700   -0.5730    0.1080 hn        1 070      0.469467
@<TRIPOS>BOND
     1    1    2 ar  
     2    1    6 ar  
     3    1   22 1   
     4    2    3 ar  
     5    2   23 1   
     6    3    4 ar  
     7    3   24 1   
     8    4    5 ar  
     9    4   25 1   
    10    5    6 ar  
    11    5   26 1   
    12    6    7 1   
    13    7    8 1   
    14    7   27 1   
    15    7   28 1   
    16    8    9 1   
    17    8   10 1   
    18    8   29 1   
    19    9   10 1   
    20   10   11 1   
    21   10   30 1   
    22   11   12 1   
    23   11   13 1   
    24   11   31 1   
    25   12   32 1   
    26   13   14 1   
    27   13   21 1   
    28   13   33 1   
    29   14   15 1   
    30   14   34 1   
    31   14   35 1   
    32   15   16 ar  
    33   15   20 ar  
    34   16   17 ar  
    35   16   36 1   
    36   17   18 ar  
    37   17   37 1   
    38   18   19 ar  
    39   18   38 1   
    40   19   20 ar  
    41   19   39 1   
    42   20   40 1   
    43   21   41 1   
    44   21   42 1   
    45   21   43 1   
@<TRIPOS>SUBSTRUCTURE
     1 070         1 TEMP              0 ****  ****    0 ROOT
