@<TRIPOS>MOLECULE
070
   43    45     1     0     0
SMALL
bcc


@<TRIPOS>ATOM
      1 C27        -0.1410    0.0410    0.5720 ca        1 070     -0.125000
      2 C28         1.1100   -0.5550    0.7290 ca        1 070     -0.121000
      3 C29         1.3470   -1.4140    1.8020 ca        1 070     -0.113000
      4 C30         0.3310   -1.6730    2.7230 ca        1 070     -0.121000
      5 C31        -0.9190   -1.0780    2.5690 ca        1 070     -0.125000
      6 C26        -1.1630   -0.2200    1.4900 ca        1 070     -0.108300
      7 C25        -2.4930    0.4330    1.3410 c3        1 070     -0.032100
      8 C24        -3.5410   -0.5680    0.9480 cx        1 070      0.124100
      9 O5         -4.8430   -0.0250    0.6330 os        1 070     -0.454600
     10 C23        -4.0890   -0.6170   -0.4390 cx        1 070     -0.001900
     11 C22        -4.6470   -1.8940   -1.0290 c3        1 070      0.131100
     12 O4         -5.0270   -1.6850   -2.3820 oh        1 070     -0.618800
     13 C14        -5.9180   -2.3910   -0.2960 c3        1 070      0.135500
     14 C15        -6.2990   -3.7930   -0.7890 c3        1 070     -0.055100
     15 C16        -7.5710   -4.2630   -0.1790 ca        1 070     -0.156300
     16 C17        -7.5670   -4.8870    1.0740 ca        1 070     -0.134500
     17 C18        -8.7590   -5.3490    1.6300 ca        1 070     -0.113500
     18 C19        -9.9610   -5.1950    0.9380 ca        1 070     -0.100000
     19 C20        -9.9690   -4.5800   -0.3150 ca        1 070     -0.113500
     20 C21        -8.7800   -4.1150   -0.8730 ca        1 070     -0.134500
     21 N2         -7.0520   -1.4240   -0.4770 nz        1 070     -0.835600
     22 H1         -0.3170    0.7280   -0.2700 ha        1 070      0.130000
     23 H2          1.9130   -0.3410    0.0070 ha        1 070      0.143500
     24 H3          2.3370   -1.8800    1.9270 ha        1 070      0.146000
     25 H4          0.5200   -2.3420    3.5760 ha        1 070      0.143500
     26 H5         -1.7130   -1.2700    3.3060 ha        1 070      0.130000
     27 H6         -2.4470    1.2600    0.5830 hc        1 070      0.078200
     28 H7         -2.8000    0.8980    2.3190 hc        1 070      0.078200
     29 H8         -3.5780   -1.4760    1.5850 h1        1 070      0.097700
     30 H9         -3.7400    0.1130   -1.2010 h1        1 070      0.124700
     31 H10        -3.8690   -2.7070   -0.9580 h1        1 070      0.097700
     32 H11        -4.2190   -1.5830   -2.9040 ho        1 070      0.450000
     33 H12        -5.6940   -2.4230    0.8130 hx        1 070      0.113700
     34 H13        -6.3700   -3.7890   -1.9110 hc        1 070      0.095200
     35 H14        -5.4570   -4.4840   -0.5100 hc        1 070      0.095200
     36 H15        -6.6190   -5.0300    1.6150 ha        1 070      0.136000
     37 H16        -8.7480   -5.8480    2.6120 ha        1 070      0.155000
     38 H17       -10.9010   -5.5690    1.3750 ha        1 070      0.158000
     39 H18       -10.9150   -4.4740   -0.8700 ha        1 070      0.155000
     40 H19        -8.7870   -3.6710   -1.8800 ha        1 070      0.136000
     41 H20        -6.8600   -0.5680    0.0580 hn        1 070      0.469467
     42 H21        -7.1360   -1.1890   -1.4730 hn        1 070      0.469467
     43 H23        -7.9250   -1.8600   -0.1550 hn        1 070      0.469467
@<TRIPOS>BOND
     1    1    2 ar  
     2    1    6 ar  
     3    1   22 1   
     4    2    3 ar  
     5    2   23 1   
     6    3    4 ar  
     7    3   24 1   
     8    4    5 ar  
     9    4   25 1   
    10    5    6 ar  
    11    5   26 1   
    12    6    7 1   
    13    7    8 1   
    14    7   27 1   
    15    7   28 1   
    16    8    9 1   
    17    8   10 1   
    18    8   29 1   
    19    9   10 1   
    20   10   11 1   
    21   10   30 1   
    22   11   12 1   
    23   11   13 1   
    24   11   31 1   
    25   12   32 1   
    26   13   14 1   
    27   13   21 1   
    28   13   33 1   
    29   14   15 1   
    30   14   34 1   
    31   14   35 1   
    32   15   16 ar  
    33   15   20 ar  
    34   16   17 ar  
    35   16   36 1   
    36   17   18 ar  
    37   17   37 1   
    38   18   19 ar  
    39   18   38 1   
    40   19   20 ar  
    41   19   39 1   
    42   20   40 1   
    43   21   41 1   
    44   21   42 1   
    45   21   43 1   
@<TRIPOS>SUBSTRUCTURE
     1 070         1 TEMP              0 ****  ****    0 ROOT
