@<TRIPOS>MOLECULE
070
   43    45     1     0     0
SMALL
bcc


@<TRIPOS>ATOM
      1 C27        -0.0970   -0.0510    0.5660 ca        1 070     -0.125000
      2 C28         1.1390   -0.6670    0.7640 ca        1 070     -0.121000
      3 C29         1.3410   -1.4910    1.8710 ca        1 070     -0.113000
      4 C30         0.3050   -1.6960    2.7830 ca        1 070     -0.121000
      5 C31        -0.9290   -1.0810    2.5890 ca        1 070     -0.125000
      6 C26        -1.1390   -0.2570    1.4760 ca        1 070     -0.108300
      7 C25        -2.4520    0.4170    1.2830 c3        1 070     -0.032100
      8 C24        -3.5150   -0.5750    0.9100 cx        1 070      0.124100
      9 O5         -4.7980   -0.0180    0.5490 os        1 070     -0.454600
     10 C23        -4.0380   -0.6690   -0.4840 cx        1 070     -0.001900
     11 C22        -4.6150   -1.9570   -1.0330 c3        1 070      0.131100
     12 O4         -4.9610   -1.7960   -2.4000 oh        1 070     -0.618800
     13 C14        -5.9110   -2.3930   -0.3070 c3        1 070      0.135500
     14 C15        -6.3170   -3.8050   -0.7490 c3        1 070     -0.055100
     15 C16        -7.6120   -4.2180   -0.1490 ca        1 070     -0.156300
     16 C17        -7.6500   -4.7880    1.1290 ca        1 070     -0.134500
     17 C18        -8.8650   -5.1990    1.6770 ca        1 070     -0.113500
     18 C19       -10.0470   -5.0460    0.9540 ca        1 070     -0.100000
     19 C20       -10.0140   -4.4840   -0.3240 ca        1 070     -0.113500
     20 C21        -8.8020   -4.0720   -0.8750 ca        1 070     -0.134500
     21 N2         -7.0180   -1.4080   -0.5520 n4        1 070     -0.835600
     22 H1         -0.2450    0.6090   -0.3020 ha        1 070      0.130000
     23 H2          1.9570   -0.4950    0.0480 ha        1 070      0.143500
     24 H3          2.3180   -1.9730    2.0280 ha        1 070      0.146000
     25 H4          0.4670   -2.3380    3.6630 ha        1 070      0.143500
     26 H5         -1.7380   -1.2310    3.3190 ha        1 070      0.130000
     27 H6         -2.3770    1.2140    0.4950 hc        1 070      0.078200
     28 H7         -2.7630    0.9240    2.2380 hc        1 070      0.078200
     29 H8         -3.5850   -1.4560    1.5830 h1        1 070      0.097700
     30 H9         -3.6580    0.0200   -1.2680 h1        1 070      0.124700
     31 H10        -3.8580   -2.7840   -0.9110 h1        1 070      0.097700
     32 H11        -4.1410   -1.7360   -2.9090 ho        1 070      0.450000
     33 H12        -5.7120   -2.3840    0.8070 hx        1 070      0.114700
     34 H13        -6.3640   -3.8460   -1.8720 hc        1 070      0.095200
     35 H14        -5.4980   -4.5040   -0.4240 hc        1 070      0.095200
     36 H15        -6.7170   -4.9300    1.6960 ha        1 070      0.136000
     37 H16        -8.8870   -5.6550    2.6800 ha        1 070      0.155000
     38 H17       -11.0050   -5.3790    1.3840 ha        1 070      0.158000
     39 H18       -10.9450   -4.3800   -0.9040 ha        1 070      0.155000
     40 H19        -8.7770   -3.6710   -1.9000 ha        1 070      0.136000
     41 H20        -7.0760   -1.2130   -1.5580 hn        1 070      0.469467
     42 H21        -7.9080   -1.8090   -0.2310 hn        1 070      0.469467
     43 H23        -6.8160   -0.5350   -0.0490 hn        1 070      0.469467
@<TRIPOS>BOND
     1    1    2 ar  
     2    1    6 ar  
     3    1   22 1   
     4    2    3 ar  
     5    2   23 1   
     6    3    4 ar  
     7    3   24 1   
     8    4    5 ar  
     9    4   25 1   
    10    5    6 ar  
    11    5   26 1   
    12    6    7 1   
    13    7    8 1   
    14    7   27 1   
    15    7   28 1   
    16    8    9 1   
    17    8   10 1   
    18    8   29 1   
    19    9   10 1   
    20   10   11 1   
    21   10   30 1   
    22   11   12 1   
    23   11   13 1   
    24   11   31 1   
    25   12   32 1   
    26   13   14 1   
    27   13   21 1   
    28   13   33 1   
    29   14   15 1   
    30   14   34 1   
    31   14   35 1   
    32   15   16 ar  
    33   15   20 ar  
    34   16   17 ar  
    35   16   36 1   
    36   17   18 ar  
    37   17   37 1   
    38   18   19 ar  
    39   18   38 1   
    40   19   20 ar  
    41   19   39 1   
    42   20   40 1   
    43   21   41 1   
    44   21   42 1   
    45   21   43 1   
@<TRIPOS>SUBSTRUCTURE
     1 070         1 TEMP              0 ****  ****    0 ROOT
