@<TRIPOS>MOLECULE
070
   42    44     1     0     0
SMALL
bcc


@<TRIPOS>ATOM
      1 C27        -5.0620    0.8970    0.2720 ca        1 070     -0.123000
      2 C28        -6.2450    0.7690    0.9970 ca        1 070     -0.128500
      3 C29        -6.8550   -0.4790    1.1250 ca        1 070     -0.129000
      4 C30        -6.2780   -1.5990    0.5270 ca        1 070     -0.128500
      5 C31        -5.0940   -1.4730   -0.1990 ca        1 070     -0.123000
      6 C26        -4.4790   -0.2240   -0.3320 ca        1 070     -0.081300
      7 C25        -3.2220   -0.0800   -1.1180 c3        1 070     -0.033100
      8 C24        -2.0310    0.1630   -0.2360 cx        1 070      0.077100
      9 O5         -1.1150   -0.9380   -0.0880 os        1 070     -0.400600
     10 C23        -0.6600    0.2100   -0.8230 cx        1 070      0.028100
     11 C22         0.4420    1.0020   -0.1550 c3        1 070      0.155100
     12 O4          0.4380    2.3500   -0.5820 oh        1 070     -0.591800
     13 C14         1.8100    0.3080   -0.3960 c3        1 070      0.137500
     14 C15         2.8010    0.8410    0.6570 c3        1 070     -0.076100
     15 C16         4.1530    0.2420    0.5130 ca        1 070     -0.089300
     16 C17         4.3510   -1.1220    0.7640 ca        1 070     -0.129500
     17 C18         5.6210   -1.6830    0.6450 ca        1 070     -0.127500
     18 C19         6.7060   -0.8870    0.2770 ca        1 070     -0.131000
     19 C20         6.5170    0.4720    0.0290 ca        1 070     -0.127500
     20 C21         5.2470    1.0350    0.1470 ca        1 070     -0.129500
     21 N2          2.2480    0.4330   -1.7710 n3        1 070     -0.905800
     22 H1         -4.5820    1.8820    0.1700 ha        1 070      0.133500
     23 H2         -6.6970    1.6530    1.4680 ha        1 070      0.131500
     24 H3         -7.7890   -0.5800    1.6980 ha        1 070      0.131000
     25 H4         -6.7560   -2.5840    0.6270 ha        1 070      0.131500
     26 H5         -4.6400   -2.3600   -0.6660 ha        1 070      0.133500
     27 H6         -3.0460   -0.9990   -1.7400 hc        1 070      0.064200
     28 H7         -3.3210    0.7930   -1.8190 hc        1 070      0.064200
     29 H8         -2.2460    0.6980    0.7110 h1        1 070      0.099700
     30 H9         -0.5070    0.0260   -1.9050 h1        1 070      0.106700
     31 H10         0.2610    1.0630    0.9570 h1        1 070      0.084700
     32 H11         0.4120    2.3570   -1.5470 ho        1 070      0.407000
     33 H12         1.6480   -0.7950   -0.1970 h1        1 070      0.075700
     34 H13         2.8520    1.9600    0.5740 hc        1 070      0.061200
     35 H14         2.3980    0.5990    1.6770 hc        1 070      0.061200
     36 H15         3.4970   -1.7500    1.0590 ha        1 070      0.133500
     37 H16         5.7670   -2.7550    0.8440 ha        1 070      0.132500
     38 H17         7.7080   -1.3300    0.1850 ha        1 070      0.132000
     39 H18         7.3710    1.1030   -0.2570 ha        1 070      0.132500
     40 H19         5.1050    2.1100   -0.0430 ha        1 070      0.133500
     41 H20         2.5110    1.3800   -1.9680 hn        1 070      0.352800
     42 H21         3.0420   -0.1580   -1.9300 hn        1 070      0.352800
@<TRIPOS>BOND
     1    1    2 ar  
     2    1    6 ar  
     3    1   22 1   
     4    2    3 ar  
     5    2   23 1   
     6    3    4 ar  
     7    3   24 1   
     8    4    5 ar  
     9    4   25 1   
    10    5    6 ar  
    11    5   26 1   
    12    6    7 1   
    13    7    8 1   
    14    7   27 1   
    15    7   28 1   
    16    8    9 1   
    17    8   10 1   
    18    8   29 1   
    19    9   10 1   
    20   10   11 1   
    21   10   30 1   
    22   11   12 1   
    23   11   13 1   
    24   11   31 1   
    25   12   32 1   
    26   13   14 1   
    27   13   21 1   
    28   13   33 1   
    29   14   15 1   
    30   14   34 1   
    31   14   35 1   
    32   15   16 ar  
    33   15   20 ar  
    34   16   17 ar  
    35   16   36 1   
    36   17   18 ar  
    37   17   37 1   
    38   18   19 ar  
    39   18   38 1   
    40   19   20 ar  
    41   19   39 1   
    42   20   40 1   
    43   21   41 1   
    44   21   42 1   
@<TRIPOS>SUBSTRUCTURE
     1 070         1 TEMP              0 ****  ****    0 ROOT
