@<TRIPOS>MOLECULE
071
   62    66     1     0     0
SMALL
bcc


@<TRIPOS>ATOM
      1 N1         -0.2370    0.3430    0.2670 nb        1 071     -0.696000
      2 C2          1.1570    0.4330    0.2260 ca        1 071      0.886900
      3 N3          1.9780    0.2700    1.3370 nb        1 071     -0.767000
      4 C4         -0.7910    0.1220    1.4590 ca        1 071      0.479200
      5 C5         -0.0520   -0.0310    2.6590 ca        1 071     -0.349900
      6 C6          1.3540    0.0510    2.5140 ca        1 071      0.530800
      7 C7          0.0810   -0.9310    5.0260 c3        1 071     -0.025100
      8 C8         -0.7330   -0.2000    3.9640 c3        1 071     -0.015100
      9 C9          1.5080   -0.6080    4.9310 cc        1 071     -0.094600
     10 C10         2.1200   -0.1580    3.7360 cd        1 071     -0.170800
     11 N11         3.4900    0.0140    4.0030 na        1 071      0.224400
     12 N12         3.7800   -0.2850    5.2500 nd        1 071     -0.505800
     13 C13         2.5940   -0.6760    5.8730 cc        1 071      0.156800
     14 C14         2.4880   -1.0710    7.2500 c         1 071      0.512600
     15 N15         3.7980   -1.0670    8.0290 nz        1 071     -0.755400
     16 O16         1.5140   -1.4100    7.9050 o         1 071     -0.426100
     17 C17         4.4720    0.4620    3.0250 c3        1 071      0.017600
     18 N18         1.7890    0.7920   -0.9760 nu        1 071     -0.671300
     19 C19         1.1290    0.6220   -2.2240 ca        1 071      0.092600
     20 C20         0.0220    1.4130   -2.5570 ca        1 071     -0.097000
     21 C21        -0.6000    1.3130   -3.8240 ca        1 071      0.119600
     22 C22        -0.0770    0.3910   -4.7540 ca        1 071     -0.141000
     23 C23         1.0180   -0.4050   -4.4350 ca        1 071     -0.163000
     24 C24         1.6280   -0.3020   -3.1860 ca        1 071      0.076100
     25 O25         2.7230   -1.0560   -2.7940 os        1 071     -0.350900
     26 C26         3.3280   -1.8560   -3.8050 c3        1 071      0.117700
     27 N30        -1.7660    2.0800   -4.0770 nh        1 071     -0.632000
     28 C31        -2.5170    1.7280   -5.2720 c3        1 071      0.182800
     29 C32        -3.8560    2.4870   -5.3650 c3        1 071      0.166300
     30 N33        -3.7000    3.9260   -5.2180 n3        1 071     -0.732600
     31 C34        -2.9460    4.2750   -4.0230 c3        1 071      0.166300
     32 C35        -1.6060    3.5200   -3.9190 c3        1 071      0.182800
     33 C36        -4.9570    4.6340   -5.3080 c3        1 071      0.156100
     34 H4         -1.8970    0.0560    1.4670 h4        1 071      0.044100
     35 H7         -0.3140   -0.6740    6.0460 hc        1 071      0.080200
     36 H7A        -0.0420   -2.0440    4.8970 hc        1 071      0.080200
     37 H8         -1.0010    0.8230    4.3520 hc        1 071      0.069200
     38 H8A        -1.6980   -0.7570    3.8160 hc        1 071      0.069200
     39 HN15        4.1990   -0.1240    8.0250 hn        1 071      0.468133
     40 HN1A        4.4640   -1.7060    7.5860 hn        1 071      0.468133
     41 H17         4.1230    1.4420    2.6000 h1        1 071      0.095367
     42 H17A        4.5300   -0.3060    2.2060 h1        1 071      0.095367
     43 H17B        5.4790    0.5880    3.5040 h1        1 071      0.095367
     44 HN18        2.7670    0.5660   -1.0180 hn        1 071      0.446800
     45 H20        -0.3790    2.1160   -1.8080 ha        1 071      0.157000
     46 H22        -0.5240    0.2810   -5.7540 ha        1 071      0.145000
     47 H23         1.3960   -1.1170   -5.1840 ha        1 071      0.145000
     48 H26         3.6460   -1.2270   -4.6720 h1        1 071      0.049033
     49 H26A        4.2170   -2.2970   -3.2880 h1        1 071      0.049033
     50 H26B        2.6270   -2.6600   -4.1360 h1        1 071      0.049033
     51 H31        -2.7480    0.6270   -5.2300 h1        1 071      0.044700
     52 H31A       -1.9240    1.9330   -6.2110 h1        1 071      0.044700
     53 H32        -4.5680    2.0620   -4.5980 h1        1 071      0.040950
     54 H32A       -4.2880    2.2890   -6.3860 h1        1 071      0.040950
     55 H34        -2.7120    5.3760   -4.0720 h1        1 071      0.040950
     56 H34A       -3.5410    4.0880   -3.0820 h1        1 071      0.040950
     57 H35        -0.8950    3.9360   -4.6910 h1        1 071      0.044700
     58 H35A       -1.1750    3.7270   -2.9010 h1        1 071      0.044700
     59 H36        -5.6730    4.3780   -4.4800 h1        1 071      0.035700
     60 H36A       -4.7520    5.7360   -5.2760 h1        1 071      0.035700
     61 H36B       -5.4400    4.3850   -6.2890 h1        1 071      0.035700
     62 H153        3.6310   -1.3630    8.9970 hn        1 071      0.468133
@<TRIPOS>BOND
     1    1    2 ar  
     2    1    4 ar  
     3    2    3 ar  
     4    2   18 1   
     5    3    6 ar  
     6    4    5 ar  
     7    4   34 1   
     8    5    6 ar  
     9    5    8 1   
    10    6   10 1   
    11    7    8 1   
    12    7    9 1   
    13    7   35 1   
    14    7   36 1   
    15    8   37 1   
    16    8   38 1   
    17    9   10 2   
    18    9   13 1   
    19   10   11 1   
    20   11   12 1   
    21   11   17 1   
    22   12   13 2   
    23   13   14 1   
    24   14   15 1   
    25   14   16 2   
    26   15   39 1   
    27   15   40 1   
    28   15   62 1   
    29   17   41 1   
    30   17   42 1   
    31   17   43 1   
    32   18   19 1   
    33   18   44 1   
    34   19   20 ar  
    35   19   24 ar  
    36   20   21 ar  
    37   20   45 1   
    38   21   22 ar  
    39   21   27 1   
    40   22   23 ar  
    41   22   46 1   
    42   23   24 ar  
    43   23   47 1   
    44   24   25 1   
    45   25   26 1   
    46   26   48 1   
    47   26   49 1   
    48   26   50 1   
    49   27   28 1   
    50   27   32 1   
    51   28   29 1   
    52   28   51 1   
    53   28   52 1   
    54   29   30 1   
    55   29   53 1   
    56   29   54 1   
    57   30   31 1   
    58   30   33 1   
    59   31   32 1   
    60   31   55 1   
    61   31   56 1   
    62   32   57 1   
    63   32   58 1   
    64   33   59 1   
    65   33   60 1   
    66   33   61 1   
@<TRIPOS>SUBSTRUCTURE
     1 071         1 TEMP              0 ****  ****    0 ROOT
