@<TRIPOS>MOLECULE
071
   62    66     1     0     0
SMALL
bcc


@<TRIPOS>ATOM
      1 N1         -0.2360    0.3430    0.2680 nb        1 071     -0.696000
      2 C2          1.1570    0.4370    0.2260 ca        1 071      0.886900
      3 N3          1.9790    0.2740    1.3380 nb        1 071     -0.767000
      4 C4         -0.7900    0.1200    1.4590 ca        1 071      0.479200
      5 C5         -0.0510   -0.0310    2.6590 ca        1 071     -0.349900
      6 C6          1.3550    0.0530    2.5140 ca        1 071      0.530800
      7 C7          0.0840   -0.9320    5.0250 c3        1 071     -0.025100
      8 C8         -0.7310   -0.2030    3.9640 c3        1 071     -0.015100
      9 C9          1.5100   -0.6070    4.9310 cc        1 071     -0.094600
     10 C10         2.1210   -0.1540    3.7360 cd        1 071     -0.170800
     11 N11         3.4910    0.0200    4.0040 na        1 071      0.224400
     12 N12         3.7810   -0.2790    5.2510 nd        1 071     -0.505800
     13 C13         2.5960   -0.6730    5.8730 cc        1 071      0.156800
     14 C14         2.4910   -1.0690    7.2490 c         1 071      0.512600
     15 N15         3.8010   -1.0630    8.0290 n4        1 071     -0.755400
     16 O16         1.5170   -1.4100    7.9040 o         1 071     -0.426100
     17 C17         4.4720    0.4710    3.0260 c3        1 071      0.017600
     18 N18         1.7890    0.7970   -0.9760 nh        1 071     -0.671300
     19 C19         1.1300    0.6260   -2.2240 ca        1 071      0.092600
     20 C20         0.0210    1.4150   -2.5560 ca        1 071     -0.097000
     21 C21        -0.6000    1.3130   -3.8240 ca        1 071      0.119600
     22 C22        -0.0750    0.3920   -4.7530 ca        1 071     -0.141000
     23 C23         1.0210   -0.4020   -4.4340 ca        1 071     -0.163000
     24 C24         1.6310   -0.2980   -3.1850 ca        1 071      0.076100
     25 O25         2.7270   -1.0490   -2.7930 os        1 071     -0.350900
     26 C26         3.3330   -1.8480   -3.8040 c3        1 071      0.117700
     27 N30        -1.7680    2.0780   -4.0770 nh        1 071     -0.632000
     28 C31        -2.5180    1.7240   -5.2720 c3        1 071      0.182800
     29 C32        -3.8590    2.4810   -5.3650 c3        1 071      0.166300
     30 N33        -3.7050    3.9200   -5.2190 n3        1 071     -0.732600
     31 C34        -2.9520    4.2710   -4.0240 c3        1 071      0.166300
     32 C35        -1.6100    3.5180   -3.9200 c3        1 071      0.182800
     33 C36        -4.9630    4.6260   -5.3100 c3        1 071      0.156100
     34 H4         -1.8960    0.0530    1.4670 h4        1 071      0.044100
     35 H7         -0.0360   -2.0460    4.8960 hc        1 071      0.080200
     36 H7A        -0.3120   -0.6770    6.0460 hc        1 071      0.080200
     37 H8         -1.0010    0.8200    4.3520 hc        1 071      0.069200
     38 H8A        -1.6950   -0.7620    3.8160 hc        1 071      0.069200
     39 HN15        4.2000   -0.1190    8.0250 hn        1 071      0.468133
     40 HN1A        4.4680   -1.7010    7.5860 hn        1 071      0.468133
     41 H17         4.5320   -0.2960    2.2070 h1        1 071      0.095367
     42 H17A        5.4780    0.5990    3.5060 h1        1 071      0.095367
     43 H17B        4.1220    1.4500    2.6010 h1        1 071      0.095367
     44 HN18        2.7670    0.5730   -1.0170 hn        1 071      0.446800
     45 H20        -0.3820    2.1170   -1.8080 ha        1 071      0.157000
     46 H22        -0.5230    0.2800   -5.7540 ha        1 071      0.145000
     47 H23         1.4000   -1.1130   -5.1840 ha        1 071      0.145000
     48 H26         3.6500   -1.2200   -4.6710 h1        1 071      0.049033
     49 H26A        2.6340   -2.6540   -4.1350 h1        1 071      0.049033
     50 H26B        4.2230   -2.2880   -3.2860 h1        1 071      0.049033
     51 H31        -2.7480    0.6230   -5.2300 h1        1 071      0.044700
     52 H31A       -1.9260    1.9290   -6.2110 h1        1 071      0.044700
     53 H32        -4.5700    2.0540   -4.5990 h1        1 071      0.040950
     54 H32A       -4.2900    2.2820   -6.3860 h1        1 071      0.040950
     55 H34        -2.7200    5.3720   -4.0740 h1        1 071      0.040950
     56 H34A       -3.5470    4.0830   -3.0830 h1        1 071      0.040950
     57 H35        -0.9000    3.9350   -4.6910 h1        1 071      0.044700
     58 H35A       -1.1810    3.7270   -2.9010 h1        1 071      0.044700
     59 H36        -4.7600    5.7290   -5.2790 h1        1 071      0.035700
     60 H36A       -5.6790    4.3700   -4.4820 h1        1 071      0.035700
     61 H36B       -5.4460    4.3750   -6.2900 h1        1 071      0.035700
     62 H153        3.6340   -1.3600    8.9970 hn        1 071      0.468133
@<TRIPOS>BOND
     1    1    2 ar  
     2    1    4 ar  
     3    2    3 ar  
     4    2   18 1   
     5    3    6 ar  
     6    4    5 ar  
     7    4   34 1   
     8    5    6 ar  
     9    5    8 1   
    10    6   10 1   
    11    7    8 1   
    12    7    9 1   
    13    7   35 1   
    14    7   36 1   
    15    8   37 1   
    16    8   38 1   
    17    9   10 2   
    18    9   13 1   
    19   10   11 1   
    20   11   12 1   
    21   11   17 1   
    22   12   13 2   
    23   13   14 1   
    24   14   15 1   
    25   14   16 2   
    26   15   39 1   
    27   15   40 1   
    28   15   62 1   
    29   17   41 1   
    30   17   42 1   
    31   17   43 1   
    32   18   19 1   
    33   18   44 1   
    34   19   20 ar  
    35   19   24 ar  
    36   20   21 ar  
    37   20   45 1   
    38   21   22 ar  
    39   21   27 1   
    40   22   23 ar  
    41   22   46 1   
    42   23   24 ar  
    43   23   47 1   
    44   24   25 1   
    45   25   26 1   
    46   26   48 1   
    47   26   49 1   
    48   26   50 1   
    49   27   28 1   
    50   27   32 1   
    51   28   29 1   
    52   28   51 1   
    53   28   52 1   
    54   29   30 1   
    55   29   53 1   
    56   29   54 1   
    57   30   31 1   
    58   30   33 1   
    59   31   32 1   
    60   31   55 1   
    61   31   56 1   
    62   32   57 1   
    63   32   58 1   
    64   33   59 1   
    65   33   60 1   
    66   33   61 1   
@<TRIPOS>SUBSTRUCTURE
     1 071         1 TEMP              0 ****  ****    0 ROOT
