@<TRIPOS>MOLECULE
071
   61    57     1     0     0
SMALL
bcc


@<TRIPOS>ATOM
      1 N1          2.2270    0.1820    0.7900 n1        1 071     -0.195000
      2 C2          0.9780    0.7250    0.5460 c1        1 071      0.163000
      3 N3          0.4810    1.7110    1.3680 n1        1 071     -0.236000
      4 C4          2.9650    0.6200    1.8390 c1        1 071     -0.006000
      5 C5          2.4690    1.6110    2.6670 c1        1 071     -0.205000
      6 C6          1.2170    2.1540    2.4220 c1        1 071      0.125000
      7 C7          2.8080    3.2090    4.6170 c3        1 071     -0.099000
      8 C8          3.2520    2.0440    3.8790 c3        1 071     -0.101000
      9 C9          1.5790    3.9370    4.1490 c2        1 071     -0.070000
     10 C10         0.7540    3.3620    3.1910 c1        1 071     -0.123500
     11 N11        -0.3620    4.1420    3.0740 n2        1 071     -0.058500
     12 N12        -0.2380    5.2080    3.9600 n2        1 071     -0.058500
     13 C13         0.9550    5.0780    4.6170 c1        1 071     -0.123500
     14 C14         1.0910    6.5870    4.4250 c1        1 071      0.387000
     15 N15         1.2690    7.4390    5.5600 n3        1 071     -0.424000
     16 O16         1.0580    7.0640    3.3050 o         1 071     -0.383000
     17 C17        -1.7880    3.9790    3.0280 c2        1 071     -0.061000
     18 N18         0.4170    0.8070   -0.7760 n3        1 071     -0.223000
     19 C19         0.3030   -0.3780   -1.5860 c2        1 071      0.018000
     20 C20        -0.7470   -1.2680   -1.3730 c2        1 071     -0.106000
     21 C21        -0.9170   -2.3620   -2.2200 c1        1 071     -0.018000
     22 C22        -0.0360   -2.5660   -3.2790 c1        1 071     -0.157000
     23 C23         1.0140   -1.6760   -3.4930 c1        1 071     -0.157000
     24 C24         1.1840   -0.5820   -2.6470 c1        1 071      0.108000
     25 O25         2.2930    0.2860   -2.8250 os        1 071     -0.188000
     26 C26         2.4370    0.7720   -4.1530 c3        1 071     -0.076000
     27 N30        -1.9800   -3.3130   -1.9690 n3        1 071     -0.217000
     28 C31        -1.4190   -4.6040   -1.7250 c3        1 071     -0.099000
     29 C32        -2.4840   -5.6860   -1.5990 c3        1 071     -0.075000
     30 N33        -3.3980   -5.6820   -2.6990 n3        1 071     -0.246000
     31 C34        -3.9600   -4.3910   -2.9420 c3        1 071     -0.075000
     32 C35        -2.8940   -3.3080   -3.0690 c3        1 071     -0.099000
     33 C36        -2.7250   -6.1470   -3.8860 c3        1 071     -0.127000
     34 H4          3.8510    0.2340    2.0110 ha        1 071      0.164000
     35 H7          3.5490    3.8550    4.6240 hc        1 071      0.116500
     36 H7A         2.6470    2.9260    5.5470 hc        1 071      0.116500
     37 H8          4.1760    2.2130    3.5880 hc        1 071      0.092500
     38 H8A         3.2700    1.2850    4.5060 hc        1 071      0.092500
     39 HN15        0.7660    7.3070    6.3160 hn        1 071      0.231500
     40 HN1A        1.8530    8.1450    5.5160 hn        1 071      0.231500
     41 H17        -2.1170    3.7150    3.9170 ha        1 071      0.109667
     42 H17A       -2.0170    3.2820    2.3740 ha        1 071      0.109667
     43 H17B       -2.2070    4.8280    2.7620 ha        1 071      0.109667
     44 HN18        0.1370    1.6160   -1.1060 hn        1 071      0.236000
     45 H20        -1.3680   -1.1240   -0.6260 ha        1 071      0.149000
     46 H22        -0.1560   -3.3350   -3.8750 ha        1 071      0.138000
     47 H23         1.6350   -1.8200   -4.2400 ha        1 071      0.138000
     48 H26         2.9290    1.6230   -4.1390 h1        1 071      0.084000
     49 H26A        1.5500    0.9140   -4.5480 h1        1 071      0.084000
     50 H26B        2.9330    0.1160   -4.6900 h1        1 071      0.084000
     51 H31        -0.8970   -4.5720   -0.8910 h1        1 071      0.077750
     52 H31A       -0.8180   -4.8340   -2.4670 h1        1 071      0.077750
     53 H32        -2.0420   -6.5650   -1.5560 h1        1 071      0.098500
     54 H32A       -2.9870   -5.5420   -0.7660 h1        1 071      0.098500
     55 H34        -4.4810   -4.4230   -3.7760 h1        1 071      0.098500
     56 H34A       -4.5610   -4.1600   -2.1990 h1        1 071      0.098500
     57 H35        -3.3370   -2.4300   -3.1120 h1        1 071      0.077750
     58 H35A       -2.3920   -3.4530   -3.9000 h1        1 071      0.077750
     59 H36        -3.2930   -5.9810   -4.6720 h1        1 071      0.070667
     60 H36A       -2.5490   -7.1120   -3.8070 h1        1 071      0.070667
     61 H36B       -1.8760   -5.6670   -3.9900 h1        1 071      0.070667
@<TRIPOS>BOND
     1    1    4 1   
     2    2    3 1   
     3    2   18 1   
     4    4   34 1   
     5    5    6 1   
     6    5    8 1   
     7    7    8 1   
     8    7    9 1   
     9    7   35 1   
    10    7   36 1   
    11    8   37 1   
    12    8   38 1   
    13    9   10 1   
    14    9   13 1   
    15   10   11 1   
    16   11   12 1   
    17   12   13 1   
    18   14   15 1   
    19   14   16 1   
    20   15   39 1   
    21   15   40 1   
    22   17   41 1   
    23   17   42 1   
    24   17   43 1   
    25   18   19 1   
    26   18   44 1   
    27   19   20 1   
    28   19   24 1   
    29   20   21 1   
    30   20   45 1   
    31   21   27 1   
    32   22   23 1   
    33   22   46 1   
    34   23   47 1   
    35   24   25 1   
    36   25   26 1   
    37   26   48 1   
    38   26   49 1   
    39   26   50 1   
    40   27   28 1   
    41   27   32 1   
    42   28   29 1   
    43   28   51 1   
    44   28   52 1   
    45   29   30 1   
    46   29   53 1   
    47   29   54 1   
    48   30   31 1   
    49   30   33 1   
    50   31   32 1   
    51   31   55 1   
    52   31   56 1   
    53   32   57 1   
    54   32   58 1   
    55   33   59 1   
    56   33   60 1   
    57   33   61 1   
@<TRIPOS>SUBSTRUCTURE
     1 071         1 TEMP              0 ****  ****    0 ROOT
