@<TRIPOS>MOLECULE
071
   63    67     1     0     0
SMALL
bcc


@<TRIPOS>ATOM
      1 N1          0.3290    2.8270    0.8670 nb        1 071     -0.649000
      2 C2          1.4620    2.1220    0.5340 ca        1 071      0.728900
      3 N3          2.0670    1.1410    1.2740 nb        1 071     -0.666000
      4 C4         -0.2290    2.5150    2.0480 ca        1 071      0.464200
      5 C5          0.2950    1.5230    2.9110 ca        1 071     -0.232900
      6 C6          1.4670    0.8510    2.4570 ca        1 071      0.533800
      7 C7         -0.0860   -0.1210    4.8080 c3        1 071     -0.033100
      8 C8         -0.3240    1.2690    4.2350 c3        1 071     -0.043100
      9 C9          1.2400   -0.6340    4.4590 cc        1 071     -0.074600
     10 C10         1.9770   -0.1910    3.3320 cd        1 071     -0.215800
     11 N11         3.1740   -0.9340    3.2930 na        1 071      0.223400
     12 N12         3.2400   -1.7840    4.2920 nd        1 071     -0.464800
     13 C13         2.0780   -1.6470    5.0450 cc        1 071      0.170800
     14 C14         1.7740   -2.3970    6.2410 c         1 071      0.504600
     15 N15         2.8170   -3.4100    6.6720 n4        1 071     -0.749400
     16 O16         0.7900   -2.3270    6.9610 o         1 071     -0.402100
     17 C17         4.2120   -0.7890    2.2810 c3        1 071      0.015600
     18 N18         2.0870    2.4630   -0.7840 n4        1 071     -0.594100
     19 C19         1.4770    1.7180   -1.8920 ca        1 071     -0.051400
     20 C20         0.1930    2.0780   -2.3390 ca        1 071     -0.177000
     21 C21        -0.4080    1.4000   -3.4250 ca        1 071      0.188600
     22 C22         0.3560    0.3680   -4.0530 ca        1 071     -0.109000
     23 C23         1.6170    0.0230   -3.6100 ca        1 071     -0.136000
     24 C24         2.2020    0.6850   -2.5200 ca        1 071      0.106100
     25 O25         3.4520    0.3980   -2.0090 os        1 071     -0.370900
     26 C26         4.3190   -0.3580   -2.8610 c3        1 071      0.115700
     27 N30        -1.7180    1.6740   -3.8190 nh        1 071     -0.630000
     28 C31        -2.1330    1.1720   -5.1200 c3        1 071      0.194300
     29 C32        -3.5810    1.5100   -5.5220 c3        1 071      0.161800
     30 N33        -3.9270    2.8940   -5.2470 n3        1 071     -0.729600
     31 C34        -3.7400    3.1930   -3.8380 c3        1 071      0.161800
     32 C35        -2.2970    2.9280   -3.3660 c3        1 071      0.194300
     33 C36        -5.2370    3.2610   -5.7380 c3        1 071      0.152100
     34 H4         -1.1400    3.0910    2.3150 h4        1 071      0.078100
     35 H7         -0.8640   -0.8360    4.4120 hc        1 071      0.099200
     36 H7A        -0.2170   -0.0900    5.9260 hc        1 071      0.099200
     37 H8         -1.4350    1.4420    4.1730 hc        1 071      0.095200
     38 H8A         0.0850    2.0400    4.9510 hc        1 071      0.095200
     39 HN15        2.9580   -4.1040    5.9300 hn        1 071      0.477133
     40 HN1A        2.5050   -3.8890    7.5280 hn        1 071      0.477133
     41 H17         4.5560    0.2800    2.2790 h1        1 071      0.097033
     42 H17A        3.7740   -1.0570    1.2820 h1        1 071      0.097033
     43 H17B        5.0810   -1.4650    2.5080 h1        1 071      0.097033
     44 HN18        3.0950    2.2390   -0.7510 hn        1 071      0.485800
     45 H20        -0.3380    2.9010   -1.8320 ha        1 071      0.165000
     46 H22        -0.0510   -0.1790   -4.9210 ha        1 071      0.171000
     47 H23         2.1720   -0.7800   -4.1230 ha        1 071      0.170000
     48 H26         4.3860    0.1070   -3.8740 h1        1 071      0.065367
     49 H26A        3.9580   -1.4130   -2.9280 h1        1 071      0.065367
     50 H26B        5.3050   -0.3070   -2.3320 h1        1 071      0.065367
     51 H31        -1.4370    1.5580   -5.9210 h1        1 071      0.048950
     52 H31A       -2.0640    0.0460   -5.0940 h1        1 071      0.048950
     53 H32        -3.6680    1.3360   -6.6320 h1        1 071      0.053200
     54 H32A       -4.2780    0.7900   -5.0010 h1        1 071      0.053200
     55 H34        -4.4470    2.6030   -3.1840 h1        1 071      0.053200
     56 H34A       -3.9490    4.2870   -3.6760 h1        1 071      0.053200
     57 H35        -2.3300    2.9080   -2.2380 h1        1 071      0.048950
     58 H35A       -1.6480    3.7920   -3.6900 h1        1 071      0.048950
     59 H36        -5.2720    3.0690   -6.8420 h1        1 071      0.047033
     60 H36A       -5.3930    4.3570   -5.5570 h1        1 071      0.047033
     61 H36B       -6.0710    2.6910   -5.2450 h1        1 071      0.047033
     62 H153        3.7090   -2.9380    6.8550 hn        1 071      0.477133
     63 H182        1.9610    3.4730   -0.9560 hn        1 071      0.485800
@<TRIPOS>BOND
     1    1    2 ar  
     2    1    4 ar  
     3    2    3 ar  
     4    2   18 1   
     5    3    6 ar  
     6    4    5 ar  
     7    4   34 1   
     8    5    6 ar  
     9    5    8 1   
    10    6   10 1   
    11    7    8 1   
    12    7    9 1   
    13    7   35 1   
    14    7   36 1   
    15    8   37 1   
    16    8   38 1   
    17    9   10 2   
    18    9   13 1   
    19   10   11 1   
    20   11   12 1   
    21   11   17 1   
    22   12   13 2   
    23   13   14 1   
    24   14   15 1   
    25   14   16 2   
    26   15   39 1   
    27   15   40 1   
    28   15   62 1   
    29   17   41 1   
    30   17   42 1   
    31   17   43 1   
    32   18   19 1   
    33   18   44 1   
    34   18   63 1   
    35   19   20 ar  
    36   19   24 ar  
    37   20   21 ar  
    38   20   45 1   
    39   21   22 ar  
    40   21   27 1   
    41   22   23 ar  
    42   22   46 1   
    43   23   24 ar  
    44   23   47 1   
    45   24   25 1   
    46   25   26 1   
    47   26   48 1   
    48   26   49 1   
    49   26   50 1   
    50   27   28 1   
    51   27   32 1   
    52   28   29 1   
    53   28   51 1   
    54   28   52 1   
    55   29   30 1   
    56   29   53 1   
    57   29   54 1   
    58   30   31 1   
    59   30   33 1   
    60   31   32 1   
    61   31   55 1   
    62   31   56 1   
    63   32   57 1   
    64   32   58 1   
    65   33   59 1   
    66   33   60 1   
    67   33   61 1   
@<TRIPOS>SUBSTRUCTURE
     1 071         1 TEMP              0 ****  ****    0 ROOT
