@<TRIPOS>MOLECULE
071
   61    65     1     0     0
SMALL
bcc


@<TRIPOS>ATOM
      1 N1         -0.0840    0.6170    0.4550 nb        1 071     -0.720000
      2 C2          0.3290   -0.4680   -0.3070 ca        1 071      0.859900
      3 N3          1.6570   -0.7890   -0.5610 nb        1 071     -0.754000
      4 C4          0.8810    1.4140    0.9330 ca        1 071      0.458200
      5 C5          2.2570    1.2030    0.7130 ca        1 071     -0.335900
      6 C6          2.5860    0.0500   -0.0530 ca        1 071      0.557800
      7 C7          4.6530    1.5700    1.4620 c3        1 071     -0.013100
      8 C8          3.2730    2.1640    1.2070 c3        1 071     -0.016100
      9 C9          4.9850    0.5360    0.4790 cc        1 071     -0.142600
     10 C10         4.0060   -0.1990   -0.2300 cd        1 071     -0.209800
     11 N11         4.6890   -1.1160   -1.0440 na        1 071      0.155400
     12 N12         6.0050   -1.0020   -0.8950 nd        1 071     -0.490800
     13 C13         6.2390   -0.0060    0.0260 cc        1 071      0.247800
     14 C14         7.5730    0.4560    0.4710 c         1 071      0.603600
     15 N15         8.6870   -0.2050    0.0210 n         1 071     -0.664000
     16 O16         7.6920    1.4290    1.2470 o         1 071     -0.622100
     17 C17         4.0550   -2.0660   -1.9340 c3        1 071      0.036600
     18 N18        -0.6430   -1.2790   -0.9480 nh        1 071     -0.678300
     19 C19        -1.9640   -1.3450   -0.4320 ca        1 071      0.109600
     20 C20        -2.8130   -0.2320   -0.5040 ca        1 071     -0.096000
     21 C21        -4.1610   -0.3030   -0.0800 ca        1 071      0.111600
     22 C22        -4.6440   -1.5260    0.4210 ca        1 071     -0.151000
     23 C23        -3.8130   -2.6400    0.5060 ca        1 071     -0.170000
     24 C24        -2.4870   -2.5660    0.0880 ca        1 071      0.071100
     25 O25        -1.6010   -3.6310    0.1300 os        1 071     -0.342900
     26 C26        -2.1270   -4.8670    0.5980 c3        1 071      0.119700
     27 N30        -4.9480    0.8810   -0.1080 nh        1 071     -0.630000
     28 C31        -6.2110    0.8250    0.6080 c3        1 071      0.183300
     29 C32        -6.9010    2.2030    0.6800 c3        1 071      0.165800
     30 N33        -7.0350    2.8380   -0.6240 n3        1 071     -0.732600
     31 C34        -5.7740    2.8750   -1.3500 c3        1 071      0.165800
     32 C35        -5.0780    1.5010   -1.4190 c3        1 071      0.183300
     33 C36        -7.6650    4.1360   -0.5430 c3        1 071      0.157100
     34 H4          0.5300    2.2740    1.5340 h4        1 071      0.031100
     35 H7          5.4300    2.3840    1.4420 hc        1 071      0.077200
     36 H7A         4.6880    1.1140    2.4900 hc        1 071      0.077200
     37 H8          3.3690    2.9850    0.4410 hc        1 071      0.054700
     38 H8A         2.9100    2.6410    2.1570 hc        1 071      0.054700
     39 HN15        8.6260   -0.9680   -0.6010 hn        1 071      0.317500
     40 HN1A        9.5790    0.1090    0.3110 hn        1 071      0.317500
     41 H17         3.3740   -1.5090   -2.6310 h1        1 071      0.071367
     42 H17A        4.8270   -2.6230   -2.5270 h1        1 071      0.071367
     43 H17B        3.4540   -2.7900   -1.3230 h1        1 071      0.071367
     44 HN18       -0.2920   -2.1820   -1.2140 hn        1 071      0.437800
     45 H20        -2.4120    0.7230   -0.8860 ha        1 071      0.162000
     46 H22        -5.6860   -1.6300    0.7590 ha        1 071      0.137000
     47 H23        -4.2220   -3.5780    0.9090 ha        1 071      0.138000
     48 H26        -1.2530   -5.5640    0.5240 h1        1 071      0.045033
     49 H26A       -2.4670   -4.7750    1.6580 h1        1 071      0.045033
     50 H26B       -2.9640   -5.2140   -0.0550 h1        1 071      0.045033
     51 H31        -6.9280    0.0910    0.1350 h1        1 071      0.043700
     52 H31A       -6.0040    0.4880    1.6620 h1        1 071      0.043700
     53 H32        -7.9360    2.0440    1.0930 h1        1 071      0.038950
     54 H32A       -6.3320    2.8540    1.4060 h1        1 071      0.038950
     55 H34        -5.9960    3.1970   -2.4060 h1        1 071      0.038950
     56 H34A       -5.0560    3.6220   -0.9020 h1        1 071      0.038950
     57 H35        -4.0500    1.6600   -1.8480 h1        1 071      0.043700
     58 H35A       -5.6540    0.8380   -2.1280 h1        1 071      0.043700
     59 H36        -7.0650    4.8880    0.0400 h1        1 071      0.033033
     60 H36A       -7.8150    4.5280   -1.5830 h1        1 071      0.033033
     61 H36B       -8.6660    4.0210   -0.0510 h1        1 071      0.033033
@<TRIPOS>BOND
     1    1    2 ar  
     2    1    4 ar  
     3    2    3 ar  
     4    2   18 1   
     5    3    6 ar  
     6    4    5 ar  
     7    4   34 1   
     8    5    6 ar  
     9    5    8 1   
    10    6   10 1   
    11    7    8 1   
    12    7    9 1   
    13    7   35 1   
    14    7   36 1   
    15    8   37 1   
    16    8   38 1   
    17    9   10 2   
    18    9   13 1   
    19   10   11 1   
    20   11   12 1   
    21   11   17 1   
    22   12   13 2   
    23   13   14 1   
    24   14   15 1   
    25   14   16 2   
    26   15   39 1   
    27   15   40 1   
    28   17   41 1   
    29   17   42 1   
    30   17   43 1   
    31   18   19 1   
    32   18   44 1   
    33   19   20 ar  
    34   19   24 ar  
    35   20   21 ar  
    36   20   45 1   
    37   21   22 ar  
    38   21   27 1   
    39   22   23 ar  
    40   22   46 1   
    41   23   24 ar  
    42   23   47 1   
    43   24   25 1   
    44   25   26 1   
    45   26   48 1   
    46   26   49 1   
    47   26   50 1   
    48   27   28 1   
    49   27   32 1   
    50   28   29 1   
    51   28   51 1   
    52   28   52 1   
    53   29   30 1   
    54   29   53 1   
    55   29   54 1   
    56   30   31 1   
    57   30   33 1   
    58   31   32 1   
    59   31   55 1   
    60   31   56 1   
    61   32   57 1   
    62   32   58 1   
    63   33   59 1   
    64   33   60 1   
    65   33   61 1   
@<TRIPOS>SUBSTRUCTURE
     1 071         1 TEMP              0 ****  ****    0 ROOT
