@<TRIPOS>MOLECULE
072
   89    92     1     0     0
SMALL
bcc


@<TRIPOS>ATOM
      1 S1B         1.8430   -0.1420    1.4570 ss        1 072     -0.322200
      2 C1A        -0.2050   -1.4900    0.4330 c         1 072      0.696500
      3 C1B         0.3380   -1.0420    1.7860 c3        1 072     -0.058600
      4 O1A        -1.2950   -2.0730    0.3090 o         1 072     -0.617500
      5 C1C        -0.6810   -0.1970    2.5180 c3        1 072     -0.136400
      6 C1D        -0.6890   -0.4710    4.0120 c         1 072      0.669100
      7 O1D         0.1200   -1.2660    4.5350 o         1 072     -0.616100
      8 C2A         1.8330   -0.4590   -0.3450 c3        1 072      0.203800
      9 C2B         3.1400   -1.1440   -0.7350 c3        1 072     -0.083400
     10 C2C         4.3120   -0.2160   -0.4870 c3        1 072     -0.083400
     11 C2D         5.6220   -0.9020   -0.8130 c3        1 072     -0.076400
     12 C2E         6.7960    0.0240   -0.5800 c3        1 072     -0.079400
     13 C2F         8.1070   -0.6610   -0.9040 c3        1 072     -0.079400
     14 C2G         9.2830    0.2640   -0.6720 c3        1 072     -0.080400
     15 C2H        10.5900   -0.4130   -0.9930 c3        1 072     -0.092100
     16 N3A         0.6370   -1.2150   -0.6380 n         1 072     -0.468800
     17 C3B         0.2140   -1.3820   -2.0090 c3        1 072      0.096000
     18 C3C        -0.3270   -0.1210   -2.6840 c3        1 072     -0.104400
     19 C3D        -0.6160   -0.4040   -4.1430 c3        1 072     -0.077400
     20 C3E        -1.1640    0.8290   -4.8380 c3        1 072     -0.019100
     21 C3F        -1.3880    0.5840   -6.2880 ca        1 072     -0.123300
     22 C3G        -2.4940   -0.1610   -6.7150 ca        1 072     -0.155500
     23 C3H        -0.5040    1.1010   -7.2410 ca        1 072     -0.155500
     24 C3I        -2.7070   -0.3870   -8.0730 ca        1 072     -0.108500
     25 C3J        -0.7210    0.8730   -8.5990 ca        1 072     -0.108500
     26 C3K        -1.8230    0.1270   -9.0270 ca        1 072     -0.119600
     27 C3L        -2.0560   -0.1220  -10.5100 c         1 072      0.906200
     28 O3M        -1.2240    0.3610  -11.3290 o         1 072     -0.831300
     29 O3N        -3.0700   -0.7990  -10.8440 o         1 072     -0.831300
     30 N4A        -1.6220    0.1770    4.8110 n         1 072     -0.470800
     31 C4B        -1.6470   -0.0800    6.2360 c3        1 072      0.136800
     32 C4C        -0.8710    0.9120    7.0570 ca        1 072     -0.112300
     33 C4E        -1.5350    1.8870    7.8070 ca        1 072     -0.116000
     34 C4D         0.5260    0.8440    7.0880 ca        1 072     -0.116000
     35 C4G        -0.8060    2.7810    8.5910 ca        1 072     -0.132250
     36 C4F         1.2510    1.7410    7.8700 ca        1 072     -0.132250
     37 C4H         0.5860    2.7090    8.6230 ca        1 072     -0.126000
     38 C5B        -2.5760    1.1390    4.3140 c3        1 072      0.136800
     39 C5C        -4.0000    0.6510    4.2880 ca        1 072     -0.112300
     40 C5D        -4.8650    0.9740    5.3390 ca        1 072     -0.116000
     41 C5E        -4.4760   -0.1010    3.2100 ca        1 072     -0.116000
     42 C5F        -6.1940    0.5540    5.3070 ca        1 072     -0.132250
     43 C5G        -5.8050   -0.5210    3.1810 ca        1 072     -0.132250
     44 C5H        -6.6660   -0.1940    4.2290 ca        1 072     -0.126000
     45 H1B         0.5900   -1.9570    2.3900 h1        1 072      0.140700
     46 H1C1       -0.4570    0.8910    2.3470 hc        1 072      0.089700
     47 H1C2       -1.7060   -0.4220    2.1080 hc        1 072      0.089700
     48 H2A         1.7840    0.5460   -0.8530 h2        1 072      0.078700
     49 H2B1        3.1090   -1.4250   -1.8210 hc        1 072      0.060700
     50 H2B2        3.2710   -2.0890   -0.1460 hc        1 072      0.060700
     51 H2C1        4.3120    0.1090    0.5890 hc        1 072      0.048700
     52 H2C2        4.2050    0.7070   -1.1160 hc        1 072      0.048700
     53 H2D1        5.6140   -1.2390   -1.8840 hc        1 072      0.042700
     54 H2D2        5.7340   -1.8200   -0.1780 hc        1 072      0.042700
     55 H2E1        6.8020    0.3620    0.4900 hc        1 072      0.040200
     56 H2E2        6.6840    0.9410   -1.2160 hc        1 072      0.040200
     57 H2F1        8.1000   -0.9990   -1.9740 hc        1 072      0.040200
     58 H2F2        8.2190   -1.5780   -0.2680 hc        1 072      0.040200
     59 H2G1        9.2870    0.6020    0.3980 hc        1 072      0.038200
     60 H2G2        9.1680    1.1810   -1.3080 hc        1 072      0.038200
     61 H2H1       11.4430    0.2850   -0.8160 hc        1 072      0.031367
     62 H2H2       10.7340   -1.3170   -0.3530 hc        1 072      0.031367
     63 H2H3       10.6150   -0.7360   -2.0620 hc        1 072      0.031367
     64 H3B1        1.0980   -1.7620   -2.5970 h1        1 072      0.068200
     65 H3B2       -0.5890   -2.1750   -2.0230 h1        1 072      0.068200
     66 H3C1       -1.2640    0.2160   -2.1690 hc        1 072      0.042200
     67 H3C2        0.4170    0.7150   -2.6070 hc        1 072      0.042200
     68 H3D1        0.3220   -0.7370   -4.6590 hc        1 072      0.049200
     69 H3D2       -1.3590   -1.2400   -4.2310 hc        1 072      0.049200
     70 H3E1       -2.1320    1.1270   -4.3520 hc        1 072      0.032200
     71 H3E2       -0.4470    1.6820   -4.6980 hc        1 072      0.032200
     72 H3G        -3.1930   -0.5670   -5.9710 ha        1 072      0.103000
     73 H3H         0.3650    1.6900   -6.9160 ha        1 072      0.103000
     74 H3I        -3.5720   -0.9710   -8.4260 ha        1 072      0.151000
     75 H3J        -0.0340    1.2730   -9.3620 ha        1 072      0.151000
     76 H4B1       -2.7270   -0.0800    6.5690 h1        1 072      0.064200
     77 H4B2       -1.2200   -1.1100    6.4230 h1        1 072      0.064200
     78 H4E        -2.6330    1.9480    7.7800 ha        1 072      0.137750
     79 H4D         1.0410    0.0760    6.4850 ha        1 072      0.137750
     80 H4G        -1.3310    3.5450    9.1820 ha        1 072      0.132000
     81 H4F         2.3490    1.6850    7.8910 ha        1 072      0.132000
     82 H4H         1.1590    3.4160    9.2400 ha        1 072      0.130000
     83 H5B1       -2.5220    2.0510    4.9820 h1        1 072      0.064200
     84 H5B2       -2.2920    1.4670    3.2750 h1        1 072      0.064200
     85 H5D        -4.4960    1.5640    6.1910 ha        1 072      0.137750
     86 H5E        -3.8040   -0.3650    2.3790 ha        1 072      0.137750
     87 H5F        -6.8710    0.8140    6.1350 ha        1 072      0.132000
     88 H5G        -6.1730   -1.1130    2.3290 ha        1 072      0.132000
     89 H5H        -7.7140   -0.5250    4.2040 ha        1 072      0.130000
@<TRIPOS>BOND
     1    1    3 1   
     2    1    8 1   
     3    2    3 1   
     4    2    4 2   
     5    2   16 1   
     6    3    5 1   
     7    3   45 1   
     8    5    6 1   
     9    5   46 1   
    10    5   47 1   
    11    6    7 2   
    12    6   30 1   
    13    8    9 1   
    14    8   16 1   
    15    8   48 1   
    16    9   10 1   
    17    9   49 1   
    18    9   50 1   
    19   10   11 1   
    20   10   51 1   
    21   10   52 1   
    22   11   12 1   
    23   11   53 1   
    24   11   54 1   
    25   12   13 1   
    26   12   55 1   
    27   12   56 1   
    28   13   14 1   
    29   13   57 1   
    30   13   58 1   
    31   14   15 1   
    32   14   59 1   
    33   14   60 1   
    34   15   61 1   
    35   15   62 1   
    36   15   63 1   
    37   16   17 1   
    38   17   18 1   
    39   17   64 1   
    40   17   65 1   
    41   18   19 1   
    42   18   66 1   
    43   18   67 1   
    44   19   20 1   
    45   19   68 1   
    46   19   69 1   
    47   20   21 1   
    48   20   70 1   
    49   20   71 1   
    50   21   22 ar  
    51   21   23 ar  
    52   22   24 ar  
    53   22   72 1   
    54   23   25 ar  
    55   23   73 1   
    56   24   26 ar  
    57   24   74 1   
    58   25   26 ar  
    59   25   75 1   
    60   26   27 1   
    61   27   28 1   
    62   27   29 1   
    63   30   31 1   
    64   30   38 1   
    65   31   32 1   
    66   31   76 1   
    67   31   77 1   
    68   32   33 ar  
    69   32   34 ar  
    70   33   35 ar  
    71   33   78 1   
    72   34   36 ar  
    73   34   79 1   
    74   35   37 ar  
    75   35   80 1   
    76   36   37 ar  
    77   36   81 1   
    78   37   82 1   
    79   38   39 1   
    80   38   83 1   
    81   38   84 1   
    82   39   40 ar  
    83   39   41 ar  
    84   40   42 ar  
    85   40   85 1   
    86   41   43 ar  
    87   41   86 1   
    88   42   44 ar  
    89   42   87 1   
    90   43   44 ar  
    91   43   88 1   
    92   44   89 1   
@<TRIPOS>SUBSTRUCTURE
     1 072         1 TEMP              0 ****  ****    0 ROOT
