@<TRIPOS>MOLECULE
072
   90    93     1     0     0
SMALL
bcc


@<TRIPOS>ATOM
      1 S1B        -0.7800    0.9050    0.9210 ss        1 072     -0.291200
      2 C1A         1.2600    0.0150    2.3740 c         1 072      0.706500
      3 C1B         0.9530    0.5050    0.9590 c3        1 072     -0.069600
      4 O1A         2.4060   -0.3140    2.7250 o         1 072     -0.620500
      5 C1C         1.8310    1.6780    0.5760 c3        1 072     -0.152400
      6 C1D         2.6120    1.3870   -0.6690 c         1 072      0.575100
      7 O1D         2.4210    0.4800   -1.4760 o         1 072     -0.484100
      8 C2A        -1.1050    0.3930    2.6480 c3        1 072      0.202800
      9 C2B        -2.2360   -0.6320    2.6600 c3        1 072     -0.085400
     10 C2C        -3.5180   -0.0050    2.1520 c3        1 072     -0.083400
     11 C2D        -4.6340   -1.0260    2.0980 c3        1 072     -0.076400
     12 C2E        -5.9220   -0.4010    1.6060 c3        1 072     -0.079400
     13 C2F        -7.0390   -1.4200    1.5480 c3        1 072     -0.079400
     14 C2G        -8.3290   -0.7970    1.0590 c3        1 072     -0.080400
     15 C2H        -9.4440   -1.8080    0.9980 c3        1 072     -0.093100
     16 N3A         0.1470   -0.0710    3.1990 n         1 072     -0.465800
     17 C3B         0.2450   -0.4460    4.5910 c3        1 072      0.106000
     18 C3C        -0.3510    0.5520    5.5920 c3        1 072     -0.104400
     19 C3D         0.5390    0.7640    6.8040 c3        1 072     -0.070400
     20 C3E         0.6790    2.2360    7.1740 c3        1 072     -0.034100
     21 C3F         1.2520    3.0090    6.0380 ca        1 072     -0.085300
     22 C3G         0.4260    3.8110    5.2400 ca        1 072     -0.151500
     23 C3H         2.5970    2.8460    5.6870 ca        1 072     -0.151500
     24 C3I         0.9000    4.3210    4.0340 ca        1 072     -0.093500
     25 C3J         3.0740    3.3660    4.4860 ca        1 072     -0.093500
     26 C3K         2.2080    4.0450    3.6230 ca        1 072     -0.142600
     27 C3L         2.6320    4.3410    2.2210 c         1 072      0.910200
     28 O3M         3.8570    4.2560    1.8840 o         1 072     -0.870300
     29 O3N         1.7480    4.5550    1.3310 o         1 072     -0.870300
     30 N4A         3.7870    2.2740   -1.0090 n4        1 072     -0.574200
     31 C4B         3.4130    3.7190   -1.1610 c3        1 072      0.134100
     32 C4C         2.3810    3.9430   -2.2120 ca        1 072     -0.154300
     33 C4E         1.1470    4.4910   -1.8400 ca        1 072     -0.103250
     34 C4D         2.6520    3.6760   -3.5590 ca        1 072     -0.103250
     35 C4G         0.1890    4.7610   -2.8180 ca        1 072     -0.134750
     36 C4F         1.6880    3.9410   -4.5290 ca        1 072     -0.134750
     37 C4H         0.4560    4.4820   -4.1580 ca        1 072     -0.105500
     38 C5B         4.8750    2.0930    0.0140 c3        1 072      0.134100
     39 C5C         6.1680    2.6920   -0.4270 ca        1 072     -0.154300
     40 C5D         6.5610    3.9270    0.1030 ca        1 072     -0.103250
     41 C5E         6.9990    2.0110   -1.3230 ca        1 072     -0.103250
     42 C5F         7.7900    4.4730   -0.2680 ca        1 072     -0.134750
     43 C5G         8.2230    2.5660   -1.6900 ca        1 072     -0.134750
     44 C5H         8.6180    3.7960   -1.1620 ca        1 072     -0.105500
     45 H1B         1.1210   -0.3640    0.2650 h1        1 072      0.121700
     46 H1C1        2.5340    1.9450    1.4210 hc        1 072      0.159200
     47 H1C2        1.2140    2.6200    0.4070 hc        1 072      0.159200
     48 H2A        -1.4460    1.3180    3.1950 h2        1 072      0.088700
     49 H2B1       -1.9660   -1.5160    2.0250 hc        1 072      0.058200
     50 H2B2       -2.3870   -1.0030    3.7090 hc        1 072      0.058200
     51 H2C1       -3.8170    0.8440    2.8220 hc        1 072      0.050700
     52 H2C2       -3.3460    0.4230    1.1270 hc        1 072      0.050700
     53 H2D1       -4.7940   -1.4640    3.1180 hc        1 072      0.041200
     54 H2D2       -4.3410   -1.8680    1.4170 hc        1 072      0.041200
     55 H2E1       -5.7610    0.0400    0.5870 hc        1 072      0.041700
     56 H2E2       -6.2160    0.4410    2.2870 hc        1 072      0.041700
     57 H2F1       -6.7460   -2.2610    0.8660 hc        1 072      0.039700
     58 H2F2       -7.1990   -1.8620    2.5670 hc        1 072      0.039700
     59 H2G1       -8.6200    0.0450    1.7420 hc        1 072      0.038700
     60 H2G2       -8.1660   -0.3530    0.0410 hc        1 072      0.038700
     61 H2H1       -9.6370   -2.2440    2.0090 hc        1 072      0.033033
     62 H2H2      -10.3850   -1.3280    0.6360 hc        1 072      0.033033
     63 H2H3       -9.1830   -2.6420    0.3030 hc        1 072      0.033033
     64 H3B1       -0.2840   -1.4360    4.7130 h1        1 072      0.062700
     65 H3B2        1.3410   -0.6120    4.8110 h1        1 072      0.062700
     66 H3C1       -0.5370    1.5440    5.0980 hc        1 072      0.053200
     67 H3C2       -1.3510    0.1680    5.9230 hc        1 072      0.053200
     68 H3D1        1.5660    0.3520    6.6190 hc        1 072      0.042700
     69 H3D2        0.1150    0.2110    7.6820 hc        1 072      0.042700
     70 H3E1        1.3460    2.3210    8.0730 hc        1 072      0.046200
     71 H3E2       -0.3250    2.6480    7.4590 hc        1 072      0.046200
     72 H3G        -0.6110    4.0090    5.5500 ha        1 072      0.123500
     73 H3H         3.2660    2.2720    6.3440 ha        1 072      0.123500
     74 H3I         0.2460    4.9070    3.3690 ha        1 072      0.149000
     75 H3J         4.1220    3.2210    4.1830 ha        1 072      0.149000
     76 H4B1        3.0620    4.1170   -0.1440 hx        1 072      0.142700
     77 H4B2        4.3650    4.2670   -1.4240 hx        1 072      0.142700
     78 H4E         0.9490    4.7210   -0.7740 ha        1 072      0.161500
     79 H4D         3.6290    3.2690   -3.8580 ha        1 072      0.161500
     80 H4G        -0.7780    5.1950   -2.5260 ha        1 072      0.141000
     81 H4F         1.9000    3.7280   -5.5870 ha        1 072      0.141000
     82 H4H        -0.3040    4.6930   -4.9260 ha        1 072      0.137000
     83 H5B1        4.5310    2.5870    0.9820 hx        1 072      0.142700
     84 H5B2        4.9920    0.9840    0.1780 hx        1 072      0.142700
     85 H5D         5.8940    4.4520    0.8160 ha        1 072      0.161500
     86 H5E         6.6960    1.0330   -1.7270 ha        1 072      0.161500
     87 H5F         8.1030    5.4410    0.1520 ha        1 072      0.141000
     88 H5G         8.8800    2.0310   -2.3920 ha        1 072      0.141000
     89 H5H         9.5880    4.2300   -1.4510 ha        1 072      0.137000
     90 H4A1        4.1510    1.9530   -1.9190 hn        1 072      0.427800
@<TRIPOS>BOND
     1    1    3 1   
     2    1    8 1   
     3    2    3 1   
     4    2    4 2   
     5    2   16 1   
     6    3    5 1   
     7    3   45 1   
     8    5    6 1   
     9    5   46 1   
    10    5   47 1   
    11    6    7 2   
    12    6   30 1   
    13    8    9 1   
    14    8   16 1   
    15    8   48 1   
    16    9   10 1   
    17    9   49 1   
    18    9   50 1   
    19   10   11 1   
    20   10   51 1   
    21   10   52 1   
    22   11   12 1   
    23   11   53 1   
    24   11   54 1   
    25   12   13 1   
    26   12   55 1   
    27   12   56 1   
    28   13   14 1   
    29   13   57 1   
    30   13   58 1   
    31   14   15 1   
    32   14   59 1   
    33   14   60 1   
    34   15   61 1   
    35   15   62 1   
    36   15   63 1   
    37   16   17 1   
    38   17   18 1   
    39   17   64 1   
    40   17   65 1   
    41   18   19 1   
    42   18   66 1   
    43   18   67 1   
    44   19   20 1   
    45   19   68 1   
    46   19   69 1   
    47   20   21 1   
    48   20   70 1   
    49   20   71 1   
    50   21   22 ar  
    51   21   23 ar  
    52   22   24 ar  
    53   22   72 1   
    54   23   25 ar  
    55   23   73 1   
    56   24   26 ar  
    57   24   74 1   
    58   25   26 ar  
    59   25   75 1   
    60   26   27 1   
    61   27   28 1   
    62   27   29 1   
    63   30   31 1   
    64   30   38 1   
    65   30   90 1   
    66   31   32 1   
    67   31   76 1   
    68   31   77 1   
    69   32   33 ar  
    70   32   34 ar  
    71   33   35 ar  
    72   33   78 1   
    73   34   36 ar  
    74   34   79 1   
    75   35   37 ar  
    76   35   80 1   
    77   36   37 ar  
    78   36   81 1   
    79   37   82 1   
    80   38   39 1   
    81   38   83 1   
    82   38   84 1   
    83   39   40 ar  
    84   39   41 ar  
    85   40   42 ar  
    86   40   85 1   
    87   41   43 ar  
    88   41   86 1   
    89   42   44 ar  
    90   42   87 1   
    91   43   44 ar  
    92   43   88 1   
    93   44   89 1   
@<TRIPOS>SUBSTRUCTURE
     1 072         1 TEMP              0 ****  ****    0 ROOT
