@<TRIPOS>MOLECULE
072
   89    85     1     0     0
SMALL
bcc


@<TRIPOS>ATOM
      1 S1B        -1.5110   -0.6820   -1.5600 ss        1 072      0.034000
      2 C1A         0.3360   -0.7060    0.1230 c1        1 072      0.305000
      3 C1B         0.0290   -0.6800   -1.5160 c2        1 072     -0.232000
      4 O1A         1.3080   -1.2170    0.6630 o         1 072     -0.342000
      5 C1C         0.7050    0.5640   -2.2970 c3        1 072     -0.160000
      6 C1D         1.3580    0.0630   -3.5860 c2        1 072      0.312000
      7 O1D         0.8010   -0.7770   -4.2560 o         1 072     -0.378000
      8 C2A        -1.9700    0.0710   -0.1350 c3        1 072     -0.047000
      9 C2B        -2.9660   -0.7050    0.5380 c3        1 072     -0.172000
     10 C2C        -4.1830   -0.8570   -0.3610 c3        1 072     -0.160000
     11 C2D        -5.2600   -1.6140    0.3830 c3        1 072     -0.157000
     12 C2E        -6.4620   -1.8670   -0.5550 c3        1 072     -0.157000
     13 C2F        -7.5820   -2.6230    0.2310 c3        1 072     -0.159000
     14 C2G        -8.8120   -2.8710   -0.7180 c3        1 072     -0.158000
     15 C2H        -9.8150   -3.7700   -0.0250 c3        1 072     -0.210000
     16 N3A        -0.6320    0.1730    0.7610 n3        1 072     -0.331000
     17 C3B        -0.5510    0.6820    2.0920 c3        1 072     -0.013000
     18 C3C         0.6370    0.0090    2.8360 c3        1 072     -0.186000
     19 C3D         0.6740    0.5110    4.2940 c3        1 072     -0.156000
     20 C3E         1.3370   -0.5640    5.2040 c3        1 072     -0.105000
     21 C3F         1.1500   -0.1650    6.6870 c2        1 072     -0.115000
     22 C3G         2.1510    0.5690    7.3400 c2        1 072     -0.153000
     23 C3H         0.0580   -0.6560    7.4120 c1        1 072     -0.158000
     24 C3I         2.0570    0.8110    8.7140 c1        1 072     -0.109000
     25 C3J        -0.0340   -0.4130    8.7840 c1        1 072     -0.108000
     26 C3K         0.9730    0.3240    9.4360 c1        1 072     -0.100000
     27 C3L         0.8770    0.5910   10.9660 c2        1 072      0.355000
     28 O3M         1.3650   -0.2500   11.7860 o         1 072     -0.566500
     29 O3N         0.4350    1.7170   11.3920 o         1 072     -0.566500
     30 N4A         2.5980    0.7340   -4.1070 n         1 072     -0.327000
     31 C4B         3.0300    0.4880   -5.4520 c3        1 072      0.015500
     32 C4C         3.1030    1.8030   -6.2110 c2        1 072     -0.108500
     33 C4E         4.1660    2.6470   -6.0190 c2        1 072     -0.118500
     34 C4D         2.0980    2.1290   -7.1650 c1        1 072     -0.119000
     35 C4G         4.2640    3.8380   -6.7640 c1        1 072     -0.129500
     36 C4F         2.1950    3.3080   -7.9030 c1        1 072     -0.131750
     37 C4H         3.2730    4.1640   -7.7070 c1        1 072     -0.131750
     38 C5B         3.4340    1.5670   -3.1920 c3        1 072      0.015500
     39 C5C         4.8070    0.9000   -2.9970 c2        1 072     -0.108500
     40 C5D         5.0330   -0.3810   -3.4760 c2        1 072     -0.118500
     41 C5E         5.8490    1.6020   -2.3220 c1        1 072     -0.119000
     42 C5F         6.2900   -0.9880   -3.2960 c1        1 072     -0.129500
     43 C5G         7.0930    1.0010   -2.1430 c1        1 072     -0.131750
     44 C5H         7.3220   -0.2890   -2.6260 c1        1 072     -0.131750
     45 H1B         0.4280   -1.4690   -1.9900 h4        1 072      0.184000
     46 H1C1       -0.0030    1.2420   -2.5200 hc        1 072      0.126500
     47 H1C2        1.3580    0.9620   -1.7480 hc        1 072      0.126500
     48 H2A        -2.3240    0.9910   -0.3280 h2        1 072      0.117000
     49 H2B1       -2.6040   -1.5890    0.7500 hc        1 072      0.104000
     50 H2B2       -3.2340   -0.2450    1.3830 hc        1 072      0.104000
     51 H2C1       -3.9400   -1.3340   -1.1400 hc        1 072      0.086500
     52 H2C2       -4.5280    0.0540   -0.6190 hc        1 072      0.086500
     53 H2D1       -5.5470   -1.0980    1.1370 hc        1 072      0.085000
     54 H2D2       -4.9080   -2.4550    0.6860 hc        1 072      0.085000
     55 H2E1       -6.8030   -1.0350   -0.8680 hc        1 072      0.078000
     56 H2E2       -6.1710   -2.4150   -1.3240 hc        1 072      0.078000
     57 H2F1       -7.2320   -3.4910    0.5520 hc        1 072      0.081500
     58 H2F2       -7.8640   -2.0820    0.9950 hc        1 072      0.081500
     59 H2G1       -8.5050   -3.3000   -1.5450 hc        1 072      0.076000
     60 H2G2       -9.2350   -2.0190   -0.9310 hc        1 072      0.076000
     61 H2H1      -10.4570   -4.1290   -0.6960 hc        1 072      0.071333
     62 H2H2       -9.3510   -4.5050    0.4010 hc        1 072      0.071333
     63 H2H3      -10.3130   -3.2440    0.6640 hc        1 072      0.071333
     64 H3B1       -1.3680    0.4920    2.5560 h1        1 072      0.101000
     65 H3B2       -0.4140    1.6240    2.0640 h1        1 072      0.101000
     66 H3C1        0.5170   -0.9910    2.8270 hc        1 072      0.087500
     67 H3C2        1.4960    0.2470    2.3790 hc        1 072      0.087500
     68 H3D1        1.1990    1.3500    4.3410 hc        1 072      0.086000
     69 H3D2       -0.2400    0.6810    4.6040 hc        1 072      0.086000
     70 H3E1        0.9060   -1.4560    5.0390 hc        1 072      0.073000
     71 H3E2        2.2980   -0.6210    4.9990 hc        1 072      0.073000
     72 H3G         2.9660    0.8410    6.8460 ha        1 072      0.105000
     73 H3H        -0.6670   -1.1870    6.9400 ha        1 072      0.101000
     74 H3I         2.7500    1.3190    9.1650 ha        1 072      0.151000
     75 H3J        -0.8100   -0.7620    9.3010 ha        1 072      0.150000
     76 H4B1        2.4130   -0.0860   -5.8790 h1        1 072      0.103500
     77 H4B2        3.9570    0.0450   -5.4400 h1        1 072      0.103500
     78 H4E         4.8740    2.4150   -5.3490 ha        1 072      0.145000
     79 H4D         1.3210    1.5140   -7.3040 ha        1 072      0.141500
     80 H4G         5.0000    4.4220   -6.6290 ha        1 072      0.136000
     81 H4F         1.5530    3.4870   -8.6240 ha        1 072      0.129500
     82 H4H         3.4100    4.9640   -8.3360 ha        1 072      0.129500
     83 H5B1        3.5570    2.4440   -3.5750 h1        1 072      0.103500
     84 H5B2        2.9760    1.6520   -2.3070 h1        1 072      0.103500
     85 H5D         4.3240   -0.8590   -3.9360 ha        1 072      0.145000
     86 H5E         5.6780    2.4990   -1.9500 ha        1 072      0.141500
     87 H5F         6.4490   -1.8860   -3.6320 ha        1 072      0.136000
     88 H5G         7.8450    1.5080   -1.6560 ha        1 072      0.129500
     89 H5H         8.2160   -0.6880   -2.5530 ha        1 072      0.129500
@<TRIPOS>BOND
     1    1    3 1   
     2    1    8 1   
     3    2    4 1   
     4    2   16 1   
     5    3    5 1   
     6    3   45 1   
     7    5    6 1   
     8    5   46 1   
     9    5   47 1   
    10    6    7 1   
    11    6   30 1   
    12    8    9 1   
    13    8   16 1   
    14    8   48 1   
    15    9   10 1   
    16    9   49 1   
    17    9   50 1   
    18   10   11 1   
    19   10   51 1   
    20   10   52 1   
    21   11   12 1   
    22   11   53 1   
    23   11   54 1   
    24   12   13 1   
    25   12   55 1   
    26   12   56 1   
    27   13   14 1   
    28   13   57 1   
    29   13   58 1   
    30   14   15 1   
    31   14   59 1   
    32   14   60 1   
    33   15   61 1   
    34   15   62 1   
    35   15   63 1   
    36   16   17 1   
    37   17   18 1   
    38   17   64 1   
    39   17   65 1   
    40   18   19 1   
    41   18   66 1   
    42   18   67 1   
    43   19   20 1   
    44   19   68 1   
    45   19   69 1   
    46   20   21 1   
    47   20   70 1   
    48   20   71 1   
    49   21   22 1   
    50   21   23 1   
    51   22   24 1   
    52   22   72 1   
    53   23   73 1   
    54   24   74 1   
    55   25   26 1   
    56   25   75 1   
    57   26   27 1   
    58   27   28 1   
    59   27   29 1   
    60   30   31 1   
    61   30   38 1   
    62   31   32 1   
    63   31   76 1   
    64   31   77 1   
    65   32   33 1   
    66   32   34 1   
    67   33   35 1   
    68   33   78 1   
    69   34   79 1   
    70   35   80 1   
    71   36   37 1   
    72   36   81 1   
    73   37   82 1   
    74   38   39 1   
    75   38   83 1   
    76   38   84 1   
    77   39   40 1   
    78   39   41 1   
    79   40   42 1   
    80   40   85 1   
    81   41   86 1   
    82   42   87 1   
    83   43   44 1   
    84   43   88 1   
    85   44   89 1   
@<TRIPOS>SUBSTRUCTURE
     1 072         1 TEMP              0 ****  ****    0 ROOT
