@<TRIPOS>MOLECULE
072
   90    93     1     0     0
SMALL
bcc


@<TRIPOS>ATOM
      1 S1B        -0.7900    0.9000    0.9590 ss        1 072     -0.291200
      2 C1A         1.2890    0.0270    2.3660 c         1 072      0.706500
      3 C1B         0.9440    0.5050    0.9560 c3        1 072     -0.069600
      4 O1A         2.4450   -0.2950    2.6890 o         1 072     -0.620500
      5 C1C         1.8080    1.6790    0.5420 c3        1 072     -0.152400
      6 C1D         2.5560    1.3830   -0.7220 c         1 072      0.575100
      7 O1D         2.3470    0.4710   -1.5180 o         1 072     -0.484100
      8 C2A        -1.0700    0.3950    2.6960 c3        1 072      0.202800
      9 C2B        -2.1950   -0.6350    2.7410 c3        1 072     -0.085400
     10 C2C        -3.4930   -0.0180    2.2640 c3        1 072     -0.083400
     11 C2D        -4.6040   -1.0450    2.2420 c3        1 072     -0.076400
     12 C2E        -5.9080   -0.4290    1.7800 c3        1 072     -0.079400
     13 C2F        -7.0200   -1.4550    1.7560 c3        1 072     -0.079400
     14 C2G        -8.3250   -0.8410    1.2950 c3        1 072     -0.080400
     15 C2H        -9.4360   -1.8590    1.2690 c3        1 072     -0.093100
     16 N3A         0.1970   -0.0600    3.2180 n         1 072     -0.465800
     17 C3B         0.3330   -0.4220    4.6110 c3        1 072      0.106000
     18 C3C        -0.2420    0.5810    5.6180 c3        1 072     -0.104400
     19 C3D         0.6760    0.8040    6.8070 c3        1 072     -0.070400
     20 C3E         0.8210    2.2790    7.1640 c3        1 072     -0.034100
     21 C3F         1.3630    3.0460    6.0080 ca        1 072     -0.085300
     22 C3G         0.5150    3.8410    5.2260 ca        1 072     -0.151500
     23 C3H         2.6990    2.8830    5.6240 ca        1 072     -0.151500
     24 C3I         0.9570    4.3440    4.0050 ca        1 072     -0.093500
     25 C3J         3.1440    3.3960    4.4080 ca        1 072     -0.093500
     26 C3K         2.2550    4.0680    3.5630 ca        1 072     -0.142600
     27 C3L         2.6420    4.3550    2.1490 c         1 072      0.910200
     28 O3M         3.8580    4.2710    1.7810 o         1 072     -0.870300
     29 O3N         1.7350    4.5610    1.2800 o         1 072     -0.870300
     30 N4A         3.7200    2.2710   -1.0980 nx        1 072     -0.574200
     31 C4B         3.3370    3.7150   -1.2490 c3        1 072      0.134100
     32 C4C         2.2770    3.9290   -2.2740 ca        1 072     -0.154300
     33 C4E         1.0520    4.4760   -1.8730 ca        1 072     -0.103250
     34 C4D         2.5140    3.6540   -3.6260 ca        1 072     -0.103250
     35 C4G         0.0680    4.7360   -2.8280 ca        1 072     -0.134750
     36 C4F         1.5240    3.9100   -4.5720 ca        1 072     -0.134750
     37 C4H         0.3000    4.4500   -4.1720 ca        1 072     -0.105500
     38 C5B         4.8340    2.1000   -0.1020 c3        1 072      0.134100
     39 C5C         6.1130    2.7000   -0.5810 ca        1 072     -0.154300
     40 C5D         6.5160    3.9390   -0.0680 ca        1 072     -0.103250
     41 C5E         6.9230    2.0160   -1.4940 ca        1 072     -0.103250
     42 C5F         7.7330    4.4870   -0.4740 ca        1 072     -0.134750
     43 C5G         8.1360    2.5720   -1.8960 ca        1 072     -0.134750
     44 C5H         8.5400    3.8080   -1.3850 ca        1 072     -0.105500
     45 H1B         1.0970   -0.3680    0.2630 h1        1 072      0.121700
     46 H1C1        1.1840    2.6190    0.3830 hc        1 072      0.159200
     47 H1C2        2.5320    1.9530    1.3660 hc        1 072      0.159200
     48 H2A        -1.4020    1.3210    3.2470 h2        1 072      0.088700
     49 H2B1       -1.9360   -1.5210    2.1050 hc        1 072      0.058200
     50 H2B2       -2.3170   -1.0020    3.7960 hc        1 072      0.058200
     51 H2C1       -3.7800    0.8330    2.9370 hc        1 072      0.050700
     52 H2C2       -3.3490    0.4060    1.2320 hc        1 072      0.050700
     53 H2D1       -4.7350   -1.4800    3.2680 hc        1 072      0.041200
     54 H2D2       -4.3240   -1.8890    1.5570 hc        1 072      0.041200
     55 H2E1       -6.1890    0.4140    2.4650 hc        1 072      0.041700
     56 H2E2       -5.7750    0.0070    0.7550 hc        1 072      0.041700
     57 H2F1       -7.1520   -1.8930    2.7800 hc        1 072      0.039700
     58 H2F2       -6.7400   -2.2980    1.0700 hc        1 072      0.039700
     59 H2G1       -8.1910   -0.4030    0.2710 hc        1 072      0.038700
     60 H2G2       -8.6030    0.0030    1.9810 hc        1 072      0.038700
     61 H2H1       -9.1880   -2.6960    0.5720 hc        1 072      0.033033
     62 H2H2      -10.3880   -1.3850    0.9270 hc        1 072      0.033033
     63 H2H3       -9.6020   -2.2890    2.2870 hc        1 072      0.033033
     64 H3B1        1.4340   -0.5810    4.8040 h1        1 072      0.062700
     65 H3B2       -0.1890   -1.4130    4.7540 h1        1 072      0.062700
     66 H3C1       -1.2340    0.1980    5.9760 hc        1 072      0.053200
     67 H3C2       -0.4420    1.5690    5.1210 hc        1 072      0.053200
     68 H3D1        1.7000    0.3930    6.6000 hc        1 072      0.042700
     69 H3D2        0.2740    0.2560    7.6990 hc        1 072      0.042700
     70 H3E1        1.5100    2.3720    8.0450 hc        1 072      0.046200
     71 H3E2       -0.1770    2.6910    7.4710 hc        1 072      0.046200
     72 H3G        -0.5130    4.0380    5.5620 ha        1 072      0.123500
     73 H3H         3.3860    2.3160    6.2680 ha        1 072      0.123500
     74 H3I         0.2850    4.9240    3.3540 ha        1 072      0.149000
     75 H3J         4.1850    3.2510    4.0790 ha        1 072      0.149000
     76 H4B1        3.0120    4.1170   -0.2250 hx        1 072      0.142700
     77 H4B2        4.2810    4.2640   -1.5400 hx        1 072      0.142700
     78 H4E         0.8810    4.7120   -0.8030 ha        1 072      0.161500
     79 H4D         3.4840    3.2470   -3.9480 ha        1 072      0.161500
     80 H4G        -0.8930    5.1700   -2.5130 ha        1 072      0.141000
     81 H4F         1.7090    3.6910   -5.6340 ha        1 072      0.141000
     82 H4H        -0.4790    4.6540   -4.9220 ha        1 072      0.137000
     83 H5B1        4.5140    2.5990    0.8710 hx        1 072      0.142700
     84 H5B2        4.9600    0.9920    0.0650 hx        1 072      0.142700
     85 H5D         5.8660    4.4670    0.6590 ha        1 072      0.161500
     86 H5E         6.6130    1.0350   -1.8840 ha        1 072      0.161500
     87 H5F         8.0540    5.4590   -0.0680 ha        1 072      0.141000
     88 H5G         8.7760    2.0350   -2.6110 ha        1 072      0.141000
     89 H5H         9.5010    4.2430   -1.7020 ha        1 072      0.137000
     90 H4A1        4.0600    1.9450   -2.0150 hn        1 072      0.427800
@<TRIPOS>BOND
     1    1    3 1   
     2    1    8 1   
     3    2    3 1   
     4    2    4 2   
     5    2   16 1   
     6    3    5 1   
     7    3   45 1   
     8    5    6 1   
     9    5   46 1   
    10    5   47 1   
    11    6    7 2   
    12    6   30 1   
    13    8    9 1   
    14    8   16 1   
    15    8   48 1   
    16    9   10 1   
    17    9   49 1   
    18    9   50 1   
    19   10   11 1   
    20   10   51 1   
    21   10   52 1   
    22   11   12 1   
    23   11   53 1   
    24   11   54 1   
    25   12   13 1   
    26   12   55 1   
    27   12   56 1   
    28   13   14 1   
    29   13   57 1   
    30   13   58 1   
    31   14   15 1   
    32   14   59 1   
    33   14   60 1   
    34   15   61 1   
    35   15   62 1   
    36   15   63 1   
    37   16   17 1   
    38   17   18 1   
    39   17   64 1   
    40   17   65 1   
    41   18   19 1   
    42   18   66 1   
    43   18   67 1   
    44   19   20 1   
    45   19   68 1   
    46   19   69 1   
    47   20   21 1   
    48   20   70 1   
    49   20   71 1   
    50   21   22 ar  
    51   21   23 ar  
    52   22   24 ar  
    53   22   72 1   
    54   23   25 ar  
    55   23   73 1   
    56   24   26 ar  
    57   24   74 1   
    58   25   26 ar  
    59   25   75 1   
    60   26   27 1   
    61   27   28 1   
    62   27   29 1   
    63   30   31 1   
    64   30   38 1   
    65   30   90 1   
    66   31   32 1   
    67   31   76 1   
    68   31   77 1   
    69   32   33 ar  
    70   32   34 ar  
    71   33   35 ar  
    72   33   78 1   
    73   34   36 ar  
    74   34   79 1   
    75   35   37 ar  
    76   35   80 1   
    77   36   37 ar  
    78   36   81 1   
    79   37   82 1   
    80   38   39 1   
    81   38   83 1   
    82   38   84 1   
    83   39   40 ar  
    84   39   41 ar  
    85   40   42 ar  
    86   40   85 1   
    87   41   43 ar  
    88   41   86 1   
    89   42   44 ar  
    90   42   87 1   
    91   43   44 ar  
    92   43   88 1   
    93   44   89 1   
@<TRIPOS>SUBSTRUCTURE
     1 072         1 TEMP              0 ****  ****    0 ROOT
