@<TRIPOS>MOLECULE
072
   90    93     1     0     0
SMALL
bcc


@<TRIPOS>ATOM
      1 S1B        -0.8020    0.9190    0.9600 ss        1 072     -0.291200
      2 C1A         1.2550    0.0210    2.3840 c         1 072      0.706500
      3 C1B         0.9250    0.4940    0.9680 c3        1 072     -0.069600
      4 O1A         2.4030   -0.3190    2.7150 o         1 072     -0.620500
      5 C1C         1.8120    1.6480    0.5490 c3        1 072     -0.152400
      6 C1D         2.5610    1.3280   -0.7090 c         1 072      0.575100
      7 O1D         2.3390    0.4130   -1.4980 o         1 072     -0.484100
      8 C2A        -1.0990    0.4340    2.7000 c3        1 072      0.202800
      9 C2B        -2.2420   -0.5760    2.7480 c3        1 072     -0.085400
     10 C2C        -3.5260    0.0600    2.2590 c3        1 072     -0.083400
     11 C2D        -4.6550   -0.9470    2.2390 c3        1 072     -0.076400
     12 C2E        -5.9450   -0.3120    1.7650 c3        1 072     -0.079400
     13 C2F        -7.0760   -1.3180    1.7420 c3        1 072     -0.079400
     14 C2G        -8.3670   -0.6850    1.2690 c3        1 072     -0.080400
     15 C2H        -9.4950   -1.6830    1.2440 c3        1 072     -0.093100
     16 N3A         0.1580   -0.0390    3.2320 n         1 072     -0.465800
     17 C3B         0.2800   -0.3930    4.6280 c3        1 072      0.106000
     18 C3C        -0.2800    0.6300    5.6240 c3        1 072     -0.104400
     19 C3D         0.6370    0.8460    6.8150 c3        1 072     -0.070400
     20 C3E         0.8060    2.3210    7.1600 c3        1 072     -0.034100
     21 C3F         1.3670    3.0690    6.0010 ca        1 072     -0.085300
     22 C3G         0.5370    3.8720    5.2090 ca        1 072     -0.151500
     23 C3H         2.7030    2.8790    5.6240 ca        1 072     -0.151500
     24 C3I         0.9940    4.3570    3.9860 ca        1 072     -0.093500
     25 C3J         3.1620    3.3740    4.4070 ca        1 072     -0.093500
     26 C3K         2.2880    4.0540    3.5520 ca        1 072     -0.142600
     27 C3L         2.6870    4.3220    2.1370 c         1 072      0.910200
     28 O3M         3.9030    4.2140    1.7750 o         1 072     -0.870300
     29 O3N         1.7880    4.5370    1.2620 o         1 072     -0.870300
     30 N4A         3.7420    2.1920   -1.0870 n4        1 072     -0.574200
     31 C4B         3.3860    3.6400   -1.2520 c3        1 072      0.134100
     32 C4C         2.3350    3.8650   -2.2840 ca        1 072     -0.154300
     33 C4E         1.1180    4.4370   -1.8940 ca        1 072     -0.103250
     34 C4D         2.5730    3.5740   -3.6330 ca        1 072     -0.103250
     35 C4G         0.1430    4.7070   -2.8550 ca        1 072     -0.134750
     36 C4F         1.5920    3.8400   -4.5850 ca        1 072     -0.134750
     37 C4H         0.3760    4.4050   -4.1960 ca        1 072     -0.105500
     38 C5B         4.8480    2.0090   -0.0840 c3        1 072      0.134100
     39 C5C         6.1400    2.5810   -0.5620 ca        1 072     -0.154300
     40 C5D         6.5630    3.8170   -0.0580 ca        1 072     -0.103250
     41 C5E         6.9420    1.8750   -1.4660 ca        1 072     -0.103250
     42 C5F         7.7920    4.3400   -0.4630 ca        1 072     -0.134750
     43 C5G         8.1660    2.4060   -1.8660 ca        1 072     -0.134750
     44 C5H         8.5910    3.6380   -1.3650 ca        1 072     -0.105500
     45 H1B         1.0660   -0.3880    0.2840 h1        1 072      0.121700
     46 H1C1        2.5380    1.9160    1.3750 hc        1 072      0.159200
     47 H1C2        1.2060    2.5970    0.3800 hc        1 072      0.159200
     48 H2A        -1.4170    1.3700    3.2410 h2        1 072      0.088700
     49 H2B1       -1.9960   -1.4720    2.1200 hc        1 072      0.058200
     50 H2B2       -2.3760   -0.9320    3.8050 hc        1 072      0.058200
     51 H2C1       -3.8010    0.9210    2.9230 hc        1 072      0.050700
     52 H2C2       -3.3690    0.4730    1.2240 hc        1 072      0.050700
     53 H2D1       -4.8000   -1.3710    3.2680 hc        1 072      0.041200
     54 H2D2       -4.3860   -1.8020    1.5630 hc        1 072      0.041200
     55 H2E1       -5.7990    0.1130    0.7370 hc        1 072      0.041700
     56 H2E2       -6.2150    0.5420    2.4400 hc        1 072      0.041700
     57 H2F1       -6.8060   -2.1720    1.0650 hc        1 072      0.039700
     58 H2F2       -7.2210   -1.7440    2.7700 hc        1 072      0.039700
     59 H2G1       -8.6340    0.1690    1.9450 hc        1 072      0.038700
     60 H2G2       -8.2190   -0.2580    0.2410 hc        1 072      0.038700
     61 H2H1       -9.2580   -2.5300    0.5560 hc        1 072      0.033033
     62 H2H2      -10.4370   -1.1960    0.8930 hc        1 072      0.033033
     63 H2H3       -9.6750   -2.1010    2.2640 hc        1 072      0.033033
     64 H3B1        1.3780   -0.5710    4.8270 h1        1 072      0.062700
     65 H3B2       -0.2610   -1.3730    4.7770 h1        1 072      0.062700
     66 H3C1       -1.2800    0.2680    5.9810 hc        1 072      0.053200
     67 H3C2       -0.4600    1.6170    5.1180 hc        1 072      0.053200
     68 H3D1        0.2220    0.3130    7.7100 hc        1 072      0.042700
     69 H3D2        1.6540    0.4160    6.6160 hc        1 072      0.042700
     70 H3E1        1.4930    2.4090    8.0440 hc        1 072      0.046200
     71 H3E2       -0.1850    2.7530    7.4600 hc        1 072      0.046200
     72 H3G        -0.4890    4.0900    5.5380 ha        1 072      0.123500
     73 H3H         3.3770    2.3050    6.2760 ha        1 072      0.123500
     74 H3I         0.3350    4.9430    3.3260 ha        1 072      0.149000
     75 H3J         4.2010    3.2080    4.0840 ha        1 072      0.149000
     76 H4B1        3.0630    4.0580   -0.2330 hx        1 072      0.142700
     77 H4B2        4.3400    4.1700   -1.5430 hx        1 072      0.142700
     78 H4E         0.9460    4.6860   -0.8270 ha        1 072      0.161500
     79 H4D         3.5370    3.1470   -3.9460 ha        1 072      0.161500
     80 H4G        -0.8110    5.1600   -2.5480 ha        1 072      0.141000
     81 H4F         1.7780    3.6080   -5.6440 ha        1 072      0.141000
     82 H4H        -0.3960    4.6170   -4.9510 ha        1 072      0.137000
     83 H5B1        4.9530    0.9000    0.0930 hx        1 072      0.142700
     84 H5B2        4.5330    2.5220    0.8830 hx        1 072      0.142700
     85 H5D         5.9190    4.3630    0.6610 ha        1 072      0.161500
     86 H5E         6.6150    0.8970   -1.8490 ha        1 072      0.161500
     87 H5F         8.1290    5.3090   -0.0630 ha        1 072      0.141000
     88 H5G         8.8000    1.8510   -2.5740 ha        1 072      0.141000
     89 H5H         9.5600    4.0530   -1.6800 ha        1 072      0.137000
     90 H4A1        4.0800    1.8520   -2.0000 hn        1 072      0.427800
@<TRIPOS>BOND
     1    1    3 1   
     2    1    8 1   
     3    2    3 1   
     4    2    4 2   
     5    2   16 1   
     6    3    5 1   
     7    3   45 1   
     8    5    6 1   
     9    5   46 1   
    10    5   47 1   
    11    6    7 2   
    12    6   30 1   
    13    8    9 1   
    14    8   16 1   
    15    8   48 1   
    16    9   10 1   
    17    9   49 1   
    18    9   50 1   
    19   10   11 1   
    20   10   51 1   
    21   10   52 1   
    22   11   12 1   
    23   11   53 1   
    24   11   54 1   
    25   12   13 1   
    26   12   55 1   
    27   12   56 1   
    28   13   14 1   
    29   13   57 1   
    30   13   58 1   
    31   14   15 1   
    32   14   59 1   
    33   14   60 1   
    34   15   61 1   
    35   15   62 1   
    36   15   63 1   
    37   16   17 1   
    38   17   18 1   
    39   17   64 1   
    40   17   65 1   
    41   18   19 1   
    42   18   66 1   
    43   18   67 1   
    44   19   20 1   
    45   19   68 1   
    46   19   69 1   
    47   20   21 1   
    48   20   70 1   
    49   20   71 1   
    50   21   22 ar  
    51   21   23 ar  
    52   22   24 ar  
    53   22   72 1   
    54   23   25 ar  
    55   23   73 1   
    56   24   26 ar  
    57   24   74 1   
    58   25   26 ar  
    59   25   75 1   
    60   26   27 1   
    61   27   28 1   
    62   27   29 1   
    63   30   31 1   
    64   30   38 1   
    65   30   90 1   
    66   31   32 1   
    67   31   76 1   
    68   31   77 1   
    69   32   33 ar  
    70   32   34 ar  
    71   33   35 ar  
    72   33   78 1   
    73   34   36 ar  
    74   34   79 1   
    75   35   37 ar  
    76   35   80 1   
    77   36   37 ar  
    78   36   81 1   
    79   37   82 1   
    80   38   39 1   
    81   38   83 1   
    82   38   84 1   
    83   39   40 ar  
    84   39   41 ar  
    85   40   42 ar  
    86   40   85 1   
    87   41   43 ar  
    88   41   86 1   
    89   42   44 ar  
    90   42   87 1   
    91   43   44 ar  
    92   43   88 1   
    93   44   89 1   
@<TRIPOS>SUBSTRUCTURE
     1 072         1 TEMP              0 ****  ****    0 ROOT
