@<TRIPOS>MOLECULE
073
   69    72     1     0     0
SMALL
bcc


@<TRIPOS>ATOM
      1 O71         0.0580   -0.0560    0.5960 o         1 073     -0.375000
      2 C65         1.2820    0.0330    0.4460 c2        1 073      0.354000
      3 O66         2.0380    0.1590    1.5890 os        1 073     -0.279000
      4 C67         1.3260    0.1770    2.8230 c3        1 073     -0.059000
      5 C58         2.0580    0.0220   -0.7950 ca        1 073     -0.135000
      6 C57         1.3810   -0.1120   -2.0150 ca        1 073     -0.077500
      7 C56         2.0940   -0.1220   -3.2090 ca        1 073     -0.139000
      8 C59         3.4510    0.1440   -0.7950 ca        1 073     -0.077500
      9 C60         4.1570    0.1290   -1.9950 ca        1 073     -0.139000
     10 C55         3.4940   -0.0010   -3.2230 ca        1 073     -0.024000
     11 C11         4.2600    0.0170   -4.5470 c3        1 073      0.125000
     12 N12         3.6630   -0.9770   -5.4610 na        1 073     -0.162000
     13 N23         3.1180   -0.7040   -6.6760 n2        1 073      0.057000
     14 N22         2.7740   -1.7470   -7.3000 n2        1 073     -0.096000
     15 C18         3.1040   -2.8880   -6.5150 ca        1 073     -0.130000
     16 C17         2.9540   -4.2630   -6.7120 ca        1 073     -0.052000
     17 C19         3.7040   -2.3770   -5.2940 ca        1 073     -0.004000
     18 C20         4.1200   -3.2560   -4.2850 ca        1 073     -0.114000
     19 C21         3.9500   -4.6130   -4.5110 ca        1 073     -0.114000
     20 C16         3.3810   -5.1100   -5.7000 ca        1 073     -0.169000
     21 C13         5.7870   -0.2960   -4.3220 c3        1 073     -0.039000
     22 C2          6.6240   -0.2370   -5.5220 ca        1 073     -0.382000
     23 C3          7.2750    0.9640   -5.8890 ca        1 073     -0.043500
     24 C4          8.1570    1.0230   -6.9320 ca        1 073     -0.254000
     25 C5          8.4730   -0.1540   -7.7020 ca        1 073      0.037000
     26 C28         9.3890   -0.1190   -8.7150 c2        1 073     -0.042000
     27 F30         9.8110   -1.1250   -9.5220 f         1 073     -0.135000
     28 P31        11.6620   -0.0760  -11.0820 p3        1 073      2.400000
     29 O34        12.7260    0.2040  -10.0950 o         1 073     -1.137000
     30 O33        11.0130    1.0330  -11.8090 o         1 073     -1.137000
     31 O32        11.5100   -1.4520  -11.5990 o         1 073     -1.137000
     32 F29        10.1250    0.9260   -9.1660 f         1 073     -0.135000
     33 C6          7.7830   -1.3660   -7.3380 ca        1 073     -0.254000
     34 C1          6.9050   -1.3900   -6.2900 ca        1 073     -0.043500
     35 C37         4.2210    1.4590   -5.1090 c3        1 073     -0.144000
     36 C38         2.8890    2.0730   -5.2740 c2        1 073     -0.109000
     37 C41         2.6230    3.3850   -5.2070 c2        1 073     -0.172000
     38 C43         3.5580    4.4670   -4.9440 ca        1 073     -0.029000
     39 C49         3.1340    5.5550   -4.1610 ca        1 073     -0.125000
     40 C48         3.9950    6.6160   -3.8990 ca        1 073     -0.133500
     41 C47         5.2900    6.6130   -4.4190 ca        1 073     -0.143000
     42 C46         5.7170    5.5440   -5.2050 ca        1 073     -0.133500
     43 C45         4.8580    4.4760   -5.4680 ca        1 073     -0.125000
     44 H671        2.1300    0.2860    3.5920 h1        1 073      0.083000
     45 H672        0.6190    1.0410    2.8450 h1        1 073      0.083000
     46 H673        0.7630   -0.7780    2.9540 h1        1 073      0.083000
     47 H57         0.2840   -0.2070   -2.0180 ha        1 073      0.145000
     48 H56         1.5340   -0.2260   -4.1520 ha        1 073      0.152500
     49 H59         3.9890    0.2500    0.1610 ha        1 073      0.145000
     50 H60         5.2540    0.2220   -1.9480 ha        1 073      0.152500
     51 H17         2.5210   -4.6510   -7.6440 ha        1 073      0.140000
     52 H20         4.5730   -2.8840   -3.3560 ha        1 073      0.144000
     53 H21         4.2790   -5.3290   -3.7430 ha        1 073      0.121000
     54 H16         3.2870   -6.1980   -5.8270 ha        1 073      0.120000
     55 H131        5.8570   -1.3020   -3.8320 hc        1 073      0.060000
     56 H132        6.1530    0.4780   -3.5930 hc        1 073      0.060000
     57 H3          7.0630    1.8750   -5.3050 ha        1 073      0.070500
     58 H4          8.6580    1.9600   -7.2070 ha        1 073      0.112000
     59 H6          7.9930   -2.2670   -7.9290 ha        1 073      0.112000
     60 H1          6.3980   -2.3310   -6.0230 ha        1 073      0.070500
     61 H371        4.8430    2.0870   -4.4110 hc        1 073      0.137500
     62 H372        4.7600    1.4490   -6.1040 hc        1 073      0.137500
     63 H38         2.0540    1.3840   -5.4880 ha        1 073      0.125000
     64 H41         1.5800    3.7240   -5.3510 ha        1 073      0.112000
     65 H49         2.1140    5.5600   -3.7510 ha        1 073      0.141500
     66 H48         3.6540    7.4570   -3.2800 ha        1 073      0.128500
     67 H47         5.9700    7.4500   -4.2110 ha        1 073      0.120000
     68 H46         6.7350    5.5350   -5.6220 ha        1 073      0.128500
     69 H45         5.2070    3.6410   -6.0980 ha        1 073      0.141500
@<TRIPOS>BOND
     1    1    2 1   
     2    2    3 1   
     3    2    5 1   
     4    3    4 1   
     5    4   44 1   
     6    4   45 1   
     7    4   46 1   
     8    5    6 1   
     9    5    8 1   
    10    6    7 1   
    11    6   47 1   
    12    7   10 1   
    13    7   48 1   
    14    8    9 1   
    15    8   49 1   
    16    9   10 1   
    17    9   50 1   
    18   10   11 1   
    19   11   12 1   
    20   11   21 1   
    21   11   35 1   
    22   12   13 1   
    23   12   17 1   
    24   13   14 1   
    25   14   15 1   
    26   15   16 1   
    27   15   17 1   
    28   16   20 1   
    29   16   51 1   
    30   17   18 1   
    31   18   19 1   
    32   18   52 1   
    33   19   20 1   
    34   19   53 1   
    35   20   54 1   
    36   21   22 1   
    37   21   55 1   
    38   21   56 1   
    39   22   23 1   
    40   22   34 1   
    41   23   24 1   
    42   23   57 1   
    43   24   25 1   
    44   24   58 1   
    45   25   26 1   
    46   25   33 1   
    47   26   27 1   
    48   26   32 1   
    49   28   29 1   
    50   28   30 1   
    51   28   31 1   
    52   33   34 1   
    53   33   59 1   
    54   34   60 1   
    55   35   36 1   
    56   35   61 1   
    57   35   62 1   
    58   36   37 1   
    59   36   63 1   
    60   37   38 1   
    61   37   64 1   
    62   38   39 1   
    63   38   43 1   
    64   39   40 1   
    65   39   65 1   
    66   40   41 1   
    67   40   66 1   
    68   41   42 1   
    69   41   67 1   
    70   42   43 1   
    71   42   68 1   
    72   43   69 1   
@<TRIPOS>SUBSTRUCTURE
     1 073         1 TEMP              0 ****  ****    0 ROOT
