@<TRIPOS>MOLECULE
073
   69    72     1     0     0
SMALL
bcc


@<TRIPOS>ATOM
      1 O71         7.8620    1.0000   -0.4080 o         1 073     -0.374000
      2 C65         6.9720    0.8120    0.4300 c2        1 073      0.354000
      3 O66         7.3760    0.6310    1.7330 os        1 073     -0.279000
      4 C67         8.7790    0.6810    1.9760 c3        1 073     -0.059000
      5 C58         5.5220    0.7510    0.2310 ca        1 073     -0.133000
      6 C57         5.0100    0.9420   -1.0600 ca        1 073     -0.079500
      7 C56         3.6380    0.8870   -1.2760 ca        1 073     -0.137500
      8 C59         4.6450    0.5100    1.2930 ca        1 073     -0.079500
      9 C60         3.2700    0.4600    1.0690 ca        1 073     -0.137500
     10 C55         2.7480    0.6430   -0.2170 ca        1 073     -0.034000
     11 C11         1.2470    0.5820   -0.5070 c3        1 073      0.132000
     12 N12         0.8560    1.8910   -1.0780 na        1 073     -0.158000
     13 N23         0.4720    2.0920   -2.3650 n2        1 073      0.048000
     14 N22         0.1780    3.2990   -2.6010 n2        1 073     -0.098000
     15 C18         0.3450    4.0570   -1.4090 ca        1 073     -0.132000
     16 C17         0.1650    5.4090   -1.1030 ca        1 073     -0.054000
     17 C19         0.7980    3.1210   -0.3940 ca        1 073      0.000000
     18 C20         1.0880    3.5700    0.9020 ca        1 073     -0.111000
     19 C21         0.9060    4.9170    1.1680 ca        1 073     -0.114000
     20 C16         0.4510    5.8220    0.1890 ca        1 073     -0.168000
     21 C13         0.4250    0.2510    0.7830 c3        1 073     -0.037000
     22 C2         -1.0230    0.1170    0.6030 ca        1 073     -0.379000
     23 C3         -1.6170   -1.1530    0.4240 ca        1 073     -0.043500
     24 C4         -2.9730   -1.3200    0.3590 ca        1 073     -0.257000
     25 C5         -3.8640   -0.1940    0.4800 ca        1 073      0.040000
     26 C28        -5.2210   -0.3510    0.4500 c2        1 073     -0.048000
     27 F30        -6.1950    0.5880    0.5610 f         1 073     -0.136000
     28 P31        -8.4820   -0.7240    0.4610 p3        1 073      2.401000
     29 O34        -8.4270   -1.4830    1.7260 o         1 073     -1.137667
     30 O33        -8.4920   -1.4360   -0.8330 o         1 073     -1.137667
     31 O32        -8.8950    0.6950    0.4950 o         1 073     -1.137667
     32 F29        -5.9460   -1.4880    0.3140 f         1 073     -0.136000
     33 C6         -3.2480    1.0990    0.6460 ca        1 073     -0.257000
     34 C1         -1.8880    1.2290    0.7070 ca        1 073     -0.043500
     35 C37         0.9940   -0.5720   -1.5140 c3        1 073     -0.137000
     36 C38         1.5750   -1.8580   -1.0580 c2        1 073     -0.131000
     37 C41         0.9300   -3.0260   -1.1790 c2        1 073     -0.144000
     38 C43         1.4820   -4.3150   -0.7920 ca        1 073     -0.023000
     39 C49         2.8620   -4.5620   -0.7900 ca        1 073     -0.122500
     40 C48         3.3560   -5.8120   -0.4220 ca        1 073     -0.136500
     41 C47         2.4800   -6.8310   -0.0500 ca        1 073     -0.147000
     42 C46         1.1050   -6.5960   -0.0500 ca        1 073     -0.136500
     43 C45         0.6060   -5.3500   -0.4200 ca        1 073     -0.122500
     44 H671        8.8640    0.5120    3.0780 h1        1 073      0.083000
     45 H672        9.2970   -0.1220    1.3980 h1        1 073      0.083000
     46 H673        9.1840    1.6800    1.6840 h1        1 073      0.083000
     47 H57         5.7030    1.1350   -1.8950 ha        1 073      0.146000
     48 H56         3.2450    1.0380   -2.2950 ha        1 073      0.155500
     49 H59         5.0440    0.3620    2.3090 ha        1 073      0.146000
     50 H60         2.6030    0.2720    1.9260 ha        1 073      0.155500
     51 H17        -0.2000    6.1110   -1.8650 ha        1 073      0.139000
     52 H20         1.4380    2.8790    1.6810 ha        1 073      0.145000
     53 H21         1.1130    5.2950    2.1800 ha        1 073      0.122000
     54 H16         0.3110    6.8760    0.4660 ha        1 073      0.120000
     55 H131        0.8550   -0.7220    1.1530 hc        1 073      0.060500
     56 H132        0.6440    1.0450    1.5460 hc        1 073      0.060500
     57 H3         -0.9570   -2.0330    0.3430 ha        1 073      0.072500
     58 H4         -3.4230   -2.3110    0.2230 ha        1 073      0.111500
     59 H6         -3.9100    1.9710    0.7250 ha        1 073      0.111500
     60 H1         -1.4410    2.2270    0.8460 ha        1 073      0.072500
     61 H371       -0.1230   -0.6620   -1.6440 hc        1 073      0.126000
     62 H372        1.4510   -0.3350   -2.5140 hc        1 073      0.126000
     63 H38         2.5900   -1.8060   -0.6280 ha        1 073      0.112000
     64 H41        -0.1050   -3.0550   -1.5680 ha        1 073      0.151000
     65 H49         3.5580   -3.7630   -1.0840 ha        1 073      0.140500
     66 H48         4.4400   -5.9920   -0.4230 ha        1 073      0.121000
     67 H47         2.8710   -7.8150    0.2420 ha        1 073      0.116000
     68 H46         0.4100   -7.3950    0.2470 ha        1 073      0.121000
     69 H45        -0.4800   -5.1630   -0.4130 ha        1 073      0.140500
@<TRIPOS>BOND
     1    1    2 1   
     2    2    3 1   
     3    2    5 1   
     4    3    4 1   
     5    4   44 1   
     6    4   45 1   
     7    4   46 1   
     8    5    6 1   
     9    5    8 1   
    10    6    7 1   
    11    6   47 1   
    12    7   10 1   
    13    7   48 1   
    14    8    9 1   
    15    8   49 1   
    16    9   10 1   
    17    9   50 1   
    18   10   11 1   
    19   11   12 1   
    20   11   21 1   
    21   11   35 1   
    22   12   13 1   
    23   12   17 1   
    24   13   14 1   
    25   14   15 1   
    26   15   16 1   
    27   15   17 1   
    28   16   20 1   
    29   16   51 1   
    30   17   18 1   
    31   18   19 1   
    32   18   52 1   
    33   19   20 1   
    34   19   53 1   
    35   20   54 1   
    36   21   22 1   
    37   21   55 1   
    38   21   56 1   
    39   22   23 1   
    40   22   34 1   
    41   23   24 1   
    42   23   57 1   
    43   24   25 1   
    44   24   58 1   
    45   25   26 1   
    46   25   33 1   
    47   26   27 1   
    48   26   32 1   
    49   28   29 1   
    50   28   30 1   
    51   28   31 1   
    52   33   34 1   
    53   33   59 1   
    54   34   60 1   
    55   35   36 1   
    56   35   61 1   
    57   35   62 1   
    58   36   37 1   
    59   36   63 1   
    60   37   38 1   
    61   37   64 1   
    62   38   39 1   
    63   38   43 1   
    64   39   40 1   
    65   39   65 1   
    66   40   41 1   
    67   40   66 1   
    68   41   42 1   
    69   41   67 1   
    70   42   43 1   
    71   42   68 1   
    72   43   69 1   
@<TRIPOS>SUBSTRUCTURE
     1 073         1 TEMP              0 ****  ****    0 ROOT
