@<TRIPOS>MOLECULE
073
   69    62     1     0     0
SMALL
bcc


@<TRIPOS>ATOM
      1 O71        -3.4370    1.1450    6.0190 o         1 073     -0.368000
      2 C65        -3.1080    0.0780    5.4570 c1        1 073      0.354000
      3 O66        -3.3470   -1.1650    6.1050 o         1 073     -0.286000
      4 C67        -4.1560   -1.0560    7.2440 c3        1 073     -0.058000
      5 C58        -2.3270    0.1170    4.1140 c2        1 073     -0.139000
      6 C57        -3.0220    0.0660    2.8970 c2        1 073     -0.081000
      7 C56        -2.3170    0.0810    1.6820 c1        1 073     -0.153000
      8 C59        -0.9410    0.1820    4.1200 c1        1 073     -0.070000
      9 C60        -0.2350    0.1970    2.9110 c1        1 073     -0.126000
     10 C55        -0.9360    0.1450    1.6850 c1        1 073     -0.025000
     11 C11        -0.1550    0.0290    0.3450 c3        1 073      0.126000
     12 N12        -0.6940   -0.9920   -0.4080 n3        1 073     -0.162000
     13 N23        -1.1820   -0.7320   -1.6550 n2        1 073      0.062000
     14 N22        -1.7800   -1.8730   -2.1250 n2        1 073     -0.117000
     15 C18        -1.6610   -2.8390   -1.1660 c1        1 073     -0.139000
     16 C17        -2.0400   -4.1910   -1.1480 c1        1 073     -0.110000
     17 C19        -0.9890   -2.2990   -0.1010 c1        1 073     -0.026000
     18 C20        -0.6760   -3.1080    1.0220 c1        1 073     -0.110000
     19 C21        -1.0510   -4.4450    1.0390 c1        1 073     -0.110000
     20 C16        -1.7330   -4.9880   -0.0450 c1        1 073     -0.110000
     21 C13         1.3620   -0.2790    0.6450 c3        1 073     -0.046000
     22 C2          2.1190   -0.6280   -0.7210 c2        1 073     -0.374000
     23 C3          2.6480    0.3960   -1.5070 c2        1 073     -0.053000
     24 C4          3.2760    0.0920   -2.7220 c1        1 073     -0.255000
     25 C5          3.3720   -1.2310   -3.1440 c1        1 073      0.043000
     26 C28         3.9710   -1.5580   -4.5280 c3        1 073     -0.057000
     27 F30         3.3190   -2.6080   -5.0610 f         1 073     -0.137500
     28 P31         5.7040   -1.9660   -4.3430 p5        1 073      1.450500
     29 O34         6.3670   -0.9460   -3.4630 o         1 073     -0.819500
     30 O33         6.3570   -1.9670   -5.6780 o         1 073     -0.819500
     31 O32         5.8360   -3.3360   -3.7140 o         1 073     -0.819500
     32 F29         3.8440   -0.4870   -5.3430 f         1 073     -0.137500
     33 C6          2.8430   -2.2560   -2.3580 c1        1 073     -0.264000
     34 C1          2.2170   -1.9560   -1.1470 c1        1 073     -0.043000
     35 C37        -0.2620    1.3560   -0.4310 c3        1 073     -0.130000
     36 C38        -1.6980    1.9300   -0.2770 c2        1 073     -0.169000
     37 C41        -1.9800    3.2030   -0.7100 c1        1 073     -0.115000
     38 C43        -0.9040    4.0420   -1.3310 c1        1 073     -0.083000
     39 C49        -0.2480    5.0240   -0.5650 c2        1 073     -0.146000
     40 C48         0.7050    5.8340   -1.1500 c1        1 073     -0.165000
     41 C47         1.0160    5.6810   -2.4910 c1        1 073     -0.110000
     42 C46         0.3630    4.7020   -3.2560 c1        1 073     -0.110000
     43 C45        -0.5930    3.8890   -2.6690 c1        1 073     -0.118000
     44 H671       -4.3630   -1.9480    7.5870 h1        1 073      0.080000
     45 H672       -3.6560   -0.5150    7.9710 h1        1 073      0.080000
     46 H673       -4.9740   -0.6030    7.0120 h1        1 073      0.080000
     47 H57        -3.9600    0.0210    2.8940 ha        1 073      0.137000
     48 H56        -2.8120    0.0940    0.8230 ha        1 073      0.137000
     49 H59        -0.4490    0.2180    4.9840 ha        1 073      0.156000
     50 H60         0.7360    0.1290    2.9180 ha        1 073      0.192000
     51 H17        -2.5320   -4.5840   -1.9300 ha        1 073      0.154167
     52 H20        -0.1930   -2.7230    1.7880 ha        1 073      0.154167
     53 H21        -0.8340   -5.0090    1.8200 ha        1 073      0.154167
     54 H16        -1.9910   -5.9070   -0.0340 ha        1 073      0.154167
     55 H131        1.7730    0.4980    1.0510 hc        1 073      0.063500
     56 H132        1.4260   -1.0570    1.2740 hc        1 073      0.063500
     57 H3          2.6230    1.3230   -1.1870 ha        1 073      0.074000
     58 H4          3.6400    0.7960   -3.2630 ha        1 073      0.114000
     59 H6          2.9120   -3.2030   -2.6610 ha        1 073      0.113000
     60 H1          1.8800   -2.6660   -0.5920 ha        1 073      0.080000
     61 H371       -0.0740    1.1950   -1.3850 hc        1 073      0.142500
     62 H372        0.4070    2.0160   -0.0630 hc        1 073      0.142500
     63 H38        -2.4150    1.3730    0.1370 ha        1 073      0.108000
     64 H41        -2.8750    3.5590   -0.6140 ha        1 073      0.097000
     65 H49        -0.5420    5.2030    0.3490 ha        1 073      0.098000
     66 H48         1.1650    6.5240   -0.6120 ha        1 073      0.106000
     67 H47         1.7470    6.1980   -2.8820 ha        1 073      0.154167
     68 H46         0.5820    4.5940   -4.1970 ha        1 073      0.154167
     69 H45        -1.0630    3.1860   -3.2180 ha        1 073      0.137000
@<TRIPOS>BOND
     1    1    2 1   
     2    2    5 1   
     3    3    4 1   
     4    4   44 1   
     5    4   45 1   
     6    4   46 1   
     7    5    6 1   
     8    5    8 1   
     9    6    7 1   
    10    6   47 1   
    11    7   48 1   
    12    8   49 1   
    13    9   10 1   
    14    9   50 1   
    15   10   11 1   
    16   11   12 1   
    17   11   21 1   
    18   11   35 1   
    19   12   13 1   
    20   12   17 1   
    21   13   14 1   
    22   14   15 1   
    23   15   17 1   
    24   16   20 1   
    25   16   51 1   
    26   18   19 1   
    27   18   52 1   
    28   19   53 1   
    29   20   54 1   
    30   21   22 1   
    31   21   55 1   
    32   21   56 1   
    33   22   23 1   
    34   22   34 1   
    35   23   24 1   
    36   23   57 1   
    37   24   58 1   
    38   25   26 1   
    39   25   33 1   
    40   26   27 1   
    41   26   28 1   
    42   26   32 1   
    43   28   29 1   
    44   28   30 1   
    45   28   31 1   
    46   33   59 1   
    47   34   60 1   
    48   35   36 1   
    49   35   61 1   
    50   35   62 1   
    51   36   37 1   
    52   36   63 1   
    53   37   64 1   
    54   38   39 1   
    55   38   43 1   
    56   39   40 1   
    57   39   65 1   
    58   40   66 1   
    59   41   42 1   
    60   41   67 1   
    61   42   68 1   
    62   43   69 1   
@<TRIPOS>SUBSTRUCTURE
     1 073         1 TEMP              0 ****  ****    0 ROOT
