@<TRIPOS>MOLECULE
073
   69    72     1     0     0
SMALL
bcc


@<TRIPOS>ATOM
      1 O71         0.0500   -0.0550    0.5890 o         1 073     -0.375000
      2 C65         1.2740    0.0300    0.4410 c2        1 073      0.354000
      3 O66         2.0300    0.1500    1.5850 os        1 073     -0.279000
      4 C67         1.3160    0.1670    2.8190 c3        1 073     -0.059000
      5 C58         2.0510    0.0200   -0.7990 ca        1 073     -0.135000
      6 C57         1.3760   -0.1080   -2.0210 ca        1 073     -0.077500
      7 C56         2.0910   -0.1180   -3.2130 ca        1 073     -0.139000
      8 C59         3.4450    0.1360   -0.7960 ca        1 073     -0.077500
      9 C60         4.1530    0.1220   -1.9960 ca        1 073     -0.139000
     10 C55         3.4910   -0.0020   -3.2250 ca        1 073     -0.024000
     11 C11         4.2590    0.0180   -4.5480 c3        1 073      0.125000
     12 N12         3.6580   -0.9710   -5.4660 na        1 073     -0.162000
     13 N23         3.1160   -0.6920   -6.6800 n2        1 073      0.057000
     14 N22         2.7690   -1.7320   -7.3080 n2        1 073     -0.096000
     15 C18         3.0940   -2.8760   -6.5260 ca        1 073     -0.130000
     16 C17         2.9390   -4.2500   -6.7280 ca        1 073     -0.052000
     17 C19         3.6940   -2.3720   -5.3030 ca        1 073     -0.004000
     18 C20         4.1050   -3.2550   -4.2970 ca        1 073     -0.114000
     19 C21         3.9300   -4.6110   -4.5280 ca        1 073     -0.114000
     20 C16         3.3610   -5.1020   -5.7180 ca        1 073     -0.169000
     21 C13         5.7840   -0.3020   -4.3220 c3        1 073     -0.039000
     22 C2          6.6230   -0.2410   -5.5220 ca        1 073     -0.382000
     23 C3          7.2790    0.9580   -5.8840 ca        1 073     -0.043500
     24 C4          8.1620    1.0180   -6.9250 ca        1 073     -0.254000
     25 C5          8.4750   -0.1580   -7.6990 ca        1 073      0.037000
     26 C28         9.3920   -0.1230   -8.7110 c2        1 073     -0.042000
     27 F30         9.8100   -1.1270   -9.5220 f         1 073     -0.135000
     28 P31        11.6660   -0.0780  -11.0760 p3        1 073      2.400000
     29 O34        11.0410    1.0570  -11.7860 o         1 073     -1.137000
     30 O33        11.4870   -1.4410  -11.6180 o         1 073     -1.137000
     31 O32        12.7320    0.1630  -10.0820 o         1 073     -1.137000
     32 F29        10.1310    0.9220   -9.1580 f         1 073     -0.135000
     33 C6          7.7790   -1.3690   -7.3400 ca        1 073     -0.254000
     34 C1          6.9000   -1.3930   -6.2930 ca        1 073     -0.043500
     35 C37         4.2250    1.4620   -5.1060 c3        1 073     -0.144000
     36 C38         2.8960    2.0810   -5.2700 c2        1 073     -0.109000
     37 C41         2.6350    3.3940   -5.2000 c2        1 073     -0.172000
     38 C43         3.5740    4.4720   -4.9340 ca        1 073     -0.029000
     39 C49         3.1530    5.5590   -4.1490 ca        1 073     -0.125000
     40 C48         4.0180    6.6170   -3.8830 ca        1 073     -0.133500
     41 C47         5.3140    6.6100   -4.4020 ca        1 073     -0.143000
     42 C46         5.7370    5.5410   -5.1900 ca        1 073     -0.133500
     43 C45         4.8750    4.4770   -5.4560 ca        1 073     -0.125000
     44 H671        0.6130    1.0340    2.8430 h1        1 073      0.083000
     45 H672        2.1200    0.2710    3.5890 h1        1 073      0.083000
     46 H673        0.7490   -0.7860    2.9460 h1        1 073      0.083000
     47 H57         0.2780   -0.1990   -2.0250 ha        1 073      0.145000
     48 H56         1.5300   -0.2160   -4.1570 ha        1 073      0.152500
     49 H59         3.9820    0.2370    0.1600 ha        1 073      0.145000
     50 H60         5.2500    0.2110   -1.9480 ha        1 073      0.152500
     51 H17         2.5050   -4.6330   -7.6620 ha        1 073      0.140000
     52 H20         4.5590   -2.8880   -3.3660 ha        1 073      0.144000
     53 H21         4.2550   -5.3300   -3.7610 ha        1 073      0.121000
     54 H16         3.2620   -6.1890   -5.8490 ha        1 073      0.120000
     55 H131        6.1520    0.4690   -3.5910 hc        1 073      0.060000
     56 H132        5.8490   -1.3100   -3.8360 hc        1 073      0.060000
     57 H3          7.0700    1.8680   -5.2970 ha        1 073      0.070500
     58 H4          8.6670    1.9540   -7.1960 ha        1 073      0.112000
     59 H6          7.9860   -2.2680   -7.9340 ha        1 073      0.112000
     60 H1          6.3890   -2.3330   -6.0300 ha        1 073      0.070500
     61 H371        4.7650    1.4520   -6.1010 hc        1 073      0.137500
     62 H372        4.8490    2.0860   -4.4050 hc        1 073      0.137500
     63 H38         2.0580    1.3960   -5.4870 ha        1 073      0.125000
     64 H41         1.5940    3.7370   -5.3450 ha        1 073      0.112000
     65 H49         2.1320    5.5680   -3.7400 ha        1 073      0.141500
     66 H48         3.6800    7.4580   -3.2630 ha        1 073      0.128500
     67 H47         5.9960    7.4440   -4.1910 ha        1 073      0.120000
     68 H46         6.7560    5.5290   -5.6060 ha        1 073      0.128500
     69 H45         5.2210    3.6420   -6.0880 ha        1 073      0.141500
@<TRIPOS>BOND
     1    1    2 1   
     2    2    3 1   
     3    2    5 1   
     4    3    4 1   
     5    4   44 1   
     6    4   45 1   
     7    4   46 1   
     8    5    6 1   
     9    5    8 1   
    10    6    7 1   
    11    6   47 1   
    12    7   10 1   
    13    7   48 1   
    14    8    9 1   
    15    8   49 1   
    16    9   10 1   
    17    9   50 1   
    18   10   11 1   
    19   11   12 1   
    20   11   21 1   
    21   11   35 1   
    22   12   13 1   
    23   12   17 1   
    24   13   14 1   
    25   14   15 1   
    26   15   16 1   
    27   15   17 1   
    28   16   20 1   
    29   16   51 1   
    30   17   18 1   
    31   18   19 1   
    32   18   52 1   
    33   19   20 1   
    34   19   53 1   
    35   20   54 1   
    36   21   22 1   
    37   21   55 1   
    38   21   56 1   
    39   22   23 1   
    40   22   34 1   
    41   23   24 1   
    42   23   57 1   
    43   24   25 1   
    44   24   58 1   
    45   25   26 1   
    46   25   33 1   
    47   26   27 1   
    48   26   32 1   
    49   28   29 1   
    50   28   30 1   
    51   28   31 1   
    52   33   34 1   
    53   33   59 1   
    54   34   60 1   
    55   35   36 1   
    56   35   61 1   
    57   35   62 1   
    58   36   37 1   
    59   36   63 1   
    60   37   38 1   
    61   37   64 1   
    62   38   39 1   
    63   38   43 1   
    64   39   40 1   
    65   39   65 1   
    66   40   41 1   
    67   40   66 1   
    68   41   42 1   
    69   41   67 1   
    70   42   43 1   
    71   42   68 1   
    72   43   69 1   
@<TRIPOS>SUBSTRUCTURE
     1 073         1 TEMP              0 ****  ****    0 ROOT
