@<TRIPOS>MOLECULE
073
   69    72     1     0     0
SMALL
bcc


@<TRIPOS>ATOM
      1 O71         0.0880   -0.1130    0.6180 o         1 073     -0.375000
      2 C65         1.3120   -0.0290    0.4620 c2        1 073      0.354000
      3 O66         2.0770    0.0730    1.6020 os        1 073     -0.279000
      4 C67         1.3730    0.0760    2.8410 c3        1 073     -0.059000
      5 C58         2.0800   -0.0240   -0.7840 ca        1 073     -0.135000
      6 C57         1.3950   -0.1350   -2.0020 ca        1 073     -0.077500
      7 C56         2.1000   -0.1300   -3.2010 ca        1 073     -0.139000
      8 C59         3.4740    0.0880   -0.7910 ca        1 073     -0.077500
      9 C60         4.1730    0.0890   -1.9960 ca        1 073     -0.139000
     10 C55         3.5010   -0.0180   -3.2220 ca        1 073     -0.024000
     11 C11         4.2580    0.0180   -4.5500 c3        1 073      0.125000
     12 N12         3.6480   -0.9570   -5.4770 na        1 073     -0.162000
     13 N23         3.0980   -0.6600   -6.6830 n2        1 073      0.057000
     14 N22         2.7430   -1.6910   -7.3220 n2        1 073     -0.096000
     15 C18         3.0700   -2.8460   -6.5580 ca        1 073     -0.130000
     16 C17         2.9100   -4.2180   -6.7760 ca        1 073     -0.052000
     17 C19         3.6810   -2.3600   -5.3330 ca        1 073     -0.004000
     18 C20         4.0970   -3.2580   -4.3410 ca        1 073     -0.114000
     19 C21         3.9170   -4.6100   -4.5890 ca        1 073     -0.114000
     20 C16         3.3370   -5.0830   -5.7810 ca        1 073     -0.169000
     21 C13         5.7840   -0.3090   -4.3400 c3        1 073     -0.039000
     22 C2          6.6140   -0.2350   -5.5450 ca        1 073     -0.382000
     23 C3          7.2710    0.9680   -5.8950 ca        1 073     -0.043500
     24 C4          8.1470    1.0390   -6.9420 ca        1 073     -0.254000
     25 C5          8.4500   -0.1260   -7.7350 ca        1 073      0.037000
     26 C28         9.3590   -0.0800   -8.7540 c2        1 073     -0.042000
     27 F30         9.7680   -1.0740   -9.5810 f         1 073     -0.135000
     28 P31        11.6150   -0.0090  -11.1360 p3        1 073      2.400000
     29 O34        11.0020    1.1520  -11.8140 o         1 073     -1.137000
     30 O33        11.4120   -1.3550  -11.7090 o         1 073     -1.137000
     31 O32        12.6910    0.1940  -10.1440 o         1 073     -1.137000
     32 F29        10.0980    0.9690   -9.1910 f         1 073     -0.135000
     33 C6          7.7540   -1.3400   -7.3870 ca        1 073     -0.254000
     34 C1          6.8820   -1.3760   -6.3340 ca        1 073     -0.043500
     35 C37         4.2250    1.4690   -5.0880 c3        1 073     -0.144000
     36 C38         2.8960    2.0940   -5.2340 c2        1 073     -0.109000
     37 C41         2.6390    3.4070   -5.1450 c2        1 073     -0.172000
     38 C43         3.5830    4.4780   -4.8710 ca        1 073     -0.029000
     39 C49         3.1710    5.5570   -4.0690 ca        1 073     -0.125000
     40 C48         4.0420    6.6080   -3.7960 ca        1 073     -0.133500
     41 C47         5.3330    6.6040   -4.3250 ca        1 073     -0.143000
     42 C46         5.7470    5.5450   -5.1300 ca        1 073     -0.133500
     43 C45         4.8800    4.4870   -5.4030 ca        1 073     -0.125000
     44 H671        0.8030   -0.8780    2.9600 h1        1 073      0.083000
     45 H672        0.6720    0.9440    2.8820 h1        1 073      0.083000
     46 H673        2.1820    0.1670    3.6060 h1        1 073      0.083000
     47 H57         0.2970   -0.2230   -1.9990 ha        1 073      0.145000
     48 H56         1.5330   -0.2150   -4.1410 ha        1 073      0.152500
     49 H59         4.0190    0.1750    0.1620 ha        1 073      0.145000
     50 H60         5.2700    0.1740   -1.9550 ha        1 073      0.152500
     51 H17         2.4680   -4.5860   -7.7120 ha        1 073      0.140000
     52 H20         4.5590   -2.9050   -3.4090 ha        1 073      0.144000
     53 H21         4.2460   -5.3400   -3.8350 ha        1 073      0.121000
     54 H16         3.2340   -6.1680   -5.9260 ha        1 073      0.120000
     55 H131        6.1600    0.4500   -3.6010 hc        1 073      0.060000
     56 H132        5.8510   -1.3240   -3.8680 hc        1 073      0.060000
     57 H3          7.0690    1.8700   -5.2940 ha        1 073      0.070500
     58 H4          8.6520    1.9770   -7.2050 ha        1 073      0.112000
     59 H6          7.9540   -2.2320   -7.9950 ha        1 073      0.112000
     60 H1          6.3710   -2.3180   -6.0800 ha        1 073      0.070500
     61 H371        4.8560    2.0820   -4.3840 hc        1 073      0.137500
     62 H372        4.7570    1.4720   -6.0870 hc        1 073      0.137500
     63 H38         2.0550    1.4140   -5.4530 ha        1 073      0.125000
     64 H41         1.5980    3.7550   -5.2770 ha        1 073      0.112000
     65 H49         2.1540    5.5630   -3.6520 ha        1 073      0.141500
     66 H48         3.7100    7.4420   -3.1620 ha        1 073      0.128500
     67 H47         6.0200    7.4340   -4.1090 ha        1 073      0.120000
     68 H46         6.7630    5.5350   -5.5540 ha        1 073      0.128500
     69 H45         5.2190    3.6600   -6.0490 ha        1 073      0.141500
@<TRIPOS>BOND
     1    1    2 1   
     2    2    3 1   
     3    2    5 1   
     4    3    4 1   
     5    4   44 1   
     6    4   45 1   
     7    4   46 1   
     8    5    6 1   
     9    5    8 1   
    10    6    7 1   
    11    6   47 1   
    12    7   10 1   
    13    7   48 1   
    14    8    9 1   
    15    8   49 1   
    16    9   10 1   
    17    9   50 1   
    18   10   11 1   
    19   11   12 1   
    20   11   21 1   
    21   11   35 1   
    22   12   13 1   
    23   12   17 1   
    24   13   14 1   
    25   14   15 1   
    26   15   16 1   
    27   15   17 1   
    28   16   20 1   
    29   16   51 1   
    30   17   18 1   
    31   18   19 1   
    32   18   52 1   
    33   19   20 1   
    34   19   53 1   
    35   20   54 1   
    36   21   22 1   
    37   21   55 1   
    38   21   56 1   
    39   22   23 1   
    40   22   34 1   
    41   23   24 1   
    42   23   57 1   
    43   24   25 1   
    44   24   58 1   
    45   25   26 1   
    46   25   33 1   
    47   26   27 1   
    48   26   32 1   
    49   28   29 1   
    50   28   30 1   
    51   28   31 1   
    52   33   34 1   
    53   33   59 1   
    54   34   60 1   
    55   35   36 1   
    56   35   61 1   
    57   35   62 1   
    58   36   37 1   
    59   36   63 1   
    60   37   38 1   
    61   37   64 1   
    62   38   39 1   
    63   38   43 1   
    64   39   40 1   
    65   39   65 1   
    66   40   41 1   
    67   40   66 1   
    68   41   42 1   
    69   41   67 1   
    70   42   43 1   
    71   42   68 1   
    72   43   69 1   
@<TRIPOS>SUBSTRUCTURE
     1 073         1 TEMP              0 ****  ****    0 ROOT
