@<TRIPOS>MOLECULE
074
   57    57     1     0     0
SMALL
bcc


@<TRIPOS>ATOM
      1 C1         -6.0950   -3.0310    4.1540 c3        1 074     -0.085100
      2 C2         -5.5020   -3.4390    2.8140 c3        1 074     -0.102400
      3 C3         -5.2700   -2.1970    1.9610 c3        1 074      0.098000
      4 N1         -4.2610   -2.4700    0.9830 n         1 074     -0.521900
      5 C4         -4.0300   -1.5430   -0.0880 c         1 074      0.615100
      6 O1         -4.8950   -0.7560   -0.4020 o         1 074     -0.685100
      7 C5         -2.7650   -1.6410   -0.9110 c3        1 074      0.086100
      8 O2         -3.0560   -2.2200   -2.1440 oh        1 074     -0.617800
      9 C6         -2.1870   -0.2400   -1.1290 c3        1 074     -0.165400
     10 C7         -0.6400   -0.3230   -1.1950 c         1 074      0.657100
     11 O3         -0.0810   -1.3770   -0.9780 o         1 074     -0.638100
     12 N2          0.1370    0.8650   -1.4620 n         1 074     -0.532900
     13 C8          1.5610    0.8430   -1.2990 c3        1 074      0.051700
     14 C13         2.0440    2.2170   -0.9040 c         1 074      0.652100
     15 O4          1.8550    3.1690   -1.6500 o         1 074     -0.651100
     16 C9          2.2200    0.4300   -2.6140 c3        1 074     -0.055700
     17 C11         3.6530    0.0090   -2.3530 c3        1 074     -0.084400
     18 C10         2.2060    1.5930   -3.5700 c3        1 074     -0.087100
     19 C12         4.1690   -0.8160   -3.5410 c3        1 074     -0.087100
     20 N3          2.6760    2.4210    0.3760 n         1 074     -0.437800
     21 C17         3.0040    1.3000    1.4740 c3        1 074     -0.011300
     22 C18         1.7350    0.6930    2.1680 c         1 074      0.904600
     23 O           1.7650   -0.4850    2.6130 o         1 074     -0.841800
     24 C16         3.7930    1.9390    2.2790 c3        1 074     -0.076400
     25 C15         3.4140    3.4920    2.1710 c3        1 074     -0.091400
     26 C14         3.1600    3.7240    0.9420 c3        1 074      0.093000
     27 OT          0.7220    1.4170    2.3700 o         1 074     -0.841800
     28 H11        -5.5490   -2.3270    4.5510 hc        1 074      0.024367
     29 H12        -6.1140   -3.8030    4.7500 hc        1 074      0.024367
     30 H13        -7.0040   -2.7000    4.0200 hc        1 074      0.024367
     31 H21        -4.6510   -3.8960    2.9610 hc        1 074      0.049200
     32 H22        -6.1200   -4.0410    2.3530 hc        1 074      0.049200
     33 H31        -4.9790   -1.4570    2.5340 h1        1 074      0.061700
     34 H32        -6.1030   -1.9510    1.5110 h1        1 074      0.061700
     35 HN11       -3.7380   -3.2210    1.0600 hn        1 074      0.375500
     36 H51        -2.1140   -2.1910   -0.4410 h1        1 074      0.086700
     37 HO21       -3.6070   -2.9080   -2.0260 ho        1 074      0.427000
     38 H61        -2.5310    0.1290   -1.9730 hc        1 074      0.097700
     39 H62        -2.4500    0.3400   -0.3880 hc        1 074      0.097700
     40 HN21       -0.2880    1.6510   -1.6880 hn        1 074      0.348500
     41 H81         1.7960    0.2060   -0.6060 h1        1 074      0.059700
     42 H91         1.7240   -0.3220   -3.0060 hc        1 074      0.066700
     43 H111        3.6900   -0.5290   -1.5460 hc        1 074      0.046700
     44 H112        4.2070    0.7980   -2.2430 hc        1 074      0.046700
     45 H101        1.3070    1.9660   -3.6130 hc        1 074      0.037367
     46 H102        2.8310    2.2810   -3.2560 hc        1 074      0.037367
     47 H103        2.4750    1.2880   -4.4570 hc        1 074      0.037367
     48 H121        3.4290   -1.3150   -3.9370 hc        1 074      0.025367
     49 H122        4.8630   -1.4490   -3.2270 hc        1 074      0.025367
     50 H123        4.5580   -0.2100   -4.2190 hc        1 074      0.025367
     51 H171        3.4230    0.5100    1.0890 h1        1 074      0.048700
     52 H161        4.7250    1.8040    2.0100 hc        1 074      0.055700
     53 H162        3.6590    1.6250    3.1990 hc        1 074      0.055700
     54 H151        2.6270    3.6820    2.7170 hc        1 074      0.036200
     55 H152        4.1680    4.0420    2.4660 hc        1 074      0.036200
     56 H141        3.9740    4.0150    0.4760 h1        1 074      0.045700
     57 H142        2.4620    4.4060    0.8640 h1        1 074      0.045700
@<TRIPOS>BOND
     1    1    2 1   
     2    1   28 1   
     3    1   29 1   
     4    1   30 1   
     5    2    3 1   
     6    2   31 1   
     7    2   32 1   
     8    3    4 1   
     9    3   33 1   
    10    3   34 1   
    11    4    5 1   
    12    4   35 1   
    13    5    6 2   
    14    5    7 1   
    15    7    8 1   
    16    7    9 1   
    17    7   36 1   
    18    8   37 1   
    19    9   10 1   
    20    9   38 1   
    21    9   39 1   
    22   10   11 2   
    23   10   12 1   
    24   12   13 1   
    25   12   40 1   
    26   13   14 1   
    27   13   16 1   
    28   13   41 1   
    29   14   15 2   
    30   14   20 1   
    31   16   17 1   
    32   16   18 1   
    33   16   42 1   
    34   17   19 1   
    35   17   43 1   
    36   17   44 1   
    37   18   45 1   
    38   18   46 1   
    39   18   47 1   
    40   19   48 1   
    41   19   49 1   
    42   19   50 1   
    43   20   21 1   
    44   20   26 1   
    45   21   22 1   
    46   21   24 1   
    47   21   51 1   
    48   22   23 1   
    49   22   27 1   
    50   24   25 1   
    51   24   52 1   
    52   24   53 1   
    53   25   26 1   
    54   25   54 1   
    55   25   55 1   
    56   26   56 1   
    57   26   57 1   
@<TRIPOS>SUBSTRUCTURE
     1 074         1 TEMP              0 ****  ****    0 ROOT
