@<TRIPOS>MOLECULE
074
   57    57     1     0     0
SMALL
bcc


@<TRIPOS>ATOM
      1 C1          4.0430    3.7690   -1.5320 c3        1 074     -0.089100
      2 C2          3.5940    2.4260   -1.0180 c3        1 074     -0.109400
      3 C3          4.7610    1.4360   -1.0400 c3        1 074      0.084000
      4 N1          4.4190    0.1030   -0.6230 n         1 074     -0.544900
      5 C4          4.8550   -0.4320    0.5600 c         1 074      0.625100
      6 O1          5.7150    0.1150    1.2880 o         1 074     -0.642100
      7 C5          4.2900   -1.7990    0.9810 c3        1 074      0.086100
      8 O2          5.1860   -2.4330    1.8710 oh        1 074     -0.595800
      9 C6          2.9270   -1.6230    1.6470 c3        1 074     -0.194400
     10 C7          1.8010   -1.5670    0.6270 c         1 074      0.659100
     11 O3          2.0340   -1.6660   -0.6020 o         1 074     -0.659100
     12 N2          0.5250   -1.4710    1.1250 n         1 074     -0.518900
     13 C8         -0.6210   -1.1890    0.2860 c3        1 074      0.013700
     14 C13        -1.0700    0.2960    0.4160 c         1 074      0.659100
     15 O4         -0.8960    0.8930    1.5000 o         1 074     -0.630100
     16 C9         -1.8600   -2.0470    0.6360 c3        1 074     -0.086700
     17 C11        -2.1660   -2.0450    2.1280 c3        1 074     -0.070400
     18 C10        -1.6850   -3.4540    0.1110 c3        1 074     -0.082100
     19 C12        -3.6320   -2.2890    2.3860 c3        1 074     -0.103100
     20 N3         -1.5840    0.9370   -0.6920 n         1 074     -0.420800
     21 C17        -2.6560    1.9320   -0.5630 c3        1 074     -0.039300
     22 C18        -3.9860    1.4090    0.0820 c         1 074      0.912600
     23 O          -4.1520    0.1660    0.2350 o         1 074     -0.833800
     24 C16        -2.9690    2.3810   -2.0060 c3        1 074     -0.071400
     25 C15        -2.4620    1.2590   -2.9100 c3        1 074     -0.080400
     26 C14        -1.6700    0.3020   -1.9980 c3        1 074      0.081000
     27 OT         -4.8320    2.2920    0.3830 o         1 074     -0.833800
     28 H11         4.8680    4.1790   -0.9010 hc        1 074      0.032367
     29 H12         4.4120    3.6890   -2.5830 hc        1 074      0.032367
     30 H13         3.1910    4.4910   -1.5110 hc        1 074      0.032367
     31 H21         3.2040    2.5330    0.0280 hc        1 074      0.055700
     32 H22         2.7500    2.0420   -1.6490 hc        1 074      0.055700
     33 H31         5.1570    1.3720   -2.0950 h1        1 074      0.055200
     34 H32         5.5880    1.8260   -0.3790 h1        1 074      0.055200
     35 HN11        3.6430   -0.3320   -1.0790 hn        1 074      0.342500
     36 H51         4.2100   -2.4980    0.1000 h1        1 074      0.111700
     37 HO21        5.5450   -1.7570    2.4660 ho        1 074      0.423000
     38 H61         2.7600   -2.4950    2.3340 hc        1 074      0.082700
     39 H62         2.9180   -0.6890    2.2680 hc        1 074      0.082700
     40 HN21        0.4070   -1.2310    2.0850 hn        1 074      0.321500
     41 H81        -0.3180   -1.4170   -0.7790 h1        1 074      0.089700
     42 H91        -2.7400   -1.5560    0.1100 hc        1 074      0.133700
     43 H111       -1.5460   -2.8210    2.6480 hc        1 074      0.035700
     44 H112       -1.8950   -1.0410    2.5560 hc        1 074      0.035700
     45 H101       -1.5300   -3.4410   -0.9960 hc        1 074      0.026367
     46 H102       -0.8070   -3.9550    0.5840 hc        1 074      0.026367
     47 H103       -2.5990   -4.0570    0.3330 hc        1 074      0.026367
     48 H121       -3.8390   -2.2660    3.4820 hc        1 074      0.042033
     49 H122       -4.2410   -1.4900    1.8840 hc        1 074      0.042033
     50 H123       -3.9480   -3.2840    1.9880 hc        1 074      0.042033
     51 H171       -2.2750    2.7800    0.0650 h1        1 074      0.072700
     52 H161       -2.4470    3.3410   -2.2400 hc        1 074      0.047200
     53 H162       -4.0680    2.5440   -2.1190 hc        1 074      0.047200
     54 H151       -1.8060    1.6570   -3.7210 hc        1 074      0.033700
     55 H152       -3.3120    0.7140   -3.3860 hc        1 074      0.033700
     56 H141       -0.6320    0.1360   -2.3950 h1        1 074      0.033700
     57 H142       -2.1950   -0.6930   -1.9410 h1        1 074      0.033700
@<TRIPOS>BOND
     1    1    2 1   
     2    1   28 1   
     3    1   29 1   
     4    1   30 1   
     5    2    3 1   
     6    2   31 1   
     7    2   32 1   
     8    3    4 1   
     9    3   33 1   
    10    3   34 1   
    11    4    5 1   
    12    4   35 1   
    13    5    6 2   
    14    5    7 1   
    15    7    8 1   
    16    7    9 1   
    17    7   36 1   
    18    8   37 1   
    19    9   10 1   
    20    9   38 1   
    21    9   39 1   
    22   10   11 2   
    23   10   12 1   
    24   12   13 1   
    25   12   40 1   
    26   13   14 1   
    27   13   16 1   
    28   13   41 1   
    29   14   15 2   
    30   14   20 1   
    31   16   17 1   
    32   16   18 1   
    33   16   42 1   
    34   17   19 1   
    35   17   43 1   
    36   17   44 1   
    37   18   45 1   
    38   18   46 1   
    39   18   47 1   
    40   19   48 1   
    41   19   49 1   
    42   19   50 1   
    43   20   21 1   
    44   20   26 1   
    45   21   22 1   
    46   21   24 1   
    47   21   51 1   
    48   22   23 1   
    49   22   27 1   
    50   24   25 1   
    51   24   52 1   
    52   24   53 1   
    53   25   26 1   
    54   25   54 1   
    55   25   55 1   
    56   26   56 1   
    57   26   57 1   
@<TRIPOS>SUBSTRUCTURE
     1 074         1 TEMP              0 ****  ****    0 ROOT
