@<TRIPOS>MOLECULE
076
   74    77     1     0     0
SMALL
bcc


@<TRIPOS>ATOM
      1 C1         -2.2210   -0.6530    1.1030 c         1 076      0.665100
      2 O1         -1.4160   -0.4680    2.0430 o         1 076     -0.633100
      3 C2         -3.6740   -0.2230    1.2920 c3        1 076      0.055400
      4 O2         -4.5100   -0.9790    0.4160 os        1 076     -0.340900
      5 C3         -5.8620   -0.6790    0.4760 ca        1 076      0.122100
      6 C4         -6.6630   -1.4330   -0.4020 ca        1 076     -0.175500
      7 C5         -8.0350   -1.2100   -0.4210 ca        1 076     -0.096000
      8 C6         -8.6100   -0.2540    0.4190 ca        1 076     -0.158000
      9 C7         -7.8070    0.4850    1.2850 ca        1 076     -0.096000
     10 C8         -6.4270    0.2810    1.3220 ca        1 076     -0.175500
     11 N1         -1.8180   -1.1680   -0.1020 n         1 076     -0.544900
     12 C9         -0.4670   -1.6050   -0.3410 c3        1 076      0.042700
     13 C13         0.4300   -0.4320   -0.8270 c         1 076      0.641100
     14 O3          0.9870   -0.4490   -1.9430 o         1 076     -0.619100
     15 C10        -0.3630   -2.7820   -1.3340 c3        1 076     -0.064700
     16 C11        -0.8190   -4.0640   -0.6700 c3        1 076     -0.097600
     17 C12        -1.1180   -2.5490   -2.6230 c3        1 076     -0.097600
     18 C27         7.0470   -2.5950    0.9100 ca        1 076     -0.124500
     19 C28         8.3630   -2.8370    1.3020 ca        1 076     -0.129500
     20 C29         9.3480   -1.8740    1.0820 ca        1 076     -0.131000
     21 C30         9.0140   -0.6670    0.4670 ca        1 076     -0.129500
     22 C31         7.7000   -0.4230    0.0720 ca        1 076     -0.124500
     23 C26         6.7070   -1.3870    0.2920 ca        1 076     -0.083300
     24 C24         4.8240    0.2330    0.2080 cx        1 076      0.074100
     25 O5          4.9670    1.2500   -0.7990 os        1 076     -0.403600
     26 C23         3.6330    0.8200   -0.4730 cx        1 076      0.016100
     27 C22         2.7810    1.8610    0.2200 c3        1 076      0.132100
     28 O4          2.8420    1.7560    1.6300 oh        1 076     -0.590800
     29 C14         1.3150    1.8140   -0.2990 c3        1 076      0.076700
     30 C15         0.6070    3.0790    0.2220 c3        1 076     -0.053100
     31 C16        -0.8030    3.1940   -0.2350 ca        1 076     -0.080300
     32 C17        -1.0970    3.3410   -1.5970 ca        1 076     -0.125500
     33 C18        -2.4180    3.4750   -2.0210 ca        1 076     -0.135000
     34 C19        -3.4570    3.4690   -1.0900 ca        1 076     -0.130000
     35 C20        -3.1700    3.3250    0.2670 ca        1 076     -0.135000
     36 C21        -1.8500    3.1890    0.6940 ca        1 076     -0.125500
     37 N2          0.6260    0.5990    0.0640 n         1 076     -0.563900
     38 H30        -3.9630   -0.4130    2.3600 h1        1 076      0.079700
     39 H31        -3.7460    0.8740    1.0520 h1        1 076      0.079700
     40 H32        -6.1960   -2.1830   -1.0560 ha        1 076      0.143500
     41 H33        -8.6700   -1.7940   -1.1040 ha        1 076      0.136500
     42 H34        -9.6970   -0.0860    0.3970 ha        1 076      0.137000
     43 H35        -8.2590    1.2380    1.9480 ha        1 076      0.136500
     44 H36        -5.8090    0.8710    2.0110 ha        1 076      0.143500
     45 H29        -2.4920   -1.3200   -0.8180 hn        1 076      0.339500
     46 H21        -0.0300   -1.9540    0.6480 h1        1 076      0.088700
     47 H22         0.7340   -2.8730   -1.5860 hc        1 076      0.078700
     48 H26        -1.8970   -4.0060   -0.3870 hc        1 076      0.041867
     49 H27        -0.6860   -4.9210   -1.3750 hc        1 076      0.041867
     50 H28        -0.2210   -4.2680    0.2510 hc        1 076      0.041867
     51 H23        -0.8920   -1.5300   -3.0240 hc        1 076      0.041867
     52 H24        -0.8010   -3.3040   -3.3830 hc        1 076      0.041867
     53 H25        -2.2210   -2.6530   -2.4800 hc        1 076      0.041867
     54 H2          8.6230   -3.7890    1.7870 ha        1 076      0.131000
     55 H3         10.3850   -2.0660    1.3920 ha        1 076      0.130000
     56 H4          9.7880    0.0940    0.2910 ha        1 076      0.131000
     57 H5          7.4290    0.5280   -0.4130 ha        1 076      0.138000
     58 H8          5.0930    0.5780    1.2280 h1        1 076      0.105700
     59 H9          3.1270    0.2680   -1.2950 h1        1 076      0.122700
     60 H10         3.2020    2.8870    0.0060 h1        1 076      0.096700
     61 H11         2.5920    0.8560    1.8710 ho        1 076      0.405000
     62 H12         1.3640    1.8660   -1.4310 h1        1 076      0.086700
     63 H13         0.6630    3.0910    1.3440 hc        1 076      0.067700
     64 H14         1.1850    3.9670   -0.1510 hc        1 076      0.067700
     65 H15        -0.2800    3.3480   -2.3340 ha        1 076      0.136000
     66 H16        -2.6400    3.5890   -3.0930 ha        1 076      0.130500
     67 H17        -4.4980    3.5790   -1.4260 ha        1 076      0.133000
     68 H18        -3.9860    3.3300    1.0040 ha        1 076      0.130500
     69 H19        -1.6290    3.0820    1.7670 ha        1 076      0.136000
     70 H20         0.1430    0.5950    0.9360 hn        1 076      0.337500
     71 C25         5.3100   -1.1390   -0.1560 c3        1 076     -0.033100
     72 H1          6.2740   -3.3580    1.0870 ha        1 076      0.138000
     73 H6          5.2580   -1.2740   -1.2720 hc        1 076      0.064200
     74 H7          4.6140   -1.8890    0.3080 hc        1 076      0.064200
@<TRIPOS>BOND
     1    1    2 2   
     2    1    3 1   
     3    1   11 1   
     4    3    4 1   
     5    3   38 1   
     6    3   39 1   
     7    4    5 1   
     8    5    6 ar  
     9    5   10 ar  
    10    6    7 ar  
    11    6   40 1   
    12    7    8 ar  
    13    7   41 1   
    14    8    9 ar  
    15    8   42 1   
    16    9   10 ar  
    17    9   43 1   
    18   10   44 1   
    19   11   12 1   
    20   11   45 1   
    21   12   13 1   
    22   12   15 1   
    23   12   46 1   
    24   13   14 2   
    25   13   37 1   
    26   15   16 1   
    27   15   17 1   
    28   15   47 1   
    29   16   48 1   
    30   16   49 1   
    31   16   50 1   
    32   17   51 1   
    33   17   52 1   
    34   17   53 1   
    35   18   19 ar  
    36   18   23 ar  
    37   18   72 1   
    38   19   20 ar  
    39   19   54 1   
    40   20   21 ar  
    41   20   55 1   
    42   21   22 ar  
    43   21   56 1   
    44   22   23 ar  
    45   22   57 1   
    46   23   71 1   
    47   24   25 1   
    48   24   26 1   
    49   24   58 1   
    50   24   71 1   
    51   25   26 1   
    52   26   27 1   
    53   26   59 1   
    54   27   28 1   
    55   27   29 1   
    56   27   60 1   
    57   28   61 1   
    58   29   30 1   
    59   29   37 1   
    60   29   62 1   
    61   30   31 1   
    62   30   63 1   
    63   30   64 1   
    64   31   32 ar  
    65   31   36 ar  
    66   32   33 ar  
    67   32   65 1   
    68   33   34 ar  
    69   33   66 1   
    70   34   35 ar  
    71   34   67 1   
    72   35   36 ar  
    73   35   68 1   
    74   36   69 1   
    75   37   70 1   
    76   71   73 1   
    77   71   74 1   
@<TRIPOS>SUBSTRUCTURE
     1 076         1 TEMP              0 ****  ****    0 ROOT
