@<TRIPOS>MOLECULE
077
   37    38     1     0     0
SMALL
bcc


@<TRIPOS>ATOM
      1 C1         -0.0530   -0.3530    0.0410 ca        1 077     -0.133000
      2 C2          1.3120    0.4000    2.3520 ca        1 077     -0.123500
      3 C3          1.3400   -0.3660    0.0590 ca        1 077     -0.123500
      4 C4         -0.7660    0.0370    1.1730 ca        1 077     -0.140000
      5 C5         -0.0810    0.4120    2.3280 ca        1 077     -0.133000
      6 C6          2.0390    0.0110    1.2160 cp        1 077     -0.016000
      7 C8          3.4990   -0.0030    1.2380 cp        1 077     -0.067000
      8 O1         10.3190   -0.7060    0.0630 oh        1 077     -0.660800
      9 C10         4.2330    0.4290    0.1250 ca        1 077     -0.117500
     10 C11         5.5820   -0.4600    2.3930 ca        1 077     -0.134500
     11 C12         8.3760   -1.4280    1.2150 c3        1 077     -0.076400
     12 C20         9.9050   -1.3960    1.2340 c3        1 077      0.172100
     13 C13         6.3160   -0.0250    1.2820 ca        1 077     -0.045300
     14 C14         4.1910   -0.4480    2.3740 ca        1 077     -0.117500
     15 C60         5.6250    0.4190    0.1480 ca        1 077     -0.134500
     16 C16         7.8030   -0.0270    1.3140 c3        1 077     -0.046100
     17 C17        10.4750   -2.8040    1.2980 c3        1 077     -0.234400
     18 C18        11.9950   -2.7920    1.5250 c         1 077      0.909600
     19 O3         12.6880   -1.9400    0.8880 o         1 077     -0.847300
     20 O4         12.4840   -3.6390    2.3230 o         1 077     -0.847300
     21 H1         -0.5900   -0.6530   -0.8710 ha        1 077      0.125000
     22 H3          1.9000   -0.6810   -0.8340 ha        1 077      0.136000
     23 H4         -1.8650    0.0460    1.1570 ha        1 077      0.123000
     24 H2          1.8500    0.7020    3.2630 ha        1 077      0.136000
     25 H5         -0.6390    0.7210    3.2230 ha        1 077      0.125000
     26 H10         3.7040    0.7840   -0.7720 ha        1 077      0.125500
     27 H14         3.6280   -0.8000    3.2520 ha        1 077      0.125500
     28 H20        10.2570   -0.8110    2.1330 h1        1 077      0.024700
     29 H60         6.1900    0.7600   -0.7330 ha        1 077      0.137500
     30 H11         6.1170   -0.8200    3.2850 ha        1 077      0.137500
     31 H121        8.0150   -2.0500    2.0740 hc        1 077      0.039200
     32 H122        8.0320   -1.9110    0.2660 hc        1 077      0.039200
     33 H161        8.2160    0.5860    0.4680 hc        1 077      0.058200
     34 H162        8.1520    0.4490    2.2710 hc        1 077      0.058200
     35 H171       10.2740   -3.3340    0.3330 hc        1 077      0.035200
     36 H172        9.9840   -3.3740    2.1240 hc        1 077      0.035200
     37 HA         11.2770   -0.8660   -0.0230 ho        1 077      0.457000
@<TRIPOS>BOND
     1    1    3 ar  
     2    1    4 ar  
     3    1   21 1   
     4    2    5 ar  
     5    2    6 ar  
     6    2   24 1   
     7    3    6 ar  
     8    3   22 1   
     9    4    5 ar  
    10    4   23 1   
    11    5   25 1   
    12    6    7 1   
    13    7    9 ar  
    14    7   14 ar  
    15    8   12 1   
    16    8   37 1   
    17    9   15 ar  
    18    9   26 1   
    19   10   13 ar  
    20   10   14 ar  
    21   10   30 1   
    22   11   12 1   
    23   11   16 1   
    24   11   31 1   
    25   11   32 1   
    26   12   17 1   
    27   12   28 1   
    28   13   15 ar  
    29   13   16 1   
    30   14   27 1   
    31   15   29 1   
    32   16   33 1   
    33   16   34 1   
    34   17   18 1   
    35   17   35 1   
    36   17   36 1   
    37   18   19 1   
    38   18   20 1   
@<TRIPOS>SUBSTRUCTURE
     1 077         1 TEMP              0 ****  ****    0 ROOT
