@<TRIPOS>MOLECULE
077
   37    38     1     0     0
SMALL
bcc


@<TRIPOS>ATOM
      1 C1         -0.0500   -0.3530    0.0330 ca        1 077     -0.133000
      2 C2          1.3090    0.3920    2.3510 ca        1 077     -0.123500
      3 C3          1.3430   -0.3650    0.0550 ca        1 077     -0.123500
      4 C4         -0.7670    0.0320    1.1660 ca        1 077     -0.140000
      5 C5         -0.0840    0.4040    2.3240 ca        1 077     -0.133000
      6 C6          2.0380    0.0080    1.2160 cp        1 077     -0.016000
      7 C8          3.4990   -0.0040    1.2410 cp        1 077     -0.067000
      8 O1         10.3200   -0.6910    0.0720 oh        1 077     -0.660800
      9 C10         4.2350    0.4320    0.1310 ca        1 077     -0.117500
     10 C11         5.5790   -0.4650    2.3990 ca        1 077     -0.134500
     11 C12         8.3760   -1.4250    1.2150 c3        1 077     -0.076400
     12 C20         9.9050   -1.3930    1.2360 c3        1 077      0.172100
     13 C13         6.3150   -0.0240    1.2920 ca        1 077     -0.045300
     14 C14         4.1880   -0.4540    2.3770 ca        1 077     -0.117500
     15 C60         5.6270    0.4240    0.1580 ca        1 077     -0.134500
     16 C16         7.8020   -0.0260    1.3270 c3        1 077     -0.046100
     17 C17        10.4760   -2.8010    1.2870 c3        1 077     -0.234400
     18 C18        11.9960   -2.7910    1.5150 c         1 077      0.909600
     19 O3         12.6890   -1.9310    0.8880 o         1 077     -0.847300
     20 O4         12.4850   -3.6450    2.3040 o         1 077     -0.847300
     21 H1         -0.5840   -0.6500   -0.8810 ha        1 077      0.125000
     22 H3          1.9050   -0.6760   -0.8380 ha        1 077      0.136000
     23 H4         -1.8660    0.0410    1.1470 ha        1 077      0.123000
     24 H2          1.8440    0.6910    3.2640 ha        1 077      0.136000
     25 H5         -0.6450    0.7080    3.2190 ha        1 077      0.125000
     26 H10         3.7080    0.7910   -0.7650 ha        1 077      0.125500
     27 H14         3.6240   -0.8100    3.2510 ha        1 077      0.125500
     28 H20        10.2560   -0.8170    2.1400 h1        1 077      0.024700
     29 H60         6.1940    0.7680   -0.7200 ha        1 077      0.137500
     30 H11         6.1130   -0.8280    3.2910 ha        1 077      0.137500
     31 H121        8.0150   -2.0550    2.0680 hc        1 077      0.039200
     32 H122        8.0330   -1.9000    0.2610 hc        1 077      0.039200
     33 H161        8.2170    0.5960    0.4870 hc        1 077      0.058200
     34 H162        8.1490    0.4400    2.2880 hc        1 077      0.058200
     35 H171       10.2760   -3.3220    0.3170 hc        1 077      0.035700
     36 H172        9.9850   -3.3790    2.1070 hc        1 077      0.035700
     37 HA         11.2780   -0.8500   -0.0150 ho        1 077      0.457000
@<TRIPOS>BOND
     1    1    3 ar  
     2    1    4 ar  
     3    1   21 1   
     4    2    5 ar  
     5    2    6 ar  
     6    2   24 1   
     7    3    6 ar  
     8    3   22 1   
     9    4    5 ar  
    10    4   23 1   
    11    5   25 1   
    12    6    7 1   
    13    7    9 ar  
    14    7   14 ar  
    15    8   12 1   
    16    8   37 1   
    17    9   15 ar  
    18    9   26 1   
    19   10   13 ar  
    20   10   14 ar  
    21   10   30 1   
    22   11   12 1   
    23   11   16 1   
    24   11   31 1   
    25   11   32 1   
    26   12   17 1   
    27   12   28 1   
    28   13   15 ar  
    29   13   16 1   
    30   14   27 1   
    31   15   29 1   
    32   16   33 1   
    33   16   34 1   
    34   17   18 1   
    35   17   35 1   
    36   17   36 1   
    37   18   19 1   
    38   18   20 1   
@<TRIPOS>SUBSTRUCTURE
     1 077         1 TEMP              0 ****  ****    0 ROOT
