@<TRIPOS>MOLECULE
077
   37    38     1     0     0
SMALL
bcc


@<TRIPOS>ATOM
      1 C1         -0.0190    0.5110    0.0230 ca        1 077     -0.133000
      2 C2          1.2830   -0.4530    2.2920 ca        1 077     -0.124000
      3 C3          1.3740    0.4950    0.0700 ca        1 077     -0.124000
      4 C4         -0.7630    0.0460    1.1070 ca        1 077     -0.140000
      5 C5         -0.1090   -0.4360    2.2400 ca        1 077     -0.133000
      6 C6          2.0400    0.0130    1.2070 cp        1 077     -0.016000
      7 C8          3.5000   -0.0030    1.2590 cp        1 077     -0.068000
      8 O1         10.2090   -0.7800   -0.0300 oh        1 077     -0.661800
      9 C10         4.2500   -0.3580    0.1280 ca        1 077     -0.117500
     10 C11         5.5660    0.3220    2.4870 ca        1 077     -0.135000
     11 C12         8.3760   -1.4370    1.3240 c3        1 077     -0.076400
     12 C20         9.9010   -1.3990    1.2120 c3        1 077      0.172100
     13 C13         6.3150   -0.0320    1.3590 ca        1 077     -0.045300
     14 C14         4.1750    0.3350    2.4400 ca        1 077     -0.117500
     15 C60         5.6400   -0.3730    0.1790 ca        1 077     -0.135000
     16 C16         7.8020   -0.0360    1.3990 c3        1 077     -0.047100
     17 C17        10.4880   -2.7970    1.3110 c3        1 077     -0.234400
     18 C18        12.0230   -2.7670    1.4030 c         1 077      0.909600
     19 O3         12.6490   -1.9470    0.6630 o         1 077     -0.847800
     20 O4         12.5870   -3.5660    2.1980 o         1 077     -0.847800
     21 H1         -0.5310    0.8920   -0.8720 ha        1 077      0.125000
     22 H3          1.9580    0.8670   -0.7850 ha        1 077      0.136000
     23 H4         -1.8610    0.0580    1.0670 ha        1 077      0.123000
     24 H2          1.7960   -0.8410    3.1850 ha        1 077      0.136000
     25 H5         -0.6920   -0.8070    3.0950 ha        1 077      0.125000
     26 H10         3.7340   -0.6340   -0.8030 ha        1 077      0.125000
     27 H14         3.6000    0.6190    3.3340 ha        1 077      0.125000
     28 H20        10.3220   -0.7580    2.0400 h1        1 077      0.025700
     29 H60         6.2230   -0.6580   -0.7100 ha        1 077      0.138000
     30 H11         6.0830    0.5910    3.4210 ha        1 077      0.138000
     31 H121        7.9570   -1.9690    0.4310 hc        1 077      0.039200
     32 H122        8.0960   -2.0180    2.2390 hc        1 077      0.039200
     33 H161        8.1650    0.4640    2.3370 hc        1 077      0.058700
     34 H162        8.2010    0.5570    0.5300 hc        1 077      0.058700
     35 H171       10.0780   -3.3170    2.2120 hc        1 077      0.035200
     36 H172       10.2090   -3.3870    0.4030 hc        1 077      0.035200
     37 HA         11.1580   -0.9370   -0.1860 ho        1 077      0.457000
@<TRIPOS>BOND
     1    1    3 ar  
     2    1    4 ar  
     3    1   21 1   
     4    2    5 ar  
     5    2    6 ar  
     6    2   24 1   
     7    3    6 ar  
     8    3   22 1   
     9    4    5 ar  
    10    4   23 1   
    11    5   25 1   
    12    6    7 1   
    13    7    9 ar  
    14    7   14 ar  
    15    8   12 1   
    16    8   37 1   
    17    9   15 ar  
    18    9   26 1   
    19   10   13 ar  
    20   10   14 ar  
    21   10   30 1   
    22   11   12 1   
    23   11   16 1   
    24   11   31 1   
    25   11   32 1   
    26   12   17 1   
    27   12   28 1   
    28   13   15 ar  
    29   13   16 1   
    30   14   27 1   
    31   15   29 1   
    32   16   33 1   
    33   16   34 1   
    34   17   18 1   
    35   17   35 1   
    36   17   36 1   
    37   18   19 1   
    38   18   20 1   
@<TRIPOS>SUBSTRUCTURE
     1 077         1 TEMP              0 ****  ****    0 ROOT
