@<TRIPOS>MOLECULE
077
   37    31     1     0     0
SMALL
bcc


@<TRIPOS>ATOM
      1 C1         -4.8380    2.1720   -0.4420 c1        1 077     -0.131167
      2 C2         -3.2810    2.5220    1.8240 c1        1 077     -0.131167
      3 C3         -3.4610    2.0390   -0.5210 c1        1 077     -0.121000
      4 C4         -5.4370    2.4790    0.7690 c1        1 077     -0.131167
      5 C5         -4.6580    2.6540    1.9020 c1        1 077     -0.131167
      6 C6         -2.6820    2.2140    0.6130 c1        1 077     -0.042000
      7 C8         -1.3090    2.0390    0.5440 c1        1 077     -0.042000
      8 O1          2.4000   -3.3110   -0.9830 oh        1 077     -0.389000
      9 C10        -1.0510    0.8280    1.1670 c1        1 077     -0.121000
     10 C11         0.2540    1.4810   -1.1910 c1        1 077     -0.131167
     11 C12         2.6010   -1.0290   -0.3200 c3        1 077     -0.155000
     12 C20         3.3250   -2.2650   -0.8090 c3        1 077      0.061000
     13 C13         0.5130    0.2690   -0.5680 c1        1 077     -0.038000
     14 C14        -0.6570    2.3650   -0.6350 c1        1 077     -0.131167
     15 C60        -0.1400   -0.0570    0.6110 c1        1 077     -0.131000
     16 C16         1.4270   -0.7400   -1.2300 c3        1 077     -0.133000
     17 C17         4.3640   -2.6760    0.2090 c3        1 077     -0.263000
     18 C18         4.3460   -4.1800    0.3690 c2        1 077      0.329000
     19 O3          3.5240   -4.7190    1.1560 o         1 077     -0.582500
     20 O4          5.1360   -4.8950   -0.3030 o         1 077     -0.582500
     21 H1         -5.3870    2.0480   -1.2410 ha        1 077      0.127667
     22 H3         -3.0370    1.8480   -1.3790 ha        1 077      0.130000
     23 H4         -6.4070    2.5720    0.8240 ha        1 077      0.127667
     24 H2         -2.7330    2.6450    2.6220 ha        1 077      0.127667
     25 H5         -5.0800    2.8710    2.7560 ha        1 077      0.127667
     26 H10        -1.5190    0.5930    1.9900 ha        1 077      0.130000
     27 H14        -0.8400    3.2180   -1.0740 ha        1 077      0.127667
     28 HA          2.5170   -3.6800   -1.7840 ho        1 077      0.256000
     29 H20         3.7620   -2.0710   -1.6610 h1        1 077      0.065000
     30 H60         0.0420   -0.9090    1.0500 ha        1 077      0.144000
     31 H11         0.7130    1.7110   -2.0210 ha        1 077      0.127667
     32 H121        3.2150   -0.2670   -0.3280 hc        1 077      0.078500
     33 H122        2.2790   -1.1790    0.5910 hc        1 077      0.078500
     34 H161        1.7520   -0.3780   -2.0780 hc        1 077      0.098000
     35 H162        0.9320   -1.5670   -1.3960 hc        1 077      0.098000
     36 H171        5.2490   -2.3910   -0.0960 hc        1 077      0.074500
     37 H172        4.1640   -2.2540    1.0680 hc        1 077      0.074500
@<TRIPOS>BOND
     1    1    4 1   
     2    1   21 1   
     3    2    5 1   
     4    2   24 1   
     5    3    6 1   
     6    3   22 1   
     7    4   23 1   
     8    5   25 1   
     9    7    9 1   
    10    8   12 1   
    11    8   28 1   
    12    9   26 1   
    13   10   14 1   
    14   10   31 1   
    15   11   12 1   
    16   11   16 1   
    17   11   32 1   
    18   11   33 1   
    19   12   17 1   
    20   12   29 1   
    21   13   15 1   
    22   13   16 1   
    23   14   27 1   
    24   15   30 1   
    25   16   34 1   
    26   16   35 1   
    27   17   18 1   
    28   17   36 1   
    29   17   37 1   
    30   18   19 1   
    31   18   20 1   
@<TRIPOS>SUBSTRUCTURE
     1 077         1 TEMP              0 ****  ****    0 ROOT
