@<TRIPOS>MOLECULE
077
   37    38     1     0     0
SMALL
bcc


@<TRIPOS>ATOM
      1 C1          6.3400   -0.9780   -0.5420 ca        1 077     -0.133000
      2 C2          4.8240    1.3290   -0.1470 ca        1 077     -0.124000
      3 C3          4.9760   -1.0800   -0.2740 ca        1 077     -0.124000
      4 C4          6.9490    0.2750   -0.6140 ca        1 077     -0.140000
      5 C5          6.1880    1.4260   -0.4170 ca        1 077     -0.133000
      6 C6          4.2030    0.0730   -0.0720 cp        1 077     -0.016000
      7 C8          2.7740   -0.0320    0.2100 cp        1 077     -0.068000
      8 O1         -3.9230   -1.5870    0.2180 oh        1 077     -0.661800
      9 C10         1.9830   -0.9780   -0.4570 ca        1 077     -0.117500
     10 C11         0.8080    0.7080    1.4230 ca        1 077     -0.135000
     11 C12        -2.2970    0.1080   -0.1060 c3        1 077     -0.076400
     12 C20        -3.7760   -0.1740    0.1640 c3        1 077      0.172100
     13 C13         0.0180   -0.2360    0.7570 ca        1 077     -0.045300
     14 C14         2.1700    0.8120    1.1520 ca        1 077     -0.117500
     15 C60         0.6220   -1.0770   -0.1880 ca        1 077     -0.135000
     16 C16        -1.4350   -0.3600    1.0500 c3        1 077     -0.047100
     17 C17        -4.6530    0.4490   -0.9100 c3        1 077     -0.234400
     18 C18        -6.1460    0.3510   -0.5540 c         1 077      0.909600
     19 O3         -6.5690   -0.7320   -0.0440 o         1 077     -0.847800
     20 O4         -6.8820    1.3450   -0.8000 o         1 077     -0.847800
     21 H1          6.9360   -1.8890   -0.6960 ha        1 077      0.125000
     22 H3          4.5000   -2.0700   -0.2120 ha        1 077      0.136000
     23 H4          8.0240    0.3530   -0.8270 ha        1 077      0.123000
     24 H2          4.2260    2.2400    0.0010 ha        1 077      0.136000
     25 H5          6.6630    2.4160   -0.4760 ha        1 077      0.125000
     26 H10         2.4420   -1.6410   -1.2070 ha        1 077      0.125000
     27 H14         2.7790    1.5560    1.6870 ha        1 077      0.125000
     28 H20        -4.0610    0.2490    1.1700 h1        1 077      0.025700
     29 H60         0.0050   -1.8180   -0.7200 ha        1 077      0.138000
     30 H11         0.3470    1.3760    2.1660 ha        1 077      0.138000
     31 H121       -1.9900   -0.4200   -1.0450 hc        1 077      0.039200
     32 H122       -2.1630    1.2080   -0.2660 hc        1 077      0.039200
     33 H161       -1.6960    0.2290    1.9690 hc        1 077      0.058700
     34 H162       -1.6830   -1.4370    1.2630 hc        1 077      0.058700
     35 H171       -4.3780    1.5230   -1.0460 hc        1 077      0.035200
     36 H172       -4.4940   -0.0840   -1.8800 hc        1 077      0.035200
     37 HA         -4.8810   -1.7640    0.1890 ho        1 077      0.457000
@<TRIPOS>BOND
     1    1    3 ar  
     2    1    4 ar  
     3    1   21 1   
     4    2    5 ar  
     5    2    6 ar  
     6    2   24 1   
     7    3    6 ar  
     8    3   22 1   
     9    4    5 ar  
    10    4   23 1   
    11    5   25 1   
    12    6    7 1   
    13    7    9 ar  
    14    7   14 ar  
    15    8   12 1   
    16    8   37 1   
    17    9   15 ar  
    18    9   26 1   
    19   10   13 ar  
    20   10   14 ar  
    21   10   30 1   
    22   11   12 1   
    23   11   16 1   
    24   11   31 1   
    25   11   32 1   
    26   12   17 1   
    27   12   28 1   
    28   13   15 ar  
    29   13   16 1   
    30   14   27 1   
    31   15   29 1   
    32   16   33 1   
    33   16   34 1   
    34   17   18 1   
    35   17   35 1   
    36   17   36 1   
    37   18   19 1   
    38   18   20 1   
@<TRIPOS>SUBSTRUCTURE
     1 077         1 TEMP              0 ****  ****    0 ROOT
