@<TRIPOS>MOLECULE
078
   48    49     1     0     0
SMALL
bcc


@<TRIPOS>ATOM
      1 C27        -0.5460    0.6860    0.6540 ca        1 078     -0.155000
      2 C28         0.8110    0.3790    0.5740 ca        1 078     -0.106500
      3 C29         1.3350   -0.6820    1.3140 ca        1 078     -0.090000
      4 C30         0.4960   -1.4350    2.1390 ca        1 078     -0.106500
      5 C31        -0.8620   -1.1280    2.2250 ca        1 078     -0.155000
      6 C26        -1.3930   -0.0670    1.4810 ca        1 078     -0.184300
      7 C25        -2.8140    0.3420    1.6410 c3        1 078     -0.089100
      8 C24        -3.8170   -0.7820    1.4000 c3        1 078      0.139100
      9 O5         -5.1460   -0.3560    1.6840 oh        1 078     -0.657800
     10 C23        -3.9040   -1.2510   -0.0810 c3        1 078      0.103500
     11 N3         -2.5670   -1.2660   -0.7530 n4        1 078     -0.833600
     12 C22        -4.5690   -2.6530   -0.2030 c3        1 078      0.106100
     13 O4         -4.7470   -2.8300   -1.5990 oh        1 078     -0.624800
     14 C14        -5.9220   -2.7770    0.5350 c3        1 078      0.096500
     15 C15        -6.4060   -4.2400    0.4780 c3        1 078     -0.047100
     16 C16        -7.7390   -4.3930    1.1160 ca        1 078     -0.183300
     17 C17        -7.8430   -4.5870    2.4980 ca        1 078     -0.132500
     18 C18        -9.0930   -4.7790    3.0860 ca        1 078     -0.106000
     19 C19       -10.2450   -4.7830    2.2980 ca        1 078     -0.081000
     20 C20       -10.1460   -4.5950    0.9170 ca        1 078     -0.106000
     21 C21        -8.8990   -4.4020    0.3260 ca        1 078     -0.132500
     22 N2         -6.9590   -1.8490   -0.0170 n4        1 078     -0.837600
     23 H1         -0.9350    1.5650    0.1150 ha        1 078      0.142000
     24 H2          1.4780    0.9930   -0.0560 ha        1 078      0.170000
     25 H3          2.4130   -0.9110    1.2660 ha        1 078      0.176000
     26 H4          0.9130   -2.2570    2.7450 ha        1 078      0.170000
     27 H5         -1.5010   -1.6920    2.9220 ha        1 078      0.142000
     28 H6         -3.0590    1.2100    0.9700 hc        1 078      0.093700
     29 H7         -2.9530    0.7060    2.7010 hc        1 078      0.093700
     30 H8         -3.5790   -1.6670    2.0580 h1        1 078      0.083700
     31 H9         -5.1140    0.3390    2.3590 ho        1 078      0.472000
     32 H10        -4.5370   -0.5050   -0.6540 hx        1 078      0.118700
     33 H11        -2.2160   -0.3000   -0.8480 hn        1 078      0.480133
     34 H12        -1.8860   -1.7860   -0.1800 hn        1 078      0.480133
     35 H14        -3.8930   -3.4450    0.2330 h1        1 078      0.100700
     36 H15        -4.8230   -3.7790   -1.7860 ho        1 078      0.465000
     37 H16        -5.7800   -2.4940    1.6250 hx        1 078      0.141700
     38 H17        -5.6460   -4.8670    1.0210 hc        1 078      0.086700
     39 H18        -6.4420   -4.5920   -0.5880 hc        1 078      0.086700
     40 H19        -6.9370   -4.6130    3.1230 ha        1 078      0.134000
     41 H20        -9.1690   -4.9450    4.1740 ha        1 078      0.167000
     42 H21       -11.2320   -4.9490    2.7620 ha        1 078      0.172000
     43 H22       -11.0530   -4.6190    0.2920 ha        1 078      0.167000
     44 H23        -8.8260   -4.3100   -0.7680 ha        1 078      0.134000
     45 H24        -6.7870   -0.8950    0.3210 hn        1 078      0.474133
     46 H25        -7.8920   -2.1660    0.3020 hn        1 078      0.474133
     47 H33        -2.6560   -1.7020   -1.6800 hn        1 078      0.480133
     48 H231       -6.9350   -1.8670   -1.0420 hn        1 078      0.474133
@<TRIPOS>BOND
     1    1    2 ar  
     2    1    6 ar  
     3    1   23 1   
     4    2    3 ar  
     5    2   24 1   
     6    3    4 ar  
     7    3   25 1   
     8    4    5 ar  
     9    4   26 1   
    10    5    6 ar  
    11    5   27 1   
    12    6    7 1   
    13    7    8 1   
    14    7   28 1   
    15    7   29 1   
    16    8    9 1   
    17    8   10 1   
    18    8   30 1   
    19    9   31 1   
    20   10   11 1   
    21   10   12 1   
    22   10   32 1   
    23   11   33 1   
    24   11   34 1   
    25   11   47 1   
    26   12   13 1   
    27   12   14 1   
    28   12   35 1   
    29   13   36 1   
    30   14   15 1   
    31   14   22 1   
    32   14   37 1   
    33   15   16 1   
    34   15   38 1   
    35   15   39 1   
    36   16   17 ar  
    37   16   21 ar  
    38   17   18 ar  
    39   17   40 1   
    40   18   19 ar  
    41   18   41 1   
    42   19   20 ar  
    43   19   42 1   
    44   20   21 ar  
    45   20   43 1   
    46   21   44 1   
    47   22   45 1   
    48   22   46 1   
    49   22   48 1   
@<TRIPOS>SUBSTRUCTURE
     1 078         1 TEMP              0 ****  ****    0 ROOT
