@<TRIPOS>MOLECULE
078
   48    49     1     0     0
SMALL
bcc


@<TRIPOS>ATOM
      1 C27        -0.5460    0.6940    0.7680 ca        1 078     -0.155000
      2 C28         0.8090    0.3930    0.6310 ca        1 078     -0.106500
      3 C29         1.3470   -0.7220    1.2770 ca        1 078     -0.090000
      4 C30         0.5270   -1.5340    2.0630 ca        1 078     -0.106500
      5 C31        -0.8270   -1.2330    2.2050 ca        1 078     -0.155000
      6 C26        -1.3740   -0.1190    1.5560 ca        1 078     -0.184300
      7 C25        -2.7890    0.2780    1.7800 c3        1 078     -0.089100
      8 C24        -3.8010   -0.8240    1.4800 c3        1 078      0.139100
      9 O5         -5.1210   -0.4190    1.8270 oh        1 078     -0.657800
     10 C23        -3.9250   -1.1790   -0.0300 c3        1 078      0.103500
     11 N3         -2.6050   -1.1450   -0.7330 n4        1 078     -0.833600
     12 C22        -4.5970   -2.5670   -0.2410 c3        1 078      0.106100
     13 O4         -4.8080   -2.6390   -1.6420 oh        1 078     -0.624800
     14 C14        -5.9320   -2.7450    0.5170 c3        1 078      0.096500
     15 C15        -6.4220   -4.2000    0.3610 c3        1 078     -0.047100
     16 C16        -7.7400   -4.3990    1.0180 ca        1 078     -0.183300
     17 C17        -7.8100   -4.6970    2.3840 ca        1 078     -0.132500
     18 C18        -9.0460   -4.9320    2.9860 ca        1 078     -0.106000
     19 C19       -10.2170   -4.8730    2.2280 ca        1 078     -0.081000
     20 C20       -10.1510   -4.5810    0.8640 ca        1 078     -0.106000
     21 C21        -8.9180   -4.3450    0.2590 ca        1 078     -0.132500
     22 N2         -6.9800   -1.7770    0.0620 n4        1 078     -0.837600
     23 H1         -0.9450    1.6120    0.3060 ha        1 078      0.142000
     24 H2          1.4620    1.0520    0.0340 ha        1 078      0.170000
     25 H3          2.4240   -0.9480    1.1860 ha        1 078      0.176000
     26 H4          0.9560   -2.4000    2.5950 ha        1 078      0.170000
     27 H5         -1.4510   -1.8470    2.8730 ha        1 078      0.142000
     28 H6         -2.9020    0.5610    2.8680 hc        1 078      0.093700
     29 H7         -3.0490    1.1950    1.1830 hc        1 078      0.093700
     30 H8         -3.5500   -1.7560    2.0630 h1        1 078      0.083700
     31 H9         -5.0710    0.2220    2.5530 ho        1 078      0.472000
     32 H10        -4.5690   -0.3910   -0.5290 hx        1 078      0.118700
     33 H11        -2.2530   -0.1750   -0.7630 hn        1 078      0.480133
     34 H12        -2.7160   -1.5100   -1.6880 hn        1 078      0.480133
     35 H14        -3.9130   -3.3910    0.1170 h1        1 078      0.100700
     36 H15        -4.8920   -3.5710   -1.8990 ho        1 078      0.465000
     37 H16        -5.7630   -2.5460    1.6220 hx        1 078      0.141700
     38 H17        -5.6510   -4.8670    0.8360 hc        1 078      0.086700
     39 H18        -6.4850   -4.4690   -0.7270 hc        1 078      0.086700
     40 H19        -6.8890   -4.7720    2.9830 ha        1 078      0.134000
     41 H20        -9.0960   -5.1800    4.0600 ha        1 078      0.167000
     42 H21       -11.1930   -5.0730    2.7030 ha        1 078      0.172000
     43 H22       -11.0740   -4.5560    0.2610 ha        1 078      0.167000
     44 H23        -8.8720   -4.1710   -0.8270 ha        1 078      0.134000
     45 H24        -6.7960   -0.8510    0.4670 hn        1 078      0.474133
     46 H25        -7.9050   -2.1160    0.3790 hn        1 078      0.474133
     47 H33        -1.9120   -1.7080   -0.2170 hn        1 078      0.480133
     48 H231       -6.9790   -1.7170   -0.9620 hn        1 078      0.474133
@<TRIPOS>BOND
     1    1    2 ar  
     2    1    6 ar  
     3    1   23 1   
     4    2    3 ar  
     5    2   24 1   
     6    3    4 ar  
     7    3   25 1   
     8    4    5 ar  
     9    4   26 1   
    10    5    6 ar  
    11    5   27 1   
    12    6    7 1   
    13    7    8 1   
    14    7   28 1   
    15    7   29 1   
    16    8    9 1   
    17    8   10 1   
    18    8   30 1   
    19    9   31 1   
    20   10   11 1   
    21   10   12 1   
    22   10   32 1   
    23   11   33 1   
    24   11   34 1   
    25   11   47 1   
    26   12   13 1   
    27   12   14 1   
    28   12   35 1   
    29   13   36 1   
    30   14   15 1   
    31   14   22 1   
    32   14   37 1   
    33   15   16 1   
    34   15   38 1   
    35   15   39 1   
    36   16   17 ar  
    37   16   21 ar  
    38   17   18 ar  
    39   17   40 1   
    40   18   19 ar  
    41   18   41 1   
    42   19   20 ar  
    43   19   42 1   
    44   20   21 ar  
    45   20   43 1   
    46   21   44 1   
    47   22   45 1   
    48   22   46 1   
    49   22   48 1   
@<TRIPOS>SUBSTRUCTURE
     1 078         1 TEMP              0 ****  ****    0 ROOT
