@<TRIPOS>MOLECULE
078
   46    41     1     0     0
SMALL
bcc


@<TRIPOS>ATOM
      1 C27         4.3000   -1.2040   -2.0140 c1        1 078     -0.066500
      2 C28         5.5720   -1.7490   -2.0730 c1        1 078     -0.071125
      3 C29         6.6550   -1.0380   -1.5790 c1        1 078     -0.071125
      4 C30         6.4650    0.2180   -1.0270 c1        1 078     -0.071125
      5 C31         5.1920    0.7640   -0.9680 c1        1 078     -0.071125
      6 C26         4.1090    0.0530   -1.4610 c1        1 078     -0.056100
      7 C25         2.7360    0.6890   -1.4850 c3        1 078     -0.104300
      8 C24         1.9500    0.2370   -0.2760 c3        1 078      0.148100
      9 O5          2.2440    1.0760    0.8160 oh        1 078     -0.620800
     10 C23         0.4710    0.3070   -0.5810 c3        1 078      0.192500
     11 N3          0.1470   -0.6520   -1.5810 n3        1 078     -0.905800
     12 C22        -0.3170    0.0120    0.6730 c3        1 078      0.096100
     13 O4         -0.0180   -1.2890    1.1190 oh        1 078     -0.603800
     14 C14        -1.7970    0.1160    0.3760 c3        1 078      0.134500
     15 C15        -2.4780    0.8990    1.4740 c3        1 078     -0.114300
     16 C16        -3.9720    0.6530    1.4190 c1        1 078     -0.050100
     17 C17        -4.7400    1.2780    0.4480 c1        1 078     -0.071125
     18 C18        -6.1200    1.1450    0.4630 c1        1 078     -0.071125
     19 C19        -6.7320    0.3870    1.4490 c1        1 078     -0.071125
     20 C20        -5.9650   -0.2370    2.4200 c1        1 078     -0.071125
     21 C21        -4.5850   -0.1040    2.4050 c1        1 078     -0.079500
     22 N2         -2.3600   -1.1890    0.3050 n3        1 078     -0.909800
     23 H1          3.5370   -1.7040   -2.3620 ha        1 078      0.078500
     24 H2          5.7060   -2.6340   -2.4620 ha        1 078      0.075000
     25 H3          7.5510   -1.4230   -1.6210 ha        1 078      0.075000
     26 H4          7.2270    0.7190   -0.6790 ha        1 078      0.075000
     27 H5          5.0580    1.6490   -0.5780 ha        1 078      0.075000
     28 H6          2.2660    0.4190   -2.2990 hc        1 078      0.071700
     29 H7          2.8270    1.6630   -1.4690 hc        1 078      0.071700
     30 H8          2.1940   -0.6830   -0.0540 h1        1 078      0.052700
     31 H9          2.7910    0.6530    1.3750 ho        1 078      0.411000
     32 H10         0.2470    1.2030   -0.9040 h1        1 078      0.067700
     33 H11        -0.0540   -1.4510   -1.1830 hn        1 078      0.365800
     34 H12        -0.5760   -0.3590   -2.0630 hn        1 078      0.365800
     35 H14        -0.0780    0.6570    1.3670 h1        1 078      0.068700
     36 H15         0.2460   -1.2590    1.9680 ho        1 078      0.401000
     37 H16        -1.9260    0.5730   -0.4790 h1        1 078      0.070700
     38 H17        -2.2990    1.8530    1.3530 hc        1 078      0.050700
     39 H18        -2.1320    0.6110    2.3420 hc        1 078      0.050700
     40 H19        -4.3090    1.8110   -0.2470 ha        1 078      0.075000
     41 H20        -6.6600    1.5850   -0.2210 ha        1 078      0.075000
     42 H21        -7.7040    0.2940    1.4590 ha        1 078      0.075000
     43 H22        -6.3970   -0.7700    3.1140 ha        1 078      0.075000
     44 H23        -4.0450   -0.5440    3.0890 ha        1 078      0.070500
     45 H24        -1.8530   -1.7670    0.8010 hn        1 078      0.356300
     46 H25        -2.3750   -1.4680   -0.5670 hn        1 078      0.356300
@<TRIPOS>BOND
     1    1    6 3   
     2    1   23 1   
     3    2    3 3   
     4    2   24 1   
     5    3   25 1   
     6    4    5 3   
     7    4   26 1   
     8    5   27 1   
     9    6    7 1   
    10    7    8 1   
    11    7   28 1   
    12    7   29 1   
    13    8    9 1   
    14    8   10 1   
    15    8   30 1   
    16    9   31 1   
    17   10   11 1   
    18   10   12 1   
    19   10   32 1   
    20   11   33 1   
    21   11   34 1   
    22   12   13 1   
    23   12   14 1   
    24   12   35 1   
    25   13   36 1   
    26   14   15 1   
    27   14   22 1   
    28   14   37 1   
    29   15   16 1   
    30   15   38 1   
    31   15   39 1   
    32   16   21 3   
    33   17   18 3   
    34   17   40 1   
    35   18   41 1   
    36   19   20 3   
    37   19   42 1   
    38   20   43 1   
    39   21   44 1   
    40   22   45 1   
    41   22   46 1   
@<TRIPOS>SUBSTRUCTURE
     1 078         1 TEMP              0 ****  ****    0 ROOT
