@<TRIPOS>MOLECULE
078
   46    47     1     0     0
SMALL
bcc


@<TRIPOS>ATOM
      1 C27        -4.9020    0.7900    0.5210 ca        1 078     -0.125500
      2 C28        -6.1530    0.5540    1.0870 ca        1 078     -0.126500
      3 C29        -6.9000   -0.5580    0.6970 ca        1 078     -0.132000
      4 C30        -6.3900   -1.4340   -0.2600 ca        1 078     -0.126500
      5 C31        -5.1370   -1.2010   -0.8260 ca        1 078     -0.125500
      6 C26        -4.3820   -0.0870   -0.4390 ca        1 078     -0.076300
      7 C25        -3.0580    0.1800   -1.0630 c3        1 078     -0.062100
      8 C24        -1.9080    0.1070   -0.0630 c3        1 078      0.145100
      9 O5         -1.8920   -1.1200    0.6500 oh        1 078     -0.593800
     10 C23        -0.5200    0.2730   -0.7510 c3        1 078      0.114500
     11 N3         -0.5050    1.3180   -1.7460 n3        1 078     -0.904800
     12 C22         0.5320    0.3910    0.3850 c3        1 078      0.103100
     13 O4          0.3470    1.5430    1.1850 oh        1 078     -0.589800
     14 C14         1.9760    0.2870   -0.1660 c3        1 078      0.132500
     15 C15         2.8870   -0.1850    0.9870 c3        1 078     -0.076100
     16 C16         4.3030   -0.3220    0.5590 ca        1 078     -0.086300
     17 C17         4.7850   -1.5470    0.0830 ca        1 078     -0.131500
     18 C18         6.1150   -1.6740   -0.3140 ca        1 078     -0.126000
     19 C19         6.9760   -0.5790   -0.2400 ca        1 078     -0.130000
     20 C20         6.5040    0.6440    0.2360 ca        1 078     -0.126000
     21 C21         5.1740    0.7730    0.6330 ca        1 078     -0.131500
     22 N2          2.4110    1.5050   -0.8220 n3        1 078     -0.912800
     23 H1         -4.3140    1.6670    0.8320 ha        1 078      0.129000
     24 H2         -6.5520    1.2470    1.8420 ha        1 078      0.129500
     25 H3         -7.8870   -0.7430    1.1430 ha        1 078      0.130000
     26 H4         -6.9750   -2.3120   -0.5700 ha        1 078      0.129500
     27 H5         -4.7410   -1.8950   -1.5810 ha        1 078      0.129000
     28 H6         -2.8640   -0.5510   -1.8930 hc        1 078      0.064700
     29 H7         -3.0790    1.2060   -1.5200 hc        1 078      0.064700
     30 H8         -2.0240    0.8910    0.7390 h1        1 078      0.085700
     31 H9         -2.0870   -1.8250    0.0210 ho        1 078      0.398000
     32 H10        -0.3030   -0.6980   -1.2900 h1        1 078      0.058700
     33 H11        -0.5910    2.2200   -1.3210 hn        1 078      0.358300
     34 H12         0.3430    1.2850   -2.2780 hn        1 078      0.358300
     35 H14         0.3550   -0.4610    1.1070 h1        1 078      0.101700
     36 H15         0.3340    2.3180    0.6110 ho        1 078      0.395000
     37 H16         1.9750   -0.5250   -0.9550 h1        1 078      0.062700
     38 H17         2.8040    0.5450    1.8360 hc        1 078      0.062700
     39 H18         2.5050   -1.1730    1.3580 hc        1 078      0.062700
     40 H19         4.1100   -2.4140    0.0260 ha        1 078      0.131000
     41 H20         6.4860   -2.6410   -0.6850 ha        1 078      0.133000
     42 H21         8.0260   -0.6810   -0.5520 ha        1 078      0.133000
     43 H22         7.1810    1.5080    0.3000 ha        1 078      0.133000
     44 H23         4.8070    1.7360    1.0180 ha        1 078      0.131000
     45 H24         2.4900    2.2480   -0.1520 hn        1 078      0.352800
     46 H25         3.3110    1.3610   -1.2400 hn        1 078      0.352800
@<TRIPOS>BOND
     1    1    2 ar  
     2    1    6 ar  
     3    1   23 1   
     4    2    3 ar  
     5    2   24 1   
     6    3    4 ar  
     7    3   25 1   
     8    4    5 ar  
     9    4   26 1   
    10    5    6 ar  
    11    5   27 1   
    12    6    7 1   
    13    7    8 1   
    14    7   28 1   
    15    7   29 1   
    16    8    9 1   
    17    8   10 1   
    18    8   30 1   
    19    9   31 1   
    20   10   11 1   
    21   10   12 1   
    22   10   32 1   
    23   11   33 1   
    24   11   34 1   
    25   12   13 1   
    26   12   14 1   
    27   12   35 1   
    28   13   36 1   
    29   14   15 1   
    30   14   22 1   
    31   14   37 1   
    32   15   16 1   
    33   15   38 1   
    34   15   39 1   
    35   16   17 ar  
    36   16   21 ar  
    37   17   18 ar  
    38   17   40 1   
    39   18   19 ar  
    40   18   41 1   
    41   19   20 ar  
    42   19   42 1   
    43   20   21 ar  
    44   20   43 1   
    45   21   44 1   
    46   22   45 1   
    47   22   46 1   
@<TRIPOS>SUBSTRUCTURE
     1 078         1 TEMP              0 ****  ****    0 ROOT
