@<TRIPOS>MOLECULE
078
   48    49     1     0     0
SMALL
bcc


@<TRIPOS>ATOM
      1 C27        -0.5630    0.7110    0.6550 ca        1 078     -0.155000
      2 C28         0.7970    0.4120    0.5920 ca        1 078     -0.106500
      3 C29         1.3210   -0.6360    1.3510 ca        1 078     -0.090000
      4 C30         0.4800   -1.3840    2.1780 ca        1 078     -0.106500
      5 C31        -0.8800   -1.0850    2.2470 ca        1 078     -0.155000
      6 C26        -1.4130   -0.0380    1.4840 ca        1 078     -0.184300
      7 C25        -2.8370    0.3630    1.6250 c3        1 078     -0.089100
      8 C24        -3.8300   -0.7720    1.3900 c3        1 078      0.139100
      9 O5         -5.1650   -0.3500    1.6550 oh        1 078     -0.657800
     10 C23        -3.9000   -1.2610   -0.0860 c3        1 078      0.103500
     11 N3         -2.5560   -1.2760   -0.7440 nz        1 078     -0.833600
     12 C22        -4.5550   -2.6680   -0.1940 c3        1 078      0.106100
     13 O4         -4.7170   -2.8660   -1.5890 oh        1 078     -0.624800
     14 C14        -5.9140   -2.7920    0.5310 c3        1 078      0.096500
     15 C15        -6.3880   -4.2590    0.4890 c3        1 078     -0.047100
     16 C16        -7.7270   -4.4110    1.1170 ca        1 078     -0.183300
     17 C17        -7.8430   -4.5880    2.5000 ca        1 078     -0.132500
     18 C18        -9.0970   -4.7800    3.0780 ca        1 078     -0.106000
     19 C19       -10.2410   -4.8010    2.2790 ca        1 078     -0.081000
     20 C20       -10.1300   -4.6300    0.8970 ca        1 078     -0.106000
     21 C21        -8.8780   -4.4370    0.3160 ca        1 078     -0.132500
     22 N2         -6.9520   -1.8780   -0.0430 nz        1 078     -0.837600
     23 H1         -0.9530    1.5800    0.1010 ha        1 078      0.142000
     24 H2          1.4650    1.0220   -0.0400 ha        1 078      0.170000
     25 H3          2.4020   -0.8580    1.3160 ha        1 078      0.176000
     26 H4          0.8970   -2.1950    2.7990 ha        1 078      0.170000
     27 H5         -1.5230   -1.6440    2.9460 ha        1 078      0.142000
     28 H6         -2.9890    0.7400    2.6790 hc        1 078      0.093700
     29 H7         -3.0830    1.2200    0.9400 hc        1 078      0.093700
     30 H8         -3.5930   -1.6450    2.0620 h1        1 078      0.083700
     31 H9         -5.1440    0.3530    2.3220 ho        1 078      0.472000
     32 H10        -4.5320   -0.5260   -0.6740 hx        1 078      0.118700
     33 H11        -2.6330   -1.7260   -1.6660 hn        1 078      0.480133
     34 H12        -2.2100   -0.3090   -0.8490 hn        1 078      0.480133
     35 H14        -3.8780   -3.4500    0.2580 h1        1 078      0.100700
     36 H15        -4.7850   -3.8180   -1.7650 ho        1 078      0.465000
     37 H16        -5.7850   -2.4930    1.6190 hx        1 078      0.141700
     38 H17        -6.4120   -4.6250   -0.5720 hc        1 078      0.086700
     39 H18        -5.6300   -4.8730    1.0480 hc        1 078      0.086700
     40 H19        -6.9430   -4.6000    3.1340 ha        1 078      0.134000
     41 H20        -9.1820   -4.9320    4.1670 ha        1 078      0.167000
     42 H21       -11.2320   -4.9660    2.7360 ha        1 078      0.172000
     43 H22       -11.0310   -4.6680    0.2630 ha        1 078      0.167000
     44 H23        -8.7960   -4.3590   -0.7790 ha        1 078      0.134000
     45 H24        -6.9170   -1.9090   -1.0680 hn        1 078      0.474133
     46 H25        -7.8850   -2.1960    0.2720 hn        1 078      0.474133
     47 H33        -1.8780   -1.7840   -0.1570 hn        1 078      0.480133
     48 H231       -6.7880   -0.9180    0.2830 hn        1 078      0.474133
@<TRIPOS>BOND
     1    1    2 ar  
     2    1    6 ar  
     3    1   23 1   
     4    2    3 ar  
     5    2   24 1   
     6    3    4 ar  
     7    3   25 1   
     8    4    5 ar  
     9    4   26 1   
    10    5    6 ar  
    11    5   27 1   
    12    6    7 1   
    13    7    8 1   
    14    7   28 1   
    15    7   29 1   
    16    8    9 1   
    17    8   10 1   
    18    8   30 1   
    19    9   31 1   
    20   10   11 1   
    21   10   12 1   
    22   10   32 1   
    23   11   33 1   
    24   11   34 1   
    25   11   47 1   
    26   12   13 1   
    27   12   14 1   
    28   12   35 1   
    29   13   36 1   
    30   14   15 1   
    31   14   22 1   
    32   14   37 1   
    33   15   16 1   
    34   15   38 1   
    35   15   39 1   
    36   16   17 ar  
    37   16   21 ar  
    38   17   18 ar  
    39   17   40 1   
    40   18   19 ar  
    41   18   41 1   
    42   19   20 ar  
    43   19   42 1   
    44   20   21 ar  
    45   20   43 1   
    46   21   44 1   
    47   22   45 1   
    48   22   46 1   
    49   22   48 1   
@<TRIPOS>SUBSTRUCTURE
     1 078         1 TEMP              0 ****  ****    0 ROOT
