@<TRIPOS>MOLECULE
079
   78    80     1     0     0
SMALL
bcc


@<TRIPOS>ATOM
      1 C1          4.4430   -0.8000   -0.0300 c         1 079      0.635100
      2 O1          4.7180   -1.3800    1.0420 o         1 079     -0.616100
      3 C2          5.3780   -0.9680   -1.2260 c3        1 079      0.061400
      4 O2          5.0700   -0.1400   -2.3400 os        1 079     -0.333900
      5 C3          5.4890    1.1840   -2.2380 ca        1 079      0.087100
      6 C4          4.5280    2.1690   -2.5090 ca        1 079     -0.151500
      7 C5          4.9190    3.5060   -2.5290 ca        1 079     -0.110500
      8 C6          6.2450    3.8580   -2.2730 ca        1 079     -0.140000
      9 C7          7.1920    2.8690   -2.0050 ca        1 079     -0.110500
     10 C8          6.8240    1.5250   -1.9890 ca        1 079     -0.151500
     11 N1          3.3250   -0.0120   -0.1670 n         1 079     -0.550900
     12 C9          2.3610    0.1680    0.8860 c3        1 079      0.049700
     13 C13         0.9560   -0.2700    0.4010 c         1 079      0.651100
     14 O3          0.5370    0.0190   -0.7440 o         1 079     -0.657100
     15 C10         2.2860    1.6260    1.4020 c3        1 079     -0.074700
     16 C11         1.9400    2.6150    0.3100 c3        1 079     -0.104100
     17 C12         1.2980    1.7240    2.5440 c3        1 079     -0.104100
     18 C27        -6.6760    1.8360   -2.7020 ca        1 079     -0.127500
     19 C28        -7.6510    2.8300   -2.7590 ca        1 079     -0.131000
     20 C29        -8.3370    3.2050   -1.6040 ca        1 079     -0.132000
     21 C30        -8.0440    2.5820   -0.3910 ca        1 079     -0.131000
     22 C31        -7.0700    1.5860   -0.3320 ca        1 079     -0.127500
     23 C26        -6.3780    1.2050   -1.4880 ca        1 079     -0.084300
     24 C24        -4.4330    0.2110   -0.2380 c3        1 079      0.142100
     25 O5         -5.0540   -0.3410    0.9150 oh        1 079     -0.601800
     26 C23        -3.0750   -0.5120   -0.4630 c3        1 079      0.110500
     27 N3         -2.4120   -0.1030   -1.6810 n3        1 079     -0.907800
     28 C22        -2.2330   -0.3340    0.8360 c3        1 079      0.082100
     29 O4         -1.7320    0.9810    0.9480 oh        1 079     -0.594800
     30 C14        -1.1430   -1.4490    0.9080 c3        1 079      0.074700
     31 C15        -1.6570   -2.5400    1.8680 c3        1 079     -0.044100
     32 C16        -0.7630   -3.7280    1.9060 ca        1 079     -0.087300
     33 C17        -0.7790   -4.6570    0.8580 ca        1 079     -0.126000
     34 C18         0.0530   -5.7740    0.8970 ca        1 079     -0.123500
     35 C19         0.9080   -5.9720    1.9810 ca        1 079     -0.126000
     36 C20         0.9280   -5.0510    3.0280 ca        1 079     -0.123500
     37 C21         0.0960   -3.9330    2.9910 ca        1 079     -0.126000
     38 N2          0.1820   -0.9980    1.2700 n         1 079     -0.541900
     39 H34         6.4290   -0.8150   -0.8700 h1        1 079      0.089700
     40 H35         5.2490   -2.0110   -1.6270 h1        1 079      0.089700
     41 H36         3.4880    1.8790   -2.7230 ha        1 079      0.145000
     42 H37         4.1740    4.2870   -2.7450 ha        1 079      0.137500
     43 H38         6.5440    4.9160   -2.2850 ha        1 079      0.136000
     44 H39         8.2380    3.1490   -1.8100 ha        1 079      0.137500
     45 H40         7.5730    0.7450   -1.7920 ha        1 079      0.145000
     46 H33         3.1060    0.3840   -1.0540 hn        1 079      0.338500
     47 H25         2.6840   -0.4810    1.7590 h1        1 079      0.098700
     48 H26         3.3110    1.8810    1.8000 hc        1 079      0.064700
     49 H30         1.0000    2.3110   -0.2130 hc        1 079      0.044033
     50 H31         1.7900    3.6300    0.7520 hc        1 079      0.044033
     51 H32         2.7600    2.6790   -0.4470 hc        1 079      0.044033
     52 H27         1.4860    0.9240    3.3010 hc        1 079      0.044033
     53 H28         1.4020    2.7160    3.0480 hc        1 079      0.044033
     54 H29         0.2450    1.6310    2.1750 hc        1 079      0.044033
     55 H2         -7.8780    3.3200   -3.7170 ha        1 079      0.129500
     56 H3         -9.1060    3.9900   -1.6490 ha        1 079      0.129000
     57 H4         -8.5810    2.8750    0.5220 ha        1 079      0.129500
     58 H5         -6.8340    1.0970    0.6270 ha        1 079      0.141000
     59 H8         -4.2390    1.2850    0.0460 h1        1 079      0.095700
     60 H9         -5.3350   -1.2370    0.6940 ho        1 079      0.396000
     61 H10        -3.2950   -1.6170   -0.5660 h1        1 079      0.054700
     62 H11        -2.3590    0.8960   -1.7350 hn        1 079      0.364800
     63 H12        -1.4810   -0.4780   -1.7170 hn        1 079      0.364800
     64 H14        -2.9210   -0.4220    1.7290 h1        1 079      0.100700
     65 H15        -1.1300    1.1490    0.2090 ho        1 079      0.409000
     66 H16        -1.0420   -1.9170   -0.1200 h1        1 079      0.071700
     67 H17        -1.7800   -2.1130    2.8990 hc        1 079      0.060200
     68 H18        -2.6760   -2.8460    1.5060 hc        1 079      0.060200
     69 H19        -1.4510   -4.5000    0.0010 ha        1 079      0.129000
     70 H20         0.0360   -6.4980    0.0700 ha        1 079      0.133500
     71 H21         1.5660   -6.8530    2.0100 ha        1 079      0.134000
     72 H22         1.6030   -5.2040    3.8830 ha        1 079      0.133500
     73 H23         0.1130   -3.2110    3.8210 ha        1 079      0.129000
     74 H24         0.4760   -1.1290    2.2080 hn        1 079      0.322500
     75 C25        -5.3550    0.1230   -1.4530 c3        1 079     -0.065100
     76 H1         -6.1370    1.5470   -3.6170 ha        1 079      0.141000
     77 H6         -5.8830   -0.8710   -1.4380 hc        1 079      0.065200
     78 H7         -4.7510    0.1560   -2.3980 hc        1 079      0.065200
@<TRIPOS>BOND
     1    1    2 2   
     2    1    3 1   
     3    1   11 1   
     4    3    4 1   
     5    3   39 1   
     6    3   40 1   
     7    4    5 1   
     8    5    6 ar  
     9    5   10 ar  
    10    6    7 ar  
    11    6   41 1   
    12    7    8 ar  
    13    7   42 1   
    14    8    9 ar  
    15    8   43 1   
    16    9   10 ar  
    17    9   44 1   
    18   10   45 1   
    19   11   12 1   
    20   11   46 1   
    21   12   13 1   
    22   12   15 1   
    23   12   47 1   
    24   13   14 2   
    25   13   38 1   
    26   15   16 1   
    27   15   17 1   
    28   15   48 1   
    29   16   49 1   
    30   16   50 1   
    31   16   51 1   
    32   17   52 1   
    33   17   53 1   
    34   17   54 1   
    35   18   19 ar  
    36   18   23 ar  
    37   18   76 1   
    38   19   20 ar  
    39   19   55 1   
    40   20   21 ar  
    41   20   56 1   
    42   21   22 ar  
    43   21   57 1   
    44   22   23 ar  
    45   22   58 1   
    46   23   75 1   
    47   24   25 1   
    48   24   26 1   
    49   24   59 1   
    50   24   75 1   
    51   25   60 1   
    52   26   27 1   
    53   26   28 1   
    54   26   61 1   
    55   27   62 1   
    56   27   63 1   
    57   28   29 1   
    58   28   30 1   
    59   28   64 1   
    60   29   65 1   
    61   30   31 1   
    62   30   38 1   
    63   30   66 1   
    64   31   32 1   
    65   31   67 1   
    66   31   68 1   
    67   32   33 ar  
    68   32   37 ar  
    69   33   34 ar  
    70   33   69 1   
    71   34   35 ar  
    72   34   70 1   
    73   35   36 ar  
    74   35   71 1   
    75   36   37 ar  
    76   36   72 1   
    77   37   73 1   
    78   38   74 1   
    79   75   77 1   
    80   75   78 1   
@<TRIPOS>SUBSTRUCTURE
     1 079         1 TEMP              0 ****  ****    0 ROOT
