@<TRIPOS>MOLECULE
079
   78    69     1     0     0
SMALL
bcc


@<TRIPOS>ATOM
      1 C1          1.2150   -1.9610    4.1580 c1        1 079      0.311000
      2 O1          2.1170   -1.2910    4.6460 o         1 079     -0.380000
      3 C2          0.5570   -3.1170    4.9920 c3        1 079     -0.044000
      4 O2          1.5460   -3.7260    5.8330 os        1 079     -0.219000
      5 C3          1.1240   -4.9900    6.4190 c1        1 079      0.079000
      6 C4          0.6020   -5.0210    7.7270 c1        1 079     -0.200000
      7 C5          0.1890   -6.2330    8.2860 c1        1 079     -0.126917
      8 C6          0.2950   -7.4320    7.5370 c1        1 079     -0.126917
      9 C7          0.8100   -7.4010    6.2440 c1        1 079     -0.126917
     10 C8          1.2280   -6.1750    5.6790 c1        1 079     -0.126917
     11 N1          0.6490   -1.5880    2.8800 n2        1 079     -0.347000
     12 C9          1.4120   -0.8480    1.9560 c3        1 079      0.014000
     13 C13         0.4740   -0.1180    0.9940 c1        1 079      0.296000
     14 O3         -0.5690   -0.6310    0.6610 o         1 079     -0.372000
     15 C10         2.3190   -1.8030    1.1640 c3        1 079     -0.112000
     16 C11         3.7110   -1.8090    1.7790 c3        1 079     -0.215500
     17 C12         1.7330   -3.2090    1.2100 c3        1 079     -0.215500
     18 C27        -0.8000    1.2830   -7.3040 c1        1 079     -0.135000
     19 C28        -1.0760    1.3770   -8.6550 c1        1 079     -0.126917
     20 C29        -2.0320    2.2780   -9.1090 c1        1 079     -0.126917
     21 C30        -2.7040    3.0780   -8.2130 c1        1 079     -0.126917
     22 C31        -2.4280    2.9850   -6.8500 c1        1 079     -0.126917
     23 C26        -1.4790    2.0910   -6.3990 c1        1 079     -0.080000
     24 C25        -0.6440    2.8170   -5.2540 c3        1 079     -0.163000
     25 C24         0.0460    1.7720   -4.3890 c3        1 079     -0.015000
     26 O5          1.4190    2.0710   -4.2940 oh        1 079     -0.343000
     27 C23        -0.5710    1.7730   -3.0010 c3        1 079     -0.049000
     28 N3         -1.6090    0.8180   -2.9450 n3        1 079     -0.339000
     29 C22         0.5150    1.4200   -1.9530 c3        1 079      0.016000
     30 O4          0.7590    0.0750   -1.9860 oh        1 079     -0.329000
     31 C14         0.0340    1.8150   -0.5650 c3        1 079      0.037000
     32 C15         0.1180    3.3070   -0.4100 c3        1 079     -0.135000
     33 C16        -1.0460    3.7970    0.4730 c1        1 079     -0.067000
     34 C17        -0.7750    4.4240    1.7040 c1        1 079     -0.126917
     35 C18        -1.8160    5.0190    2.4350 c1        1 079     -0.126917
     36 C19        -3.1330    4.9890    1.9370 c1        1 079     -0.126917
     37 C20        -3.4050    4.3650    0.7120 c1        1 079     -0.126917
     38 C21        -2.3580    3.7670   -0.0220 c1        1 079     -0.116000
     39 N2          0.8650    1.1790    0.4320 n2        1 079     -0.358000
     40 H34        -0.1810   -2.7420    5.5600 h1        1 079      0.113000
     41 H35         0.1880   -3.7920    4.3790 h1        1 079      0.113000
     42 H36         0.5270   -4.1750    8.2550 ha        1 079      0.139000
     43 H37        -0.1730   -6.2540    9.1930 ha        1 079      0.133667
     44 H38         0.0070   -8.2760    7.9260 ha        1 079      0.133667
     45 H39         0.8860   -8.2590    5.7070 ha        1 079      0.133667
     46 H40         1.5880   -6.1530    4.7770 ha        1 079      0.133667
     47 H33        -0.1960   -1.8630    2.6590 hn        1 079      0.256000
     48 H25         1.9880   -0.1640    2.4570 h1        1 079      0.134000
     49 H26         2.3770   -1.4980    0.2160 hc        1 079      0.098000
     50 H30         4.3350   -2.3550    1.1980 hc        1 079      0.081667
     51 H31         3.6720   -2.1960    2.6630 hc        1 079      0.081667
     52 H32         4.0430   -0.8920    1.8390 hc        1 079      0.081667
     53 H27         2.0300   -3.6630    2.0400 hc        1 079      0.081667
     54 H28         0.7530   -3.1550    1.2000 hc        1 079      0.081667
     55 H29         2.0380   -3.7140    0.4350 hc        1 079      0.081667
     56 H1         -0.1060    0.6290   -6.9750 ha        1 079      0.122000
     57 H2         -0.5960    0.8080   -9.2960 ha        1 079      0.133667
     58 H3         -2.2280    2.3450  -10.0700 ha        1 079      0.133667
     59 H4         -3.3770    3.7120   -8.5340 ha        1 079      0.133667
     60 H5         -2.9030    3.5490   -6.2190 ha        1 079      0.133667
     61 H6         -1.2650    3.3680   -4.6840 hc        1 079      0.106000
     62 H7          0.0440    3.4120   -5.6700 hc        1 079      0.106000
     63 H8         -0.0660    0.8870   -4.7950 h1        1 079      0.087000
     64 H9          1.8180    1.9030   -5.0810 ho        1 079      0.208000
     65 H10        -0.9310    2.6510   -2.8100 h1        1 079      0.108000
     66 H11        -1.6660    0.3620   -3.7770 hn        1 079      0.156000
     67 H12        -2.3910    1.2340   -2.7770 hn        1 079      0.156000
     68 H14         1.3360    1.9040   -2.1610 h1        1 079      0.093000
     69 H15         1.5530   -0.0800   -2.4090 ho        1 079      0.210000
     70 H16        -0.9080    1.5220   -0.4460 h1        1 079      0.151000
     71 H17         0.9710    3.5450    0.0110 hc        1 079      0.096000
     72 H18         0.0610    3.7180   -1.2650 hc        1 079      0.096000
     73 H19         0.1460    4.4450    2.0530 ha        1 079      0.133667
     74 H20        -1.6270    5.4530    3.2870 ha        1 079      0.133667
     75 H21        -3.8720    5.4110    2.4560 ha        1 079      0.133667
     76 H22        -4.2980    4.3440    0.3750 ha        1 079      0.133667
     77 H23        -2.5500    3.3280   -0.8860 ha        1 079      0.141000
     78 H24         1.6810    1.5550    0.6610 hn        1 079      0.220000
@<TRIPOS>BOND
     1    1    2 1   
     2    1    3 1   
     3    3    4 1   
     4    3   40 1   
     5    3   41 1   
     6    4    5 1   
     7    5    6 1   
     8    6   42 1   
     9    7    8 1   
    10    7   43 1   
    11    8   44 1   
    12    9   10 1   
    13    9   45 1   
    14   10   46 1   
    15   11   12 1   
    16   11   47 1   
    17   12   13 1   
    18   12   15 1   
    19   12   48 1   
    20   13   14 1   
    21   15   16 1   
    22   15   17 1   
    23   15   49 1   
    24   16   50 1   
    25   16   51 1   
    26   16   52 1   
    27   17   53 1   
    28   17   54 1   
    29   17   55 1   
    30   18   23 1   
    31   18   56 1   
    32   19   20 1   
    33   19   57 1   
    34   20   58 1   
    35   21   22 1   
    36   21   59 1   
    37   22   60 1   
    38   23   24 1   
    39   24   25 1   
    40   24   61 1   
    41   24   62 1   
    42   25   26 1   
    43   25   27 1   
    44   25   63 1   
    45   26   64 1   
    46   27   28 1   
    47   27   29 1   
    48   27   65 1   
    49   28   66 1   
    50   28   67 1   
    51   29   30 1   
    52   29   31 1   
    53   29   68 1   
    54   30   69 1   
    55   31   32 1   
    56   31   39 1   
    57   31   70 1   
    58   32   33 1   
    59   32   71 1   
    60   32   72 1   
    61   33   38 1   
    62   34   35 1   
    63   34   73 1   
    64   35   74 1   
    65   36   37 1   
    66   36   75 1   
    67   37   76 1   
    68   38   77 1   
    69   39   78 1   
@<TRIPOS>SUBSTRUCTURE
     1 079         1 TEMP              0 ****  ****    0 ROOT
