@<TRIPOS>MOLECULE
07B
   32    32     1     0     0
SMALL
bcc


@<TRIPOS>ATOM
      1 CBK         0.0190   -0.0760   -0.1020 c3        1 07B      0.146100
      2 CAR         1.5400   -0.1280   -0.0520 c3        1 07B     -0.108400
      3 CBO         2.0720   -0.0610    1.3740 c3        1 07B     -0.097200
      4 CBA         3.5750   -0.1540    1.3240 c         1 07B      0.634100
      5 OAE         4.3010   -1.1330    1.5010 o         1 07B     -0.537000
      6 OAT         4.1610    1.0420    1.0130 os        1 07B     -0.435900
      7 CAB         5.5890    1.0620    0.9640 c3        1 07B      0.125700
      8 CBN         1.4770   -1.1880    2.2180 c3        1 07B     -0.097200
      9 CAZ         1.9380   -1.0970    3.6500 c         1 07B      0.634100
     10 OAD         2.3510   -0.1200    4.2750 o         1 07B     -0.537000
     11 OAS         1.8410   -2.2940    4.3060 os        1 07B     -0.435900
     12 CAA         2.2770   -2.3160    5.6660 c3        1 07B      0.125700
     13 CAQ        -0.0450   -1.1200    2.1990 c3        1 07B     -0.108400
     14 CBJ        -0.6060   -1.1690    0.7850 c3        1 07B      0.146100
     15 OAV        -0.3310   -2.4020    0.1320 oh        1 07B     -0.600800
     16 OX0        -0.5010    1.1570    0.3790 oh        1 07B     -0.600800
     17 HBK        -0.3180   -0.2320   -1.1660 h1        1 07B      0.058700
     18 HAR1        1.9700    0.7260   -0.6390 hc        1 07B      0.070700
     19 HAR2        1.8660   -1.0890   -0.5310 hc        1 07B      0.070700
     20 HBJ        -1.7210   -1.0110    0.8270 h1        1 07B      0.058700
     21 HX0        -0.0490    1.8570   -0.1070 ho        1 07B      0.410000
     22 HBO         1.7900    0.9300    1.8350 hc        1 07B      0.108700
     23 HBN         1.8140   -2.1790    1.7960 hc        1 07B      0.108700
     24 HAB1        5.9520    0.3620    0.1720 h1        1 07B      0.052033
     25 HAB2        5.8290    2.1240    0.7150 h1        1 07B      0.052033
     26 HAB3        6.0080    0.7680    1.9560 h1        1 07B      0.052033
     27 HAQ1       -0.4540   -1.9730    2.8010 hc        1 07B      0.070700
     28 HAQ2       -0.3840   -0.1580    2.6700 hc        1 07B      0.070700
     29 HAA1        2.1230   -3.3790    5.9750 h1        1 07B      0.052033
     30 HAA2        3.3530   -2.0250    5.7250 h1        1 07B      0.052033
     31 HAA3        1.6570   -1.6170    6.2750 h1        1 07B      0.052033
     32 HAV        -0.6370   -3.1020    0.7210 ho        1 07B      0.410000
@<TRIPOS>BOND
     1    1    2 1   
     2    1   14 1   
     3    1   16 1   
     4    1   17 1   
     5    2    3 1   
     6    2   18 1   
     7    2   19 1   
     8    3    4 1   
     9    3    8 1   
    10    3   22 1   
    11    4    5 2   
    12    4    6 1   
    13    6    7 1   
    14    7   24 1   
    15    7   25 1   
    16    7   26 1   
    17    8    9 1   
    18    8   13 1   
    19    8   23 1   
    20    9   10 2   
    21    9   11 1   
    22   11   12 1   
    23   12   29 1   
    24   12   30 1   
    25   12   31 1   
    26   13   14 1   
    27   13   27 1   
    28   13   28 1   
    29   14   15 1   
    30   14   20 1   
    31   15   32 1   
    32   16   21 1   
@<TRIPOS>SUBSTRUCTURE
     1 07B         1 TEMP              0 ****  ****    0 ROOT
