@<TRIPOS>MOLECULE
07B
   32    32     1     0     0
SMALL
bcc


@<TRIPOS>ATOM
      1 CBK        -1.3470   -0.5700   -1.4410 c3        1 07B      0.124100
      2 CAR         0.1490   -0.6250   -1.4800 c3        1 07B     -0.095900
      3 CBO         0.8060   -0.6110   -0.0760 c3        1 07B     -0.099200
      4 CBA         0.6060   -1.9290    0.6330 c         1 07B      0.628600
      5 OAE        -0.3690   -2.0970    1.3380 o         1 07B     -0.540500
      6 OAT         1.5630   -2.9490    0.5030 os        1 07B     -0.435900
      7 CAB         1.3660   -4.0330    1.3830 c3        1 07B      0.125200
      8 CBN         0.2540    0.6220    0.7620 c3        1 07B     -0.099200
      9 CAZ         0.8340    1.9240    0.2640 c         1 07B      0.628600
     10 OAD         1.2440    2.0090   -0.8760 o         1 07B     -0.540500
     11 OAS         0.9290    3.0270    1.1300 os        1 07B     -0.435900
     12 CAA         1.7250    4.0780    0.6290 c3        1 07B      0.125200
     13 CAQ        -1.2960    0.6150    0.7390 c3        1 07B     -0.095900
     14 CBJ        -1.8740    0.5410   -0.6410 c3        1 07B      0.124100
     15 OAV        -3.3280    0.3880   -0.5300 oh        1 07B     -0.601300
     16 OX0        -1.8450   -0.4340   -2.8130 oh        1 07B     -0.601300
     17 HBK        -1.6800   -1.4090   -1.0680 h1        1 07B      0.051700
     18 HAR1        0.4770    0.1460   -1.9860 hc        1 07B      0.080700
     19 HAR2        0.4200   -1.4420   -1.9440 hc        1 07B      0.080700
     20 HBJ        -1.6820    1.3790   -1.1050 h1        1 07B      0.051700
     21 HX0        -2.0590   -1.2370   -3.1320 ho        1 07B      0.415500
     22 HBO         1.7810   -0.5760   -0.1380 hc        1 07B      0.106200
     23 HBN         0.5850    0.6060    1.6810 hc        1 07B      0.106200
     24 HAB1        0.4920   -4.4440    1.2050 h1        1 07B      0.053700
     25 HAB2        2.0740   -4.6990    1.2460 h1        1 07B      0.053700
     26 HAB3        1.3940   -3.7110    2.3090 h1        1 07B      0.053700
     27 HAQ1       -1.6130   -0.1560    1.2520 hc        1 07B      0.080700
     28 HAQ2       -1.6190    1.4320    1.1700 hc        1 07B      0.080700
     29 HAA1        1.7590    4.8050    1.2890 h1        1 07B      0.053700
     30 HAA2        2.6330    3.7490    0.4580 h1        1 07B      0.053700
     31 HAA3        1.3350    4.4140   -0.2070 h1        1 07B      0.053700
     32 HAV        -3.7140    1.1880   -0.5540 ho        1 07B      0.415500
@<TRIPOS>BOND
     1    1    2 1   
     2    1   14 1   
     3    1   16 1   
     4    1   17 1   
     5    2    3 1   
     6    2   18 1   
     7    2   19 1   
     8    3    4 1   
     9    3    8 1   
    10    3   22 1   
    11    4    5 2   
    12    4    6 1   
    13    6    7 1   
    14    7   24 1   
    15    7   25 1   
    16    7   26 1   
    17    8    9 1   
    18    8   13 1   
    19    8   23 1   
    20    9   10 2   
    21    9   11 1   
    22   11   12 1   
    23   12   29 1   
    24   12   30 1   
    25   12   31 1   
    26   13   14 1   
    27   13   27 1   
    28   13   28 1   
    29   14   15 1   
    30   14   20 1   
    31   15   32 1   
    32   16   21 1   
@<TRIPOS>SUBSTRUCTURE
     1 07B         1 TEMP              0 ****  ****    0 ROOT
