@<TRIPOS>MOLECULE
07B
   32    32     1     0     0
SMALL
bcc


@<TRIPOS>ATOM
      1 CBK         0.0290   -0.0770   -0.1000 c3        1 07B      0.146100
      2 CAR         1.5490   -0.1270   -0.0460 c3        1 07B     -0.108400
      3 CBO         2.0770   -0.0610    1.3810 c3        1 07B     -0.097700
      4 CBA         3.5810   -0.1520    1.3350 c         1 07B      0.634100
      5 OAE         4.3090   -1.1300    1.5120 o         1 07B     -0.537000
      6 OAT         4.1660    1.0460    1.0280 os        1 07B     -0.435900
      7 CAB         5.5940    1.0680    0.9830 c3        1 07B      0.125700
      8 CBN         1.4820   -1.1900    2.2220 c3        1 07B     -0.097700
      9 CAZ         1.9390   -1.1010    3.6550 c         1 07B      0.634100
     10 OAD         2.3490   -0.1230    4.2830 o         1 07B     -0.537000
     11 OAS         1.8440   -2.2980    4.3090 os        1 07B     -0.435900
     12 CAA         2.2770   -2.3210    5.6700 c3        1 07B      0.125700
     13 CAQ        -0.0400   -1.1240    2.2000 c3        1 07B     -0.108400
     14 CBJ        -0.5970   -1.1730    0.7840 c3        1 07B      0.146100
     15 OAV        -0.3190   -2.4040    0.1300 oh        1 07B     -0.600800
     16 OX0        -0.4950    1.1540    0.3800 oh        1 07B     -0.600800
     17 HBK        -0.3050   -0.2330   -1.1650 h1        1 07B      0.058700
     18 HAR1        1.9800    0.7270   -0.6310 hc        1 07B      0.070700
     19 HAR2        1.8790   -1.0880   -0.5260 hc        1 07B      0.070700
     20 HBJ        -1.7120   -1.0160    0.8230 h1        1 07B      0.058700
     21 HX0        -0.0420    1.8550   -0.1040 ho        1 07B      0.410000
     22 HBO         1.7930    0.9280    1.8420 hc        1 07B      0.108700
     23 HBN         1.8210   -2.1800    1.8000 hc        1 07B      0.108700
     24 HAB1        5.8330    2.1320    0.7380 h1        1 07B      0.052033
     25 HAB2        5.9600    0.3710    0.1910 h1        1 07B      0.052033
     26 HAB3        6.0110    0.7730    1.9760 h1        1 07B      0.052033
     27 HAQ1       -0.3820   -0.1630    2.6700 hc        1 07B      0.070700
     28 HAQ2       -0.4490   -1.9780    2.8000 hc        1 07B      0.070700
     29 HAA1        2.1250   -3.3850    5.9770 h1        1 07B      0.052033
     30 HAA2        3.3520   -2.0260    5.7330 h1        1 07B      0.052033
     31 HAA3        1.6520   -1.6250    6.2800 h1        1 07B      0.052033
     32 HAV        -0.6250   -3.1060    0.7180 ho        1 07B      0.410000
@<TRIPOS>BOND
     1    1    2 1   
     2    1   14 1   
     3    1   16 1   
     4    1   17 1   
     5    2    3 1   
     6    2   18 1   
     7    2   19 1   
     8    3    4 1   
     9    3    8 1   
    10    3   22 1   
    11    4    5 2   
    12    4    6 1   
    13    6    7 1   
    14    7   24 1   
    15    7   25 1   
    16    7   26 1   
    17    8    9 1   
    18    8   13 1   
    19    8   23 1   
    20    9   10 2   
    21    9   11 1   
    22   11   12 1   
    23   12   29 1   
    24   12   30 1   
    25   12   31 1   
    26   13   14 1   
    27   13   27 1   
    28   13   28 1   
    29   14   15 1   
    30   14   20 1   
    31   15   32 1   
    32   16   21 1   
@<TRIPOS>SUBSTRUCTURE
     1 07B         1 TEMP              0 ****  ****    0 ROOT
