@<TRIPOS>MOLECULE
07B
   32    32     1     0     0
SMALL
bcc


@<TRIPOS>ATOM
      1 CBK         2.6560   -0.7510    0.1710 c3        1 07B      0.111100
      2 CAR         1.3840   -1.4320   -0.3150 c3        1 07B     -0.065400
      3 CBO         0.1280   -0.7380    0.1980 c3        1 07B     -0.098700
      4 CBA        -1.0690   -1.4500   -0.3790 c         1 07B      0.632100
      5 OAE        -1.7080   -1.1960   -1.4010 o         1 07B     -0.539000
      6 OAT        -1.4400   -2.5370    0.3640 os        1 07B     -0.430900
      7 CAB        -2.5790   -3.2670   -0.0930 c3        1 07B      0.124700
      8 CBN         0.1290    0.7380   -0.1980 c3        1 07B     -0.098700
      9 CAZ        -1.0690    1.4500    0.3780 c         1 07B      0.632100
     10 OAD        -1.7090    1.1960    1.4000 o         1 07B     -0.539000
     11 OAS        -1.4400    2.5360   -0.3650 os        1 07B     -0.430900
     12 CAA        -2.5800    3.2670    0.0910 c3        1 07B      0.124700
     13 CAQ         1.3840    1.4320    0.3150 c3        1 07B     -0.065400
     14 CBJ         2.6560    0.7510   -0.1710 c3        1 07B      0.111100
     15 OAV         2.7400    0.9540   -1.5730 oh        1 07B     -0.586800
     16 OX0         2.7400   -0.9530    1.5740 oh        1 07B     -0.586800
     17 HBK         3.5440   -1.2380   -0.3270 h1        1 07B      0.034700
     18 HAR1        1.3950   -1.4160   -1.4370 hc        1 07B      0.071700
     19 HAR2        1.3780   -2.4970    0.0360 hc        1 07B      0.071700
     20 HBJ         3.5440    1.2380    0.3280 h1        1 07B      0.034700
     21 HX0         3.5450   -0.5150    1.8750 ho        1 07B      0.402000
     22 HBO         0.0910   -0.8210    1.3230 hc        1 07B      0.116700
     23 HBN         0.0910    0.8210   -1.3230 hc        1 07B      0.116700
     24 HAB1       -3.4740   -2.6000   -0.1190 h1        1 07B      0.051700
     25 HAB2       -2.3820   -3.6830   -1.1100 h1        1 07B      0.051700
     26 HAB3       -2.6940   -4.0780    0.6680 h1        1 07B      0.051700
     27 HAQ1        1.3780    2.4970   -0.0360 hc        1 07B      0.071700
     28 HAQ2        1.3940    1.4160    1.4370 hc        1 07B      0.071700
     29 HAA1       -2.6950    4.0780   -0.6690 h1        1 07B      0.051700
     30 HAA2       -3.4740    2.5990    0.1170 h1        1 07B      0.051700
     31 HAA3       -2.3830    3.6830    1.1090 h1        1 07B      0.051700
     32 HAV         3.5460    0.5150   -1.8730 ho        1 07B      0.402000
@<TRIPOS>BOND
     1    1    2 1   
     2    1   14 1   
     3    1   16 1   
     4    1   17 1   
     5    2    3 1   
     6    2   18 1   
     7    2   19 1   
     8    3    4 1   
     9    3    8 1   
    10    3   22 1   
    11    4    5 2   
    12    4    6 1   
    13    6    7 1   
    14    7   24 1   
    15    7   25 1   
    16    7   26 1   
    17    8    9 1   
    18    8   13 1   
    19    8   23 1   
    20    9   10 2   
    21    9   11 1   
    22   11   12 1   
    23   12   29 1   
    24   12   30 1   
    25   12   31 1   
    26   13   14 1   
    27   13   27 1   
    28   13   28 1   
    29   14   15 1   
    30   14   20 1   
    31   15   32 1   
    32   16   21 1   
@<TRIPOS>SUBSTRUCTURE
     1 07B         1 TEMP              0 ****  ****    0 ROOT
