@<TRIPOS>MOLECULE
07B
   32    32     1     0     0
SMALL
bcc


@<TRIPOS>ATOM
      1 CBK         0.0270   -0.0790   -0.1100 c3        1 07B      0.146100
      2 CAR         1.5470   -0.1280   -0.0530 c3        1 07B     -0.108400
      3 CBO         2.0720   -0.0610    1.3750 c3        1 07B     -0.097700
      4 CBA         3.5760   -0.1500    1.3320 c         1 07B      0.634100
      5 OAE         4.3040   -1.1270    1.5120 o         1 07B     -0.537000
      6 OAT         4.1610    1.0480    1.0250 os        1 07B     -0.435900
      7 CAB         5.5890    1.0710    0.9830 c3        1 07B      0.125700
      8 CBN         1.4760   -1.1890    2.2160 c3        1 07B     -0.097700
      9 CAZ         1.9300   -1.0980    3.6500 c         1 07B      0.634100
     10 OAD         2.3370   -0.1200    4.2780 o         1 07B     -0.537000
     11 OAS         1.8350   -2.2960    4.3040 os        1 07B     -0.435900
     12 CAA         2.2650   -2.3170    5.6670 c3        1 07B      0.125700
     13 CAQ        -0.0460   -1.1240    2.1900 c3        1 07B     -0.108400
     14 CBJ        -0.6000   -1.1750    0.7730 c3        1 07B      0.146100
     15 OAV        -0.3200   -2.4060    0.1200 oh        1 07B     -0.600800
     16 OX0        -0.4990    1.1520    0.3680 oh        1 07B     -0.600800
     17 HBK        -0.3050   -0.2360   -1.1760 h1        1 07B      0.058700
     18 HAR1        1.8780   -1.0880   -0.5310 hc        1 07B      0.070700
     19 HAR2        1.9780    0.7270   -0.6380 hc        1 07B      0.070700
     20 HBJ        -1.7160   -1.0190    0.8100 h1        1 07B      0.058700
     21 HX0        -0.0450    1.8540   -0.1150 ho        1 07B      0.410000
     22 HBO         1.7860    0.9290    1.8350 hc        1 07B      0.108700
     23 HBN         1.8170   -2.1790    1.7960 hc        1 07B      0.108700
     24 HAB1        5.8280    2.1350    0.7370 h1        1 07B      0.052033
     25 HAB2        5.9570    0.3740    0.1930 h1        1 07B      0.052033
     26 HAB3        6.0030    0.7780    1.9770 h1        1 07B      0.052033
     27 HAQ1       -0.3900   -0.1640    2.6590 hc        1 07B      0.070700
     28 HAQ2       -0.4550   -1.9780    2.7900 hc        1 07B      0.070700
     29 HAA1        1.6380   -1.6210    6.2740 h1        1 07B      0.052033
     30 HAA2        2.1130   -3.3810    5.9740 h1        1 07B      0.052033
     31 HAA3        3.3390   -2.0210    5.7310 h1        1 07B      0.052033
     32 HAV        -0.6260   -3.1070    0.7080 ho        1 07B      0.410000
@<TRIPOS>BOND
     1    1    2 1   
     2    1   14 1   
     3    1   16 1   
     4    1   17 1   
     5    2    3 1   
     6    2   18 1   
     7    2   19 1   
     8    3    4 1   
     9    3    8 1   
    10    3   22 1   
    11    4    5 2   
    12    4    6 1   
    13    6    7 1   
    14    7   24 1   
    15    7   25 1   
    16    7   26 1   
    17    8    9 1   
    18    8   13 1   
    19    8   23 1   
    20    9   10 2   
    21    9   11 1   
    22   11   12 1   
    23   12   29 1   
    24   12   30 1   
    25   12   31 1   
    26   13   14 1   
    27   13   27 1   
    28   13   28 1   
    29   14   15 1   
    30   14   20 1   
    31   15   32 1   
    32   16   21 1   
@<TRIPOS>SUBSTRUCTURE
     1 07B         1 TEMP              0 ****  ****    0 ROOT
