@<TRIPOS>MOLECULE
07G
   55    57     1     0     0
SMALL
bcc


@<TRIPOS>ATOM
      1 C3         -0.1170    1.3890    0.0410 ca        1 07G     -0.172000
      2 C4          1.2840    1.3640    0.0570 ca        1 07G      0.105900
      3 F1          1.9840    2.1030   -0.8260 f         1 07G     -0.084900
      4 C5          1.9670    0.5450    1.0110 ca        1 07G      0.172900
      5 F2          3.3080    0.5020    1.0150 f         1 07G     -0.064900
      6 C6          1.2180   -0.2030    1.9350 ca        1 07G     -0.137000
      7 C1         -0.1730   -0.1520    1.9170 ca        1 07G     -0.068000
      8 C2         -0.8430    0.6340    0.9730 ca        1 07G     -0.213300
      9 C7         -2.3260    0.5610    0.8610 c3        1 07G      0.184100
     10 N1         -2.9980    1.8780    1.1970 n4        1 07G     -0.516000
     11 C8         -4.3640    2.0260    0.5100 c         1 07G      0.540900
     12 O1         -5.1810    2.7700    1.0010 o         1 07G     -0.334100
     13 C9         -3.0340    2.1190    2.6420 ce        1 07G     -0.045000
     14 C10        -2.3610    3.3970    3.0910 c2        1 07G      0.579300
     15 O2         -2.9930    4.3080    3.6040 o         1 07G     -0.388300
     16 N3         -0.8990    3.5540    2.8370 n4        1 07G     -0.669800
     17 C20        -0.4920    4.8190    2.0600 c3        1 07G      0.163200
     18 C22        -1.3400    4.9630    0.8000 c3        1 07G     -0.137433
     19 C23        -0.6590    6.0540    2.9480 c3        1 07G     -0.137433
     20 C21         0.9830    4.6760    1.6710 c3        1 07G     -0.137433
     21 C11        -3.7300    1.3540    3.5220 cc        1 07G      0.091800
     22 C14        -4.7180    0.2840    3.3430 ca        1 07G     -0.184800
     23 C15        -5.2320   -0.4070    2.2580 ca        1 07G     -0.039000
     24 C16        -6.2520   -1.3500    2.4450 ca        1 07G     -0.118000
     25 C17        -6.7760   -1.6130    3.7150 ca        1 07G      0.085400
     26 CL1        -8.0010   -2.7380    3.9100 cl        1 07G      0.055600
     27 C18        -6.2770   -0.9320    4.8550 ca        1 07G     -0.066000
     28 C13        -5.2670   -0.0150    4.6500 ca        1 07G     -0.050200
     29 N2         -4.5720    0.7820    5.6220 na        1 07G     -0.034400
     30 C12        -3.6620    1.5480    5.0400 cd        1 07G      0.046700
     31 C19        -2.5260    2.3290    5.8700 c         1 07G      0.970800
     32 O4         -2.8070    2.5490    7.0410 o         1 07G     -0.693800
     33 O3         -1.5220    2.5240    5.1470 o         1 07G     -0.693800
     34 H1         -0.6220    1.9670   -0.7490 ha        1 07G      0.155000
     35 H2          1.7480   -0.8440    2.6640 ha        1 07G      0.202000
     36 H3         -0.7380   -0.7620    2.6420 ha        1 07G      0.164000
     37 H4         -2.6090    0.3040   -0.2030 hx        1 07G      0.118200
     38 H5         -2.7390   -0.2280    1.5550 hx        1 07G      0.118200
     39 H6         -4.4210    1.4280   -0.4290 hx        1 07G      0.149200
     40 H8         -0.4470    3.6200    3.7780 hn        1 07G      0.485800
     41 H9         -1.1480    4.1300    0.0800 hc        1 07G      0.082922
     42 H10        -1.0480    5.9200    0.2910 hc        1 07G      0.082922
     43 H11        -2.4290    5.0320    1.0410 hc        1 07G      0.082922
     44 H12        -0.2950    6.9470    2.3800 hc        1 07G      0.082922
     45 H13        -1.7300    6.2230    3.2220 hc        1 07G      0.082922
     46 H14        -0.0520    5.9680    3.8830 hc        1 07G      0.082922
     47 H15         1.6370    4.5850    2.5730 hc        1 07G      0.082922
     48 H16         1.1500    3.8010    0.9960 hc        1 07G      0.082922
     49 H17         1.2900    5.6030    1.1200 hc        1 07G      0.082922
     50 H18        -4.8640   -0.2450    1.2340 ha        1 07G      0.123000
     51 H19        -6.6490   -1.8940    1.5680 ha        1 07G      0.194000
     52 H20        -6.6930   -1.1420    5.8570 ha        1 07G      0.206000
     53 H21        -4.7380    0.7340    6.6160 hn        1 07G      0.384700
     54 H111       -2.4150    2.6200    0.7660 hn        1 07G      0.455800
     55 H32        -0.5260    2.7230    2.3670 hn        1 07G      0.485800
@<TRIPOS>BOND
     1    1    2 ar  
     2    1    8 ar  
     3    1   34 1   
     4    2    3 1   
     5    2    4 ar  
     6    4    5 1   
     7    4    6 ar  
     8    6    7 ar  
     9    6   35 1   
    10    7    8 ar  
    11    7   36 1   
    12    8    9 1   
    13    9   10 1   
    14    9   37 1   
    15    9   38 1   
    16   10   11 1   
    17   10   13 1   
    18   10   54 1   
    19   11   12 2   
    20   11   39 1   
    21   13   14 2   
    22   13   21 1   
    23   14   15 1   
    24   14   16 1   
    25   16   17 1   
    26   16   40 1   
    27   16   55 1   
    28   17   18 1   
    29   17   19 1   
    30   17   20 1   
    31   18   41 1   
    32   18   42 1   
    33   18   43 1   
    34   19   44 1   
    35   19   45 1   
    36   19   46 1   
    37   20   47 1   
    38   20   48 1   
    39   20   49 1   
    40   21   22 1   
    41   21   30 2   
    42   22   23 ar  
    43   22   28 ar  
    44   23   24 ar  
    45   23   50 1   
    46   24   25 ar  
    47   24   51 1   
    48   25   26 1   
    49   25   27 ar  
    50   27   28 ar  
    51   27   52 1   
    52   28   29 1   
    53   29   30 1   
    54   29   53 1   
    55   30   31 1   
    56   31   32 1   
    57   31   33 1   
@<TRIPOS>SUBSTRUCTURE
     1 07G         1 TEMP              0 ****  ****    0 ROOT
