@<TRIPOS>MOLECULE
07G
   53    45     1     0     0
SMALL
bcc


@<TRIPOS>ATOM
      1 C3          2.2230   -3.9360    0.7790 c1        1 07G     -0.129000
      2 C4          2.7440   -4.7270    1.7960 c1        1 07G      0.049000
      3 F1          3.2010   -5.9580    1.5180 f         1 07G     -0.086500
      4 C5          2.6700   -4.2980    3.1180 c1        1 07G      0.080000
      5 F2          3.2250   -5.0330    4.0940 f         1 07G     -0.086500
      6 C6          2.0770   -3.0800    3.4190 c2        1 07G     -0.137000
      7 C1          1.5550   -2.2860    2.3980 c1        1 07G     -0.073000
      8 C2          1.6270   -2.7110    1.0840 c1        1 07G     -0.128000
      9 C7          0.9520   -1.8790   -0.0400 c3        1 07G     -0.031000
     10 N1          1.3510   -0.4910    0.0810 n         1 07G     -0.135000
     11 C8          2.6820   -0.1640    0.5110 c2        1 07G      0.272000
     12 O1          3.5860   -0.9540    0.3390 o         1 07G     -0.224000
     13 C9          0.4270    0.5800   -0.3290 c2        1 07G      0.281000
     14 C10        -0.7360    1.0120    0.6190 c2        1 07G      0.310000
     15 O2         -0.7160    2.1120    1.1470 o         1 07G     -0.324000
     16 N3         -1.8160    0.0800    0.9180 n         1 07G     -0.333000
     17 C20        -2.8510    0.4460    1.8880 c3        1 07G      0.075000
     18 C22        -3.8480   -0.7050    2.0380 c3        1 07G     -0.229000
     19 C23        -2.2130    0.7280    3.2170 c3        1 07G     -0.229000
     20 C21        -3.5770    1.6760    1.4050 c3        1 07G     -0.229000
     21 C11         0.6740    1.3580   -1.6740 c2        1 07G     -0.346000
     22 C14         0.1030    1.3930   -2.9400 c1        1 07G     -0.046000
     23 C15        -0.8980    0.6070   -3.5480 c1        1 07G     -0.125000
     24 C16        -1.3050    0.8850   -4.8560 c1        1 07G     -0.123000
     25 C17        -0.7230    1.9360   -5.5590 c2        1 07G     -0.059000
     26 CL1        -1.3350    2.2970   -7.1530 cl        1 07G     -0.004000
     27 C18         0.2650    2.7140   -4.9590 c1        1 07G     -0.111000
     28 C13         0.6790    2.4370   -3.6380 c1        1 07G     -0.010000
     29 N2          1.6060    3.0490   -2.8070 n1        1 07G     -0.157000
     30 C12         1.6030    2.3830   -1.5960 c1        1 07G      0.053000
     31 C19         2.7480    3.2120   -0.9970 c1        1 07G      0.382000
     32 O4          2.4920    4.2550   -0.3260 o         1 07G     -0.508500
     33 O3          3.9440    2.8500   -1.1670 o         1 07G     -0.508500
     34 H1          2.3330   -4.2060   -0.1540 DU        1 07G      0.196667
     35 H2          2.0260   -2.7790    4.3480 ha        1 07G      0.171000
     36 H3          1.1390   -1.4320    2.6110 ha        1 07G      0.197000
     37 H4         -0.0210   -1.9480    0.0410 h1        1 07G      0.140000
     38 H5          1.2320   -2.2230   -0.9110 h1        1 07G      0.140000
     39 H6          2.8690    0.7200    0.9080 h5        1 07G      0.269000
     40 H8         -1.8230   -0.7470    0.5340 hn        1 07G      0.245000
     41 H9         -4.4490   -0.5220    2.7910 hc        1 07G      0.091444
     42 H10        -3.3600   -1.5420    2.2050 hc        1 07G      0.091444
     43 H11        -4.3740   -0.7920    1.2140 hc        1 07G      0.091444
     44 H12        -2.8530    0.5380    3.9340 hc        1 07G      0.091444
     45 H13        -1.4280    0.1630    3.3260 hc        1 07G      0.091444
     46 H14        -1.9470    1.6670    3.2580 hc        1 07G      0.091444
     47 H15        -4.4590    1.7260    1.8350 hc        1 07G      0.091444
     48 H16        -3.0550    2.4750    1.6330 hc        1 07G      0.091444
     49 H17        -3.6900    1.6270    0.4360 hc        1 07G      0.091444
     50 H18        -1.3460   -0.0900   -3.0370 ha        1 07G      0.137000
     51 H19        -2.0130    0.3530   -5.2720 DU        1 07G      0.196667
     52 H20         0.6730    3.4530   -5.4540 ha        1 07G      0.160000
     53 H21         2.1320    3.7720   -3.0250 DU        1 07G      0.196667
@<TRIPOS>BOND
     1    1    2 1   
     2    1    8 1   
     3    2    4 1   
     4    4    6 1   
     5    6    7 1   
     6    6   35 1   
     7    7   36 1   
     8    8    9 1   
     9    9   10 1   
    10    9   37 1   
    11    9   38 1   
    12   10   11 1   
    13   10   13 1   
    14   11   12 1   
    15   11   39 1   
    16   13   14 1   
    17   13   21 1   
    18   14   15 1   
    19   14   16 1   
    20   16   17 1   
    21   16   40 1   
    22   17   18 1   
    23   17   19 1   
    24   17   20 1   
    25   18   41 1   
    26   18   42 1   
    27   18   43 1   
    28   19   44 1   
    29   19   45 1   
    30   19   46 1   
    31   20   47 1   
    32   20   48 1   
    33   20   49 1   
    34   21   22 1   
    35   21   30 1   
    36   22   28 1   
    37   23   24 1   
    38   23   50 1   
    39   24   25 1   
    40   25   26 1   
    41   25   27 1   
    42   27   52 1   
    43   29   30 1   
    44   31   32 1   
    45   31   33 1   
@<TRIPOS>SUBSTRUCTURE
     1 07G         1 TEMP              0 ****  ****    0 ROOT
