@<TRIPOS>MOLECULE
07G
   53    55     1     0     0
SMALL
bcc


@<TRIPOS>ATOM
      1 C3          1.8760    3.6130    1.3550 ca        1 07G     -0.138000
      2 C4          2.9500    4.3170    0.7900 ca        1 07G      0.088900
      3 F1          3.4250    5.4310    1.3920 f         1 07G     -0.121900
      4 C5          3.5370    3.8530   -0.4190 ca        1 07G      0.113900
      5 F2          4.5730    4.5240   -0.9670 f         1 07G     -0.116900
      6 C6          3.0320    2.6940   -1.0330 ca        1 07G     -0.134000
      7 C1          1.9630    2.0100   -0.4630 ca        1 07G     -0.095000
      8 C2          1.3860    2.4680    0.7260 ca        1 07G     -0.139300
      9 C7          0.1970    1.7630    1.3140 c3        1 07G      0.109300
     10 N1          0.4650    0.3590    1.6380 n         1 07G     -0.346400
     11 C8          1.3610    0.1500    2.7380 c         1 07G      0.657900
     12 O1          1.6050   -0.9620    3.1930 o         1 07G     -0.465100
     13 C9          0.0240   -0.6380    0.8310 ce        1 07G      0.429900
     14 C10         0.5940   -2.0640    1.0310 c         1 07G      0.557800
     15 O2         -0.0820   -2.8220    1.7460 o         1 07G     -0.555100
     16 N3          1.8090   -2.3120    0.4580 n         1 07G     -0.512900
     17 C20         2.3530   -3.6790    0.3710 c3        1 07G      0.111400
     18 C22         3.6810   -3.6420   -0.4050 c3        1 07G     -0.113100
     19 C23         2.6280   -4.2570    1.7670 c3        1 07G     -0.113100
     20 C21         1.3980   -4.6280   -0.3700 c3        1 07G     -0.113100
     21 C11        -0.9990   -0.5050   -0.1190 cc        1 07G     -0.364800
     22 C14        -2.2990    0.1430    0.0140 ca        1 07G     -0.040800
     23 C15        -2.9460    0.8250    1.0380 ca        1 07G     -0.109000
     24 C16        -4.2570    1.2540    0.8490 ca        1 07G     -0.115000
     25 C17        -4.9330    0.9950   -0.3540 ca        1 07G      0.021400
     26 CL1        -6.5300    1.5400   -0.5410 cl        1 07G     -0.075400
     27 C18        -4.3300    0.2930   -1.4020 ca        1 07G     -0.104000
     28 C13        -3.0160   -0.1300   -1.2100 ca        1 07G     -0.065200
     29 N2         -2.1590   -0.8610   -2.0660 na        1 07G     -0.122400
     30 C12        -0.9690   -1.0840   -1.4440 cd        1 07G      0.070700
     31 C19         0.2790   -1.6130   -2.2010 c         1 07G      0.923800
     32 O4          0.1260   -2.6210   -2.9130 o         1 07G     -0.754300
     33 O3          1.3080   -0.9130   -2.0110 o         1 07G     -0.754300
     34 H1          1.4280    3.9870    2.2890 ha        1 07G      0.150000
     35 H2          3.4890    2.3340   -1.9690 ha        1 07G      0.174000
     36 H3          1.5810    1.0990   -0.9680 ha        1 07G      0.193000
     37 H4         -0.1380    2.2780    2.2600 h1        1 07G      0.089200
     38 H5         -0.6500    1.8250    0.5690 h1        1 07G      0.089200
     39 H6          1.7840    1.1070    3.1220 h5        1 07G      0.077200
     40 H8          2.1060   -1.7020   -0.2840 hn        1 07G      0.350500
     41 H9          4.4260   -2.9890    0.1090 hc        1 07G      0.052144
     42 H10         4.0910   -4.6780   -0.4570 hc        1 07G      0.052144
     43 H11         3.5220   -3.2680   -1.4460 hc        1 07G      0.052144
     44 H12         1.6830   -4.3190    2.3590 hc        1 07G      0.052144
     45 H13         3.0520   -5.2830    1.6530 hc        1 07G      0.052144
     46 H14         3.3610   -3.6230    2.3210 hc        1 07G      0.052144
     47 H15         1.1540   -4.2310   -1.3880 hc        1 07G      0.052144
     48 H16         1.8850   -5.6250   -0.4790 hc        1 07G      0.052144
     49 H17         0.4510   -4.7520    0.2090 hc        1 07G      0.052144
     50 H18        -2.4370    1.0180    1.9940 ha        1 07G      0.139000
     51 H19        -4.7720    1.7990    1.6550 ha        1 07G      0.154000
     52 H20        -4.8740    0.0800   -2.3340 ha        1 07G      0.162000
     53 H21        -2.3820   -1.1530   -2.9880 hn        1 07G      0.335700
@<TRIPOS>BOND
     1    1    2 ar  
     2    1    8 ar  
     3    1   34 1   
     4    2    3 1   
     5    2    4 ar  
     6    4    5 1   
     7    4    6 ar  
     8    6    7 ar  
     9    6   35 1   
    10    7    8 ar  
    11    7   36 1   
    12    8    9 1   
    13    9   10 1   
    14    9   37 1   
    15    9   38 1   
    16   10   11 1   
    17   10   13 2   
    18   11   12 2   
    19   11   39 1   
    20   13   14 1   
    21   13   21 1   
    22   14   15 2   
    23   14   16 1   
    24   16   17 1   
    25   16   40 1   
    26   17   18 1   
    27   17   19 1   
    28   17   20 1   
    29   18   41 1   
    30   18   42 1   
    31   18   43 1   
    32   19   44 1   
    33   19   45 1   
    34   19   46 1   
    35   20   47 1   
    36   20   48 1   
    37   20   49 1   
    38   21   22 1   
    39   21   30 2   
    40   22   23 ar  
    41   22   28 ar  
    42   23   24 ar  
    43   23   50 1   
    44   24   25 ar  
    45   24   51 1   
    46   25   26 1   
    47   25   27 ar  
    48   27   28 ar  
    49   27   52 1   
    50   28   29 1   
    51   29   30 1   
    52   29   53 1   
    53   30   31 1   
    54   31   32 1   
    55   31   33 1   
@<TRIPOS>SUBSTRUCTURE
     1 07G         1 TEMP              0 ****  ****    0 ROOT
