@<TRIPOS>MOLECULE
07G
   55    57     1     0     0
SMALL
bcc


@<TRIPOS>ATOM
      1 C3         -0.2590    1.3680   -0.2570 ca        1 07G     -0.147000
      2 C4          1.1350    1.4430   -0.3900 ca        1 07G      0.110900
      3 F1          1.6830    2.0190   -1.4760 f         1 07G     -0.079900
      4 C5          1.9720    0.8940    0.6310 ca        1 07G      0.167900
      5 F2          3.3060    0.9440    0.5010 f         1 07G     -0.065900
      6 C6          1.3810    0.3030    1.7630 ca        1 07G     -0.145000
      7 C1         -0.0040    0.2520    1.8850 ca        1 07G     -0.098000
      8 C2         -0.8250    0.7770    0.8800 ca        1 07G     -0.214300
      9 C7         -2.2990    0.5810    0.9400 c3        1 07G      0.173100
     10 N1         -3.0380    1.8670    1.2670 nx        1 07G     -0.519000
     11 C8         -4.4330    1.9520    0.6300 c         1 07G      0.551900
     12 O1         -4.5740    1.4890   -0.4800 o         1 07G     -0.350100
     13 C9         -3.0950    2.1230    2.7070 ce        1 07G     -0.061000
     14 C10        -2.4110    3.4050    3.1320 c2        1 07G      0.582300
     15 O2         -3.0520    4.3690    3.5250 o         1 07G     -0.398300
     16 N3         -0.9320    3.4940    2.9700 ny        1 07G     -0.668800
     17 C20        -0.4210    4.6980    2.1570 c3        1 07G      0.165200
     18 C22        -1.1670    4.8000    0.8310 c3        1 07G     -0.137767
     19 C23        -0.6010    5.9860    2.9630 c3        1 07G     -0.137767
     20 C21         1.0720    4.4780    1.8890 c3        1 07G     -0.137767
     21 C11        -3.8070    1.3620    3.5770 cc        1 07G      0.085800
     22 C14        -4.7390    0.2480    3.3730 ca        1 07G     -0.199800
     23 C15        -5.1410   -0.5130    2.2860 ca        1 07G     -0.040000
     24 C16        -6.1170   -1.5060    2.4480 ca        1 07G     -0.118000
     25 C17        -6.7010   -1.7580    3.6930 ca        1 07G      0.087400
     26 Cl1        -7.8700   -2.9450    3.8580 cl        1 07G      0.060600
     27 C18        -6.3080   -1.0150    4.8370 ca        1 07G     -0.066000
     28 C13        -5.3430   -0.0460    4.6570 ca        1 07G     -0.053200
     29 N2         -4.7430    0.8110    5.6420 na        1 07G     -0.032400
     30 C12        -3.8370    1.6030    5.0900 cd        1 07G      0.042700
     31 C19        -2.8170    2.4910    5.9640 c         1 07G      0.973800
     32 O4         -3.2050    2.7460    7.0960 o         1 07G     -0.691300
     33 O3         -1.7740    2.7170    5.3080 o         1 07G     -0.691300
     34 H1         -0.8880    1.7390   -1.0830 ha        1 07G      0.168000
     35 H2          2.0320   -0.1400    2.5380 ha        1 07G      0.199000
     36 H3         -0.4430   -0.2470    2.7650 ha        1 07G      0.162000
     37 H4         -2.5710   -0.1860    1.7210 hx        1 07G      0.128200
     38 H5         -2.6780    0.2330   -0.0700 hx        1 07G      0.128200
     39 H6         -5.1670    2.4730    1.2880 hx        1 07G      0.153200
     40 H8         -0.5660    2.6230    2.5670 hn        1 07G      0.487800
     41 H9         -0.7880    5.7070    0.2870 hc        1 07G      0.083033
     42 H10        -2.2640    4.9400    0.9870 hc        1 07G      0.083033
     43 H11        -0.9690    3.9130    0.1790 hc        1 07G      0.083033
     44 H12        -0.1620    6.8320    2.3750 hc        1 07G      0.083033
     45 H13        -0.0650    5.9320    3.9430 hc        1 07G      0.083033
     46 H14        -1.6800    6.2090    3.1490 hc        1 07G      0.083033
     47 H15         1.4560    5.3590    1.3120 hc        1 07G      0.083033
     48 H16         1.6540    4.4160    2.8410 hc        1 07G      0.083033
     49 H17         1.2510    3.5590    1.2790 hc        1 07G      0.083033
     50 H18        -4.7130   -0.3780    1.2800 ha        1 07G      0.138000
     51 H19        -6.4260   -2.1030    1.5690 ha        1 07G      0.198000
     52 H20        -6.7660   -1.2210    5.8210 ha        1 07G      0.206000
     53 H21        -4.9650    0.7850    6.6250 hn        1 07G      0.385700
     54 H111       -2.4960    2.6290    0.8190 hn        1 07G      0.460800
     55 H32        -0.5360    3.5960    3.9320 hn        1 07G      0.487800
@<TRIPOS>BOND
     1    1    2 ar  
     2    1    8 ar  
     3    1   34 1   
     4    2    3 1   
     5    2    4 ar  
     6    4    5 1   
     7    4    6 ar  
     8    6    7 ar  
     9    6   35 1   
    10    7    8 ar  
    11    7   36 1   
    12    8    9 1   
    13    9   10 1   
    14    9   37 1   
    15    9   38 1   
    16   10   11 1   
    17   10   13 1   
    18   10   54 1   
    19   11   12 2   
    20   11   39 1   
    21   13   14 2   
    22   13   21 1   
    23   14   15 1   
    24   14   16 1   
    25   16   17 1   
    26   16   40 1   
    27   16   55 1   
    28   17   18 1   
    29   17   19 1   
    30   17   20 1   
    31   18   41 1   
    32   18   42 1   
    33   18   43 1   
    34   19   44 1   
    35   19   45 1   
    36   19   46 1   
    37   20   47 1   
    38   20   48 1   
    39   20   49 1   
    40   21   22 1   
    41   21   30 2   
    42   22   23 ar  
    43   22   28 ar  
    44   23   24 ar  
    45   23   50 1   
    46   24   25 ar  
    47   24   51 1   
    48   25   26 1   
    49   25   27 ar  
    50   27   28 ar  
    51   27   52 1   
    52   28   29 1   
    53   29   30 1   
    54   29   53 1   
    55   30   31 1   
    56   31   32 1   
    57   31   33 1   
@<TRIPOS>SUBSTRUCTURE
     1 07G         1 TEMP              0 ****  ****    0 ROOT
