@<TRIPOS>MOLECULE
07G
   55    57     1     0     0
SMALL
bcc


@<TRIPOS>ATOM
      1 C3         -0.1250    1.4460    0.0220 ca        1 07G     -0.172000
      2 C4          1.2760    1.4290    0.0290 ca        1 07G      0.105900
      3 F1          1.9670    2.1890   -0.8420 f         1 07G     -0.084900
      4 C5          1.9690    0.5960    0.9640 ca        1 07G      0.172900
      5 F2          3.3100    0.5610    0.9610 f         1 07G     -0.064900
      6 C6          1.2290   -0.1750    1.8780 ca        1 07G     -0.137000
      7 C1         -0.1630   -0.1320    1.8670 ca        1 07G     -0.068000
      8 C2         -0.8420    0.6680    0.9420 ca        1 07G     -0.213300
      9 C7         -2.3250    0.5880    0.8360 c3        1 07G      0.184100
     10 N1         -3.0030    1.8940    1.2000 n4        1 07G     -0.516000
     11 C8         -4.3740    2.0460    0.5240 c         1 07G      0.540900
     12 O1         -5.1930    2.7750    1.0330 o         1 07G     -0.334100
     13 C9         -3.0330    2.1080    2.6500 ce        1 07G     -0.045000
     14 C10        -2.3660    3.3820    3.1180 c2        1 07G      0.579300
     15 O2         -3.0010    4.2790    3.6520 o         1 07G     -0.388300
     16 N3         -0.9070    3.5540    2.8590 n4        1 07G     -0.669800
     17 C20        -0.5130    4.8350    2.1040 c3        1 07G      0.163200
     18 C22        -1.3690    4.9970    0.8520 c3        1 07G     -0.137433
     19 C23        -0.6830    6.0520    3.0160 c3        1 07G     -0.137433
     20 C21         0.9600    4.7110    1.7040 c3        1 07G     -0.137433
     21 C11        -3.7190    1.3220    3.5190 cc        1 07G      0.091800
     22 C14        -4.7010    0.2480    3.3260 ca        1 07G     -0.184800
     23 C15        -5.2170   -0.4250    2.2310 ca        1 07G     -0.039000
     24 C16        -6.2300   -1.3780    2.4060 ca        1 07G     -0.118000
     25 C17        -6.7440   -1.6680    3.6730 ca        1 07G      0.085400
     26 CL1        -7.9620   -2.8040    3.8550 cl        1 07G      0.055600
     27 C18        -6.2430   -1.0060    4.8230 ca        1 07G     -0.066000
     28 C13        -5.2400   -0.0790    4.6300 ca        1 07G     -0.050200
     29 N2         -4.5450    0.7050    5.6130 na        1 07G     -0.034400
     30 C12        -3.6430    1.4880    5.0400 cd        1 07G      0.046700
     31 C19        -2.5080    2.2600    5.8780 c         1 07G      0.970800
     32 O4         -2.7830    2.4560    7.0550 o         1 07G     -0.693800
     33 O3         -1.5100    2.4760    5.1530 o         1 07G     -0.693800
     34 H1         -0.6380    2.0350   -0.7550 ha        1 07G      0.155000
     35 H2          1.7660   -0.8270    2.5910 ha        1 07G      0.202000
     36 H3         -0.7200   -0.7600    2.5830 ha        1 07G      0.164000
     37 H4         -2.7300   -0.2160    1.5170 hx        1 07G      0.118200
     38 H5         -2.6110    0.3490   -0.2310 hx        1 07G      0.118200
     39 H6         -4.4320    1.4640   -0.4260 hx        1 07G      0.149200
     40 H8         -0.5310    2.7340    2.3710 hn        1 07G      0.485800
     41 H9         -1.0870    5.9660    0.3590 hc        1 07G      0.082922
     42 H10        -2.4570    5.0540    1.1000 hc        1 07G      0.082922
     43 H11        -1.1750    4.1790    0.1150 hc        1 07G      0.082922
     44 H12        -0.3290    6.9590    2.4620 hc        1 07G      0.082922
     45 H13        -0.0700    5.9540    3.9460 hc        1 07G      0.082922
     46 H14        -1.7540    6.2090    3.2990 hc        1 07G      0.082922
     47 H15         1.2580    5.6490    1.1690 hc        1 07G      0.082922
     48 H16         1.6200    4.6070    2.6010 hc        1 07G      0.082922
     49 H17         1.1300    3.8490    1.0120 hc        1 07G      0.082922
     50 H18        -4.8560   -0.2410    1.2080 ha        1 07G      0.123000
     51 H19        -6.6290   -1.9080    1.5210 ha        1 07G      0.194000
     52 H20        -6.6530   -1.2370    5.8240 ha        1 07G      0.206000
     53 H21        -4.7050    0.6380    6.6060 hn        1 07G      0.384700
     54 H111       -2.4280    2.6470    0.7800 hn        1 07G      0.455800
     55 H32        -0.4500    3.6050    3.7990 hn        1 07G      0.485800
@<TRIPOS>BOND
     1    1    2 ar  
     2    1    8 ar  
     3    1   34 1   
     4    2    3 1   
     5    2    4 ar  
     6    4    5 1   
     7    4    6 ar  
     8    6    7 ar  
     9    6   35 1   
    10    7    8 ar  
    11    7   36 1   
    12    8    9 1   
    13    9   10 1   
    14    9   37 1   
    15    9   38 1   
    16   10   11 1   
    17   10   13 1   
    18   10   54 1   
    19   11   12 2   
    20   11   39 1   
    21   13   14 2   
    22   13   21 1   
    23   14   15 1   
    24   14   16 1   
    25   16   17 1   
    26   16   40 1   
    27   16   55 1   
    28   17   18 1   
    29   17   19 1   
    30   17   20 1   
    31   18   41 1   
    32   18   42 1   
    33   18   43 1   
    34   19   44 1   
    35   19   45 1   
    36   19   46 1   
    37   20   47 1   
    38   20   48 1   
    39   20   49 1   
    40   21   22 1   
    41   21   30 2   
    42   22   23 ar  
    43   22   28 ar  
    44   23   24 ar  
    45   23   50 1   
    46   24   25 ar  
    47   24   51 1   
    48   25   26 1   
    49   25   27 ar  
    50   27   28 ar  
    51   27   52 1   
    52   28   29 1   
    53   29   30 1   
    54   29   53 1   
    55   30   31 1   
    56   31   32 1   
    57   31   33 1   
@<TRIPOS>SUBSTRUCTURE
     1 07G         1 TEMP              0 ****  ****    0 ROOT
