@<TRIPOS>MOLECULE
07H
   54    58     1     0     0
SMALL
bcc


@<TRIPOS>ATOM
      1 C1          0.1390   -0.4220   -0.3400 ca        1 07H     -0.133800
      2 C4          1.4400   -0.9380   -0.3320 ca        1 07H     -0.080000
      3 C8          2.1010   -1.1550    0.8730 ca        1 07H     -0.166000
      4 C10         1.4710   -0.8630    2.0860 ca        1 07H     -0.093000
      5 C6          0.1800   -0.3460    2.1080 ca        1 07H     -0.159000
      6 C2         -0.4820   -0.1220    0.8900 ca        1 07H      0.144100
      7 O5         -1.7760    0.3460    0.9740 os        1 07H     -0.329900
      8 C9         -2.3390    0.9320   -0.2090 c3        1 07H      0.181600
      9 C7         -1.7980    0.4280   -1.5020 c2        1 07H     -0.162400
     10 C3         -0.6070   -0.1940   -1.5600 ce        1 07H     -0.080200
     11 C26        -2.6590    0.6270   -2.7120 c3        1 07H      0.214000
     12 N23        -3.1240    1.9990   -2.8860 n3        1 07H     -0.731600
     13 C22        -2.0350    2.9340   -3.1330 c3        1 07H      0.141300
     14 C21        -2.5260    4.3790   -3.3600 c3        1 07H      0.078500
     15 N19        -3.6010    4.4880   -4.3260 n         1 07H     -0.452800
     16 C25        -4.6660    3.5350   -4.1150 c3        1 07H      0.078500
     17 C24        -4.1730    2.0870   -3.8920 c3        1 07H      0.141300
     18 C18        -3.3440    5.0480   -5.5770 c         1 07H      0.662700
     19 O20        -2.2280    5.5420   -5.8370 o         1 07H     -0.593100
     20 C14        -4.4500    5.1290   -6.5770 ca        1 07H     -0.130600
     21 C13        -5.6940    5.6730   -6.2450 ca        1 07H     -0.097000
     22 C12        -6.6810    5.7840   -7.2250 ca        1 07H     -0.135000
     23 C11        -6.4320    5.3590   -8.5270 ca        1 07H     -0.093000
     24 C15        -5.1810    4.8210   -8.8680 ca        1 07H     -0.021000
     25 C16        -4.1880    4.7110   -7.8860 ca        1 07H     -0.085000
     26 C17        -4.9420    4.3870  -10.2290 cc        1 07H     -0.067300
     27 N27        -3.6820    4.3730  -10.8540 na        1 07H     -0.008600
     28 N28        -3.7450    3.9370  -12.1080 nc        1 07H     -0.504800
     29 C29        -5.0480    3.6320  -12.3570 cd        1 07H      0.289200
     30 C30        -5.8530    3.9030  -11.1910 cd        1 07H     -0.277300
     31 H1          1.9350   -1.1720   -1.2870 ha        1 07H      0.133000
     32 H2          3.1240   -1.5600    0.8720 ha        1 07H      0.134000
     33 H3          2.0000   -1.0410    3.0340 ha        1 07H      0.134000
     34 H4         -0.3290   -0.1140    3.0540 ha        1 07H      0.150000
     35 H5         -3.4370    0.7060   -0.1110 h1        1 07H      0.065700
     36 H6         -2.1770    2.0440   -0.1370 h1        1 07H      0.065700
     37 H7         -0.1710   -0.5570   -2.5030 ha        1 07H      0.138000
     38 H8         -3.5730   -0.0270   -2.5890 h1        1 07H      0.042700
     39 H9         -2.1020    0.2600   -3.6260 h1        1 07H      0.042700
     40 H11        -1.3730    2.9320   -2.2230 h1        1 07H      0.042950
     41 H12        -1.4080    2.6210   -4.0190 h1        1 07H      0.042950
     42 H13        -2.9140    4.7930   -2.3850 h1        1 07H      0.068450
     43 H14        -1.6470    5.0000   -3.6910 h1        1 07H      0.068450
     44 H15        -5.3730    3.5240   -4.9900 h1        1 07H      0.068450
     45 H16        -5.2370    3.8680   -3.2010 h1        1 07H      0.068450
     46 H17        -3.8430    1.6580   -4.8820 h1        1 07H      0.042950
     47 H18        -5.0520    1.4820   -3.5300 h1        1 07H      0.042950
     48 H19        -5.8910    6.0180   -5.2190 ha        1 07H      0.147000
     49 H20        -7.6600    6.2150   -6.9680 ha        1 07H      0.142000
     50 H21        -7.2120    5.4490   -9.2990 ha        1 07H      0.145000
     51 H22        -3.1950    4.3010   -8.1260 ha        1 07H      0.147000
     52 H23        -2.8260    4.6950  -10.4670 hn        1 07H      0.325700
     53 H24        -5.3770    3.2400  -13.3190 h4        1 07H      0.044100
     54 H25        -6.9200    3.7560  -11.0820 ha        1 07H      0.165000
@<TRIPOS>BOND
     1    1    2 ar  
     2    1    6 ar  
     3    1   10 1   
     4    2    3 ar  
     5    2   31 1   
     6    3    4 ar  
     7    3   32 1   
     8    4    5 ar  
     9    4   33 1   
    10    5    6 ar  
    11    5   34 1   
    12    6    7 1   
    13    7    8 1   
    14    8    9 1   
    15    8   35 1   
    16    8   36 1   
    17    9   10 2   
    18    9   11 1   
    19   10   37 1   
    20   11   12 1   
    21   11   38 1   
    22   11   39 1   
    23   12   13 1   
    24   12   17 1   
    25   13   14 1   
    26   13   40 1   
    27   13   41 1   
    28   14   15 1   
    29   14   42 1   
    30   14   43 1   
    31   15   16 1   
    32   15   18 1   
    33   16   17 1   
    34   16   44 1   
    35   16   45 1   
    36   17   46 1   
    37   17   47 1   
    38   18   19 2   
    39   18   20 1   
    40   20   21 ar  
    41   20   25 ar  
    42   21   22 ar  
    43   21   48 1   
    44   22   23 ar  
    45   22   49 1   
    46   23   24 ar  
    47   23   50 1   
    48   24   25 ar  
    49   24   26 1   
    50   25   51 1   
    51   26   27 1   
    52   26   30 2   
    53   27   28 1   
    54   27   52 1   
    55   28   29 2   
    56   29   30 1   
    57   29   53 1   
    58   30   54 1   
@<TRIPOS>SUBSTRUCTURE
     1 07H         1 TEMP              0 ****  ****    0 ROOT
