@<TRIPOS>MOLECULE
07H
   54    58     1     0     0
SMALL
bcc


@<TRIPOS>ATOM
      1 C1          0.1690   -0.4080   -0.3540 ca        1 07H     -0.133800
      2 C4          1.4770   -0.9050   -0.3470 ca        1 07H     -0.080000
      3 C8          2.1390   -1.1220    0.8580 ca        1 07H     -0.166000
      4 C10         1.5010   -0.8490    2.0710 ca        1 07H     -0.093000
      5 C6          0.2030   -0.3500    2.0940 ca        1 07H     -0.159000
      6 C2         -0.4590   -0.1260    0.8760 ca        1 07H      0.144100
      7 O5         -1.7600    0.3220    0.9610 os        1 07H     -0.329900
      8 C9         -2.3290    0.9090   -0.2190 c3        1 07H      0.181600
      9 C7         -1.7780    0.4230   -1.5150 c2        1 07H     -0.162400
     10 C3         -0.5780   -0.1820   -1.5740 ce        1 07H     -0.080200
     11 C26        -2.6390    0.6190   -2.7240 c3        1 07H      0.214000
     12 N23        -3.1220    1.9850   -2.8900 n3        1 07H     -0.731600
     13 C22        -2.0450    2.9370   -3.1270 c3        1 07H      0.141300
     14 C21        -2.5540    4.3770   -3.3440 c3        1 07H      0.078500
     15 N19        -3.6280    4.4780   -4.3130 n         1 07H     -0.452800
     16 C25        -4.6810    3.5100   -4.1120 c3        1 07H      0.078500
     17 C24        -4.1690    2.0670   -3.8980 c3        1 07H      0.141300
     18 C18        -3.3750    5.0510   -5.5600 c         1 07H      0.662700
     19 O20        -2.2640    5.5610   -5.8120 o         1 07H     -0.593100
     20 C14        -4.4780    5.1240   -6.5630 ca        1 07H     -0.130600
     21 C13        -5.7310    5.6490   -6.2310 ca        1 07H     -0.097000
     22 C12        -6.7160    5.7540   -7.2120 ca        1 07H     -0.135000
     23 C11        -6.4570    5.3410   -8.5170 ca        1 07H     -0.093000
     24 C15        -5.1980    4.8230   -8.8580 ca        1 07H     -0.021000
     25 C16        -4.2070    4.7190   -7.8730 ca        1 07H     -0.085000
     26 C17        -4.9500    4.4010  -10.2210 cc        1 07H     -0.067300
     27 N27        -3.6880    4.4080  -10.8430 na        1 07H     -0.008600
     28 N28        -3.7410    3.9810  -12.0990 nc        1 07H     -0.504800
     29 C29        -5.0390    3.6600  -12.3540 cd        1 07H      0.289200
     30 C30        -5.8510    3.9130  -11.1900 cd        1 07H     -0.277300
     31 H1          1.9780   -1.1240   -1.3020 ha        1 07H      0.133000
     32 H2          3.1670   -1.5120    0.8560 ha        1 07H      0.134000
     33 H3          2.0310   -1.0260    3.0190 ha        1 07H      0.134000
     34 H4         -0.3120   -0.1340    3.0410 ha        1 07H      0.150000
     35 H5         -2.1830    2.0230   -0.1380 h1        1 07H      0.065700
     36 H6         -3.4240    0.6660   -0.1250 h1        1 07H      0.065700
     37 H7         -0.1340   -0.5300   -2.5180 ha        1 07H      0.138000
     38 H8         -3.5440   -0.0480   -2.6080 h1        1 07H      0.042700
     39 H9         -2.0740    0.2660   -3.6400 h1        1 07H      0.042700
     40 H11        -1.3850    2.9370   -2.2150 h1        1 07H      0.042950
     41 H12        -1.4110    2.6390   -4.0130 h1        1 07H      0.042950
     42 H13        -2.9510    4.7790   -2.3680 h1        1 07H      0.068450
     43 H14        -1.6830    5.0120   -3.6680 h1        1 07H      0.068450
     44 H15        -5.3840    3.4960   -4.9900 h1        1 07H      0.068450
     45 H16        -5.2590    3.8280   -3.1980 h1        1 07H      0.068450
     46 H17        -3.8300    1.6490   -4.8910 h1        1 07H      0.042950
     47 H18        -5.0400    1.4480   -3.5430 h1        1 07H      0.042950
     48 H19        -5.9350    5.9840   -5.2020 ha        1 07H      0.147000
     49 H20        -7.7010    6.1700   -6.9550 ha        1 07H      0.142000
     50 H21        -7.2360    5.4270   -9.2910 ha        1 07H      0.145000
     51 H22        -3.2080    4.3230   -8.1130 ha        1 07H      0.147000
     52 H23        -2.8370    4.7390  -10.4500 hn        1 07H      0.325700
     53 H24        -5.3600    3.2720  -13.3210 h4        1 07H      0.044100
     54 H25        -6.9160    3.7510  -11.0850 ha        1 07H      0.165000
@<TRIPOS>BOND
     1    1    2 ar  
     2    1    6 ar  
     3    1   10 1   
     4    2    3 ar  
     5    2   31 1   
     6    3    4 ar  
     7    3   32 1   
     8    4    5 ar  
     9    4   33 1   
    10    5    6 ar  
    11    5   34 1   
    12    6    7 1   
    13    7    8 1   
    14    8    9 1   
    15    8   35 1   
    16    8   36 1   
    17    9   10 2   
    18    9   11 1   
    19   10   37 1   
    20   11   12 1   
    21   11   38 1   
    22   11   39 1   
    23   12   13 1   
    24   12   17 1   
    25   13   14 1   
    26   13   40 1   
    27   13   41 1   
    28   14   15 1   
    29   14   42 1   
    30   14   43 1   
    31   15   16 1   
    32   15   18 1   
    33   16   17 1   
    34   16   44 1   
    35   16   45 1   
    36   17   46 1   
    37   17   47 1   
    38   18   19 2   
    39   18   20 1   
    40   20   21 ar  
    41   20   25 ar  
    42   21   22 ar  
    43   21   48 1   
    44   22   23 ar  
    45   22   49 1   
    46   23   24 ar  
    47   23   50 1   
    48   24   25 ar  
    49   24   26 1   
    50   25   51 1   
    51   26   27 1   
    52   26   30 2   
    53   27   28 1   
    54   27   52 1   
    55   28   29 2   
    56   29   30 1   
    57   29   53 1   
    58   30   54 1   
@<TRIPOS>SUBSTRUCTURE
     1 07H         1 TEMP              0 ****  ****    0 ROOT
