@<TRIPOS>MOLECULE
07H
   54    58     1     0     0
SMALL
bcc


@<TRIPOS>ATOM
      1 C1          0.1590   -0.4010   -0.3430 ca        1 07H     -0.133800
      2 C4          1.4640   -0.9040   -0.3370 ca        1 07H     -0.080000
      3 C8          2.1270   -1.1180    0.8680 ca        1 07H     -0.166000
      4 C10         1.4940   -0.8350    2.0810 ca        1 07H     -0.093000
      5 C6          0.1980   -0.3300    2.1050 ca        1 07H     -0.159000
      6 C2         -0.4660   -0.1090    0.8870 ca        1 07H      0.144100
      7 O5         -1.7640    0.3470    0.9710 os        1 07H     -0.329900
      8 C9         -2.3330    0.9300   -0.2100 c3        1 07H      0.181600
      9 C7         -1.7870    0.4340   -1.5040 c2        1 07H     -0.162400
     10 C3         -0.5900   -0.1770   -1.5630 ce        1 07H     -0.080200
     11 C26        -2.6490    0.6270   -2.7130 c3        1 07H      0.214000
     12 N23        -3.1250    1.9960   -2.8850 n3        1 07H     -0.731600
     13 C22        -2.0440    2.9400   -3.1300 c3        1 07H      0.141300
     14 C21        -2.5460    4.3820   -3.3550 c3        1 07H      0.078500
     15 N19        -3.6210    4.4830   -4.3220 n         1 07H     -0.451800
     16 C25        -4.6780    3.5210   -4.1140 c3        1 07H      0.078500
     17 C24        -4.1740    2.0770   -3.8920 c3        1 07H      0.141300
     18 C18        -3.3670    5.0480   -5.5720 c         1 07H      0.662700
     19 O20        -2.2550    5.5500   -5.8300 o         1 07H     -0.593100
     20 C14        -4.4720    5.1200   -6.5740 ca        1 07H     -0.130600
     21 C13        -5.7210    5.6530   -6.2430 ca        1 07H     -0.097000
     22 C12        -6.7070    5.7580   -7.2240 ca        1 07H     -0.135000
     23 C11        -6.4530    5.3360   -8.5270 ca        1 07H     -0.093000
     24 C15        -5.1970    4.8090   -8.8660 ca        1 07H     -0.021000
     25 C16        -4.2050    4.7060   -7.8820 ca        1 07H     -0.085000
     26 C17        -4.9530    4.3780  -10.2270 cc        1 07H     -0.067300
     27 N27        -3.6920    4.3750  -10.8510 na        1 07H     -0.008600
     28 N28        -3.7500    3.9400  -12.1050 nc        1 07H     -0.504800
     29 C29        -5.0500    3.6250  -12.3560 cd        1 07H      0.289200
     30 C30        -5.8580    3.8890  -11.1910 cd        1 07H     -0.277300
     31 H1          1.9620   -1.1310   -1.2910 ha        1 07H      0.133000
     32 H2          3.1540   -1.5130    0.8670 ha        1 07H      0.134000
     33 H3          2.0240   -1.0100    3.0290 ha        1 07H      0.134000
     34 H4         -0.3140   -0.1050    3.0510 ha        1 07H      0.150000
     35 H5         -2.1810    2.0430   -0.1360 h1        1 07H      0.065700
     36 H6         -3.4280    0.6940   -0.1130 h1        1 07H      0.065700
     37 H7         -0.1490   -0.5330   -2.5070 ha        1 07H      0.138000
     38 H8         -2.0880    0.2670   -3.6280 h1        1 07H      0.042700
     39 H9         -3.5580   -0.0340   -2.5920 h1        1 07H      0.042700
     40 H11        -1.3820    2.9420   -2.2190 h1        1 07H      0.042950
     41 H12        -1.4130    2.6340   -4.0150 h1        1 07H      0.042950
     42 H13        -1.6720    5.0110   -3.6840 h1        1 07H      0.068450
     43 H14        -2.9390    4.7910   -2.3800 h1        1 07H      0.068450
     44 H15        -5.2530    3.8480   -3.2000 h1        1 07H      0.068450
     45 H16        -5.3840    3.5060   -4.9900 h1        1 07H      0.068450
     46 H17        -5.0480    1.4640   -3.5330 h1        1 07H      0.042950
     47 H18        -3.8390    1.6520   -4.8830 h1        1 07H      0.042950
     48 H19        -5.9220    5.9960   -5.2160 ha        1 07H      0.147000
     49 H20        -7.6900    6.1810   -6.9680 ha        1 07H      0.142000
     50 H21        -7.2330    5.4210   -9.2990 ha        1 07H      0.145000
     51 H22        -3.2080    4.3040   -8.1210 ha        1 07H      0.147000
     52 H23        -2.8390    4.7030  -10.4610 hn        1 07H      0.325700
     53 H24        -5.3740    3.2320  -13.3190 h4        1 07H      0.044100
     54 H25        -6.9240    3.7330  -11.0830 ha        1 07H      0.165000
@<TRIPOS>BOND
     1    1    2 ar  
     2    1    6 ar  
     3    1   10 1   
     4    2    3 ar  
     5    2   31 1   
     6    3    4 ar  
     7    3   32 1   
     8    4    5 ar  
     9    4   33 1   
    10    5    6 ar  
    11    5   34 1   
    12    6    7 1   
    13    7    8 1   
    14    8    9 1   
    15    8   35 1   
    16    8   36 1   
    17    9   10 2   
    18    9   11 1   
    19   10   37 1   
    20   11   12 1   
    21   11   38 1   
    22   11   39 1   
    23   12   13 1   
    24   12   17 1   
    25   13   14 1   
    26   13   40 1   
    27   13   41 1   
    28   14   15 1   
    29   14   42 1   
    30   14   43 1   
    31   15   16 1   
    32   15   18 1   
    33   16   17 1   
    34   16   44 1   
    35   16   45 1   
    36   17   46 1   
    37   17   47 1   
    38   18   19 2   
    39   18   20 1   
    40   20   21 ar  
    41   20   25 ar  
    42   21   22 ar  
    43   21   48 1   
    44   22   23 ar  
    45   22   49 1   
    46   23   24 ar  
    47   23   50 1   
    48   24   25 ar  
    49   24   26 1   
    50   25   51 1   
    51   26   27 1   
    52   26   30 2   
    53   27   28 1   
    54   27   52 1   
    55   28   29 2   
    56   29   30 1   
    57   29   53 1   
    58   30   54 1   
@<TRIPOS>SUBSTRUCTURE
     1 07H         1 TEMP              0 ****  ****    0 ROOT
