@<TRIPOS>MOLECULE
07H
   54    58     1     0     0
SMALL
bcc


@<TRIPOS>ATOM
      1 C1          5.8440   -1.0420    0.9100 ca        1 07H     -0.133800
      2 C4          6.5390   -2.2260    1.1810 ca        1 07H     -0.080000
      3 C8          7.8860   -2.3400    0.8500 ca        1 07H     -0.166000
      4 C10         8.5570   -1.2710    0.2480 ca        1 07H     -0.093000
      5 C6          7.8900   -0.0840   -0.0360 ca        1 07H     -0.159000
      6 C2          6.5290    0.0250    0.2930 ca        1 07H      0.144100
      7 O5          5.9310    1.2390    0.0330 os        1 07H     -0.329900
      8 C9          4.4970    1.2710    0.0000 c3        1 07H      0.181600
      9 C7          3.8070    0.2530    0.8410 c2        1 07H     -0.162400
     10 C3          4.4480   -0.8570    1.2500 ce        1 07H     -0.080200
     11 C26         2.3890    0.5470    1.2210 c3        1 07H      0.214000
     12 N23         1.5360    0.8950    0.0900 n3        1 07H     -0.731600
     13 C22         1.3750   -0.2030   -0.8530 c3        1 07H      0.141300
     14 C21         0.4390    0.1470   -2.0280 c3        1 07H      0.078500
     15 N19        -0.8210    0.7340   -1.6180 n         1 07H     -0.451800
     16 C25        -0.6750    1.7970   -0.6500 c3        1 07H      0.078500
     17 C24         0.2600    1.4430    0.5290 c3        1 07H      0.141300
     18 C18        -1.9940   -0.0120   -1.7290 c         1 07H      0.662700
     19 O20        -1.9830   -1.1400   -2.2640 o         1 07H     -0.593100
     20 C14        -3.2830    0.5890   -1.2760 ca        1 07H     -0.130600
     21 C13        -3.6850    1.8580   -1.7020 ca        1 07H     -0.097000
     22 C12        -4.9240    2.3590   -1.3040 ca        1 07H     -0.135000
     23 C11        -5.7600    1.6030   -0.4860 ca        1 07H     -0.093000
     24 C15        -5.3650    0.3240   -0.0620 ca        1 07H     -0.021000
     25 C16        -4.1220   -0.1820   -0.4650 ca        1 07H     -0.085000
     26 C17        -6.2510   -0.4470    0.7860 cc        1 07H     -0.067300
     27 N27        -6.2960   -1.8520    0.8270 na        1 07H     -0.008600
     28 N28        -7.2040   -2.3040    1.6850 nc        1 07H     -0.504800
     29 C29        -7.7860   -1.2150    2.2560 cd        1 07H      0.289200
     30 C30        -7.2160   -0.0060    1.7150 cd        1 07H     -0.277300
     31 H1          6.0130   -3.0660    1.6590 ha        1 07H      0.133000
     32 H2          8.4270   -3.2730    1.0650 ha        1 07H      0.134000
     33 H3          9.6230   -1.3680   -0.0070 ha        1 07H      0.134000
     34 H4          8.4040    0.7650   -0.5060 ha        1 07H      0.150000
     35 H5          4.2550    2.3150    0.3440 h1        1 07H      0.065700
     36 H6          4.1870    1.1490   -1.0750 h1        1 07H      0.065700
     37 H7          3.9590   -1.6380    1.8510 ha        1 07H      0.138000
     38 H8          1.9720   -0.3330    1.7980 h1        1 07H      0.042700
     39 H9          2.4020    1.4340    1.9210 h1        1 07H      0.042700
     40 H11         2.3910   -0.4380   -1.2770 h1        1 07H      0.042950
     41 H12         0.9880   -1.1360   -0.3460 h1        1 07H      0.042950
     42 H13         0.9520    0.8970   -2.6960 h1        1 07H      0.068450
     43 H14         0.2510   -0.7930   -2.6190 h1        1 07H      0.068450
     44 H15        -0.2510    2.6900   -1.1940 h1        1 07H      0.068450
     45 H16        -1.6730    2.0860   -0.2200 h1        1 07H      0.068450
     46 H17        -0.2830    0.7400    1.2260 h1        1 07H      0.042950
     47 H18         0.4680    2.3950    1.0930 h1        1 07H      0.042950
     48 H19        -3.0300    2.4540   -2.3560 ha        1 07H      0.147000
     49 H20        -5.2440    3.3560   -1.6410 ha        1 07H      0.142000
     50 H21        -6.7380    2.0000   -0.1740 ha        1 07H      0.145000
     51 H22        -3.7900   -1.1850   -0.1550 ha        1 07H      0.147000
     52 H23        -5.7720   -2.4780    0.2590 hn        1 07H      0.325700
     53 H24        -8.5680   -1.3050    3.0100 h4        1 07H      0.044100
     54 H25        -7.4690    1.0140    1.9760 ha        1 07H      0.165000
@<TRIPOS>BOND
     1    1    2 ar  
     2    1    6 ar  
     3    1   10 1   
     4    2    3 ar  
     5    2   31 1   
     6    3    4 ar  
     7    3   32 1   
     8    4    5 ar  
     9    4   33 1   
    10    5    6 ar  
    11    5   34 1   
    12    6    7 1   
    13    7    8 1   
    14    8    9 1   
    15    8   35 1   
    16    8   36 1   
    17    9   10 2   
    18    9   11 1   
    19   10   37 1   
    20   11   12 1   
    21   11   38 1   
    22   11   39 1   
    23   12   13 1   
    24   12   17 1   
    25   13   14 1   
    26   13   40 1   
    27   13   41 1   
    28   14   15 1   
    29   14   42 1   
    30   14   43 1   
    31   15   16 1   
    32   15   18 1   
    33   16   17 1   
    34   16   44 1   
    35   16   45 1   
    36   17   46 1   
    37   17   47 1   
    38   18   19 2   
    39   18   20 1   
    40   20   21 ar  
    41   20   25 ar  
    42   21   22 ar  
    43   21   48 1   
    44   22   23 ar  
    45   22   49 1   
    46   23   24 ar  
    47   23   50 1   
    48   24   25 ar  
    49   24   26 1   
    50   25   51 1   
    51   26   27 1   
    52   26   30 2   
    53   27   28 1   
    54   27   52 1   
    55   28   29 2   
    56   29   30 1   
    57   29   53 1   
    58   30   54 1   
@<TRIPOS>SUBSTRUCTURE
     1 07H         1 TEMP              0 ****  ****    0 ROOT
