@<TRIPOS>MOLECULE
07H
   54    50     1     0     0
SMALL
bcc


@<TRIPOS>ATOM
      1 C1         -4.4480   -2.6900    3.0710 c1        1 07H     -0.122000
      2 C4         -5.4380   -2.2840    4.0170 c1        1 07H     -0.124500
      3 C8         -6.7250   -2.8210    3.9540 c1        1 07H     -0.124500
      4 C10        -7.0440   -3.7560    2.9660 c1        1 07H     -0.124500
      5 C6         -6.0710   -4.1550    2.0370 c1        1 07H     -0.124500
      6 C2         -4.7610   -3.6100    2.0990 c1        1 07H      0.099000
      7 O5         -3.6880   -4.1800    1.2380 os        1 07H     -0.213000
      8 C9         -2.4780   -3.4060    0.9600 c3        1 07H      0.027000
      9 C7         -2.0960   -2.4460    2.0900 c2        1 07H     -0.154000
     10 C3         -3.0710   -2.1360    3.1470 c2        1 07H     -0.092000
     11 C26        -0.6560   -1.9560    2.2200 c3        1 07H     -0.027000
     12 N23        -0.4920   -0.6870    1.4500 n3        1 07H     -0.257000
     13 C22         0.0260    0.3450    2.3260 c3        1 07H     -0.095500
     14 C21         0.3680    1.6120    1.5780 c3        1 07H     -0.038000
     15 N19         1.2080    1.3620    0.4440 n         1 07H     -0.311000
     16 C25         0.7170    0.3660   -0.4230 c3        1 07H     -0.038000
     17 C24         0.3660   -0.9250    0.3200 c3        1 07H     -0.095500
     18 C18         2.4340    2.0630    0.2120 c2        1 07H      0.335000
     19 O20         2.8150    2.9370    1.0170 o         1 07H     -0.350000
     20 C14         3.2210    1.8270   -1.1010 c2        1 07H     -0.110000
     21 C13         4.1560    0.8000   -1.1750 c2        1 07H     -0.084000
     22 C12         4.9510    0.6640   -2.3040 c1        1 07H     -0.133000
     23 C11         4.8150    1.5450   -3.3530 c1        1 07H     -0.094000
     24 C15         3.8840    2.5690   -3.2820 c1        1 07H     -0.023000
     25 C16         3.0850    2.7070   -2.1480 c1        1 07H     -0.099000
     26 C17         3.7910    3.5870   -4.4010 c2        1 07H     -0.043000
     27 N27         4.4700    4.7530   -4.4710 n2        1 07H     -0.155000
     28 N28         4.1250    5.3770   -5.6530 n2        1 07H     -0.072000
     29 C29         3.2380    4.5880   -6.2990 c1        1 07H     -0.175000
     30 C30         3.0240    3.4740   -5.5290 c1        1 07H     -0.212000
     31 H1         -5.2080   -1.6100    4.7330 ha        1 07H      0.137750
     32 H2         -7.3830   -2.5520    4.5810 ha        1 07H      0.137750
     33 H3         -7.9670   -4.1390    2.9200 ha        1 07H      0.137750
     34 H4         -6.2940   -4.8100    1.3510 ha        1 07H      0.137750
     35 H5         -1.7580   -3.9770    0.5770 h1        1 07H      0.105500
     36 H6         -2.6510   -2.8340    0.2000 h1        1 07H      0.105500
     37 H7         -2.8320   -1.5320    3.8610 ha        1 07H      0.138000
     38 H8         -0.4460   -1.7920    3.1820 h1        1 07H      0.082000
     39 H9         -0.0240   -2.6600    1.8520 h1        1 07H      0.082000
     40 H11         0.8180    0.0170    2.7610 h1        1 07H      0.082250
     41 H12        -0.6580    0.5550    3.0180 h1        1 07H      0.082250
     42 H13        -0.4670    2.0390    1.2690 h1        1 07H      0.108250
     43 H14         0.8140    2.1980    2.1630 h1        1 07H      0.108250
     44 H15         1.3980    0.1710   -1.0960 h1        1 07H      0.108250
     45 H16        -0.0590    0.6920   -0.8580 h1        1 07H      0.108250
     46 H17         1.1770   -1.3390    0.6270 h1        1 07H      0.082250
     47 H18        -0.0970   -1.5470   -0.3120 h1        1 07H      0.082250
     48 H19         4.2490    0.2030   -0.4650 ha        1 07H      0.152000
     49 H20         5.5920   -0.0410   -2.3530 ha        1 07H      0.142000
     50 H21         5.3620    1.4500   -4.1280 ha        1 07H      0.145000
     51 H22         2.4390    3.4180   -2.0980 ha        1 07H      0.142000
     52 H23         5.0380    5.0630   -3.8620 DU        1 07H      0.207333
     53 H24         2.8110    4.7820   -7.1820 DU        1 07H      0.207333
     54 H25         2.4230    2.7220   -5.7500 DU        1 07H      0.207333
@<TRIPOS>BOND
     1    1    6 1   
     2    1   10 1   
     3    2    3 1   
     4    2   31 1   
     5    3   32 1   
     6    4    5 1   
     7    4   33 1   
     8    5   34 1   
     9    6    7 1   
    10    7    8 1   
    11    8    9 1   
    12    8   35 1   
    13    8   36 1   
    14    9   10 1   
    15    9   11 1   
    16   10   37 1   
    17   11   12 1   
    18   11   38 1   
    19   11   39 1   
    20   12   13 1   
    21   12   17 1   
    22   13   14 1   
    23   13   40 1   
    24   13   41 1   
    25   14   15 1   
    26   14   42 1   
    27   14   43 1   
    28   15   16 1   
    29   15   18 1   
    30   16   17 1   
    31   16   44 1   
    32   16   45 1   
    33   17   46 1   
    34   17   47 1   
    35   18   19 1   
    36   18   20 1   
    37   20   21 1   
    38   20   25 1   
    39   21   22 1   
    40   21   48 1   
    41   22   49 1   
    42   23   24 1   
    43   23   50 1   
    44   24   26 1   
    45   25   51 1   
    46   26   27 1   
    47   26   30 1   
    48   27   28 1   
    49   28   29 1   
    50   29   30 1   
@<TRIPOS>SUBSTRUCTURE
     1 07H         1 TEMP              0 ****  ****    0 ROOT
