@<TRIPOS>MOLECULE
07J
   72    75     1     0     0
SMALL
bcc


@<TRIPOS>ATOM
      1 O1          2.2850    0.8260   -1.6440 o         1 07J     -0.291100
      2 C2          1.2370    1.0360   -1.0590 c         1 07J      0.506100
      3 N3          1.2320    1.8400    0.2090 n4        1 07J     -0.505200
      4 C4          0.8240    1.0900    1.4040 ca        1 07J     -0.018400
      5 C5          1.8240    0.6030    2.2590 ca        1 07J     -0.078600
      6 CL1         3.4520    0.7780    1.8480 cl        1 07J      0.008100
      7 C7          1.4270   -0.0010    3.4940 ca        1 07J      0.255600
      8 O8          2.4420   -0.4420    4.2760 os        1 07J     -0.284900
      9 C9          2.1200   -0.9490    5.5820 c3        1 07J      0.101700
     10 C10         0.0740   -0.1120    3.8190 ca        1 07J     -0.240000
     11 C11        -0.9180    0.3550    2.9390 ca        1 07J      0.255600
     12 O12        -2.2520    0.2530    3.1760 os        1 07J     -0.284900
     13 C13        -2.6720   -0.2020    4.4740 c3        1 07J      0.101700
     14 C14        -0.5480    0.9520    1.7120 ca        1 07J     -0.078600
     15 CL2        -1.7310    1.5710    0.6460 cl        1 07J      0.008100
     16 N16        -0.0820    0.5300   -1.5930 n4        1 07J     -0.577900
     17 C17        -0.4310    1.3210   -2.8110 c3        1 07J      0.076100
     18 C18         0.0190   -0.9370   -1.8640 ca        1 07J      0.522200
     19 C19        -0.5690   -1.5170   -3.0090 ca        1 07J     -0.270600
     20 C20        -0.4200   -2.9330   -3.1230 ca        1 07J      0.550200
     21 N21         0.2450   -3.6720   -2.2000 nb        1 07J     -0.619000
     22 C22         0.7750   -2.9970   -1.1430 ca        1 07J      0.733900
     23 N23         0.6960   -1.6610   -0.9260 nb        1 07J     -0.680000
     24 N24        -1.0050   -3.6590   -4.2870 n4        1 07J     -0.577100
     25 C25        -1.3640   -2.8190   -5.4120 ca        1 07J     -0.276400
     26 C26        -0.4130   -2.5410   -6.4260 ca        1 07J     -0.033000
     27 C27        -0.7950   -1.9170   -7.5840 ca        1 07J     -0.215500
     28 C28        -2.1690   -1.5580   -7.8370 ca        1 07J      0.268600
     29 C29        -3.0910   -1.7740   -6.7470 ca        1 07J     -0.215500
     30 C30        -2.7060   -2.3980   -5.5900 ca        1 07J     -0.033000
     31 N31        -2.5740   -1.0650   -9.0320 nh        1 07J     -0.568000
     32 C32        -3.9590   -0.6510   -9.2110 c3        1 07J      0.189300
     33 C33        -4.3800   -0.3090  -10.6540 c3        1 07J      0.154800
     34 N34        -3.3410    0.4020  -11.3800 n3        1 07J     -0.731600
     35 C35        -3.8080    0.8970  -12.6730 c3        1 07J      0.165800
     36 C36        -2.8000    1.7560  -13.4160 c3        1 07J     -0.101100
     37 C37        -2.1500   -0.4240  -11.4590 c3        1 07J      0.154800
     38 C38        -1.5890   -0.7890  -10.0700 c3        1 07J      0.189300
     39 H1          2.2270    2.1580    0.3580 hn        1 07J      0.515300
     40 H2          1.6040   -0.1660    6.1870 h1        1 07J      0.086033
     41 H3          3.1380   -1.1760    6.0020 h1        1 07J      0.086033
     42 H4          1.5080   -1.8780    5.4920 h1        1 07J      0.086033
     43 H5         -0.2230   -0.5640    4.7830 ha        1 07J      0.204000
     44 H6         -2.3710   -1.2660    4.6220 h1        1 07J      0.086033
     45 H7         -2.2620    0.4630    5.2710 h1        1 07J      0.086033
     46 H8         -3.7890   -0.1030    4.4060 h1        1 07J      0.086033
     47 H9         -1.4800    1.0610   -3.1250 hx        1 07J      0.131700
     48 H10         0.2910    1.0950   -3.6450 hx        1 07J      0.131700
     49 H11        -0.3880    2.4170   -2.5610 hx        1 07J      0.131700
     50 H12        -1.1070   -0.9550   -3.7930 ha        1 07J      0.219000
     51 H13         1.3340   -3.6080   -0.3850 h5        1 07J      0.139100
     52 H14        -1.8490   -4.1560   -3.9530 hn        1 07J      0.491800
     53 H15         0.6420   -2.8410   -6.3030 ha        1 07J      0.146500
     54 H16        -0.0220   -1.7120   -8.3460 ha        1 07J      0.176000
     55 H17        -4.1440   -1.4590   -6.8460 ha        1 07J      0.176000
     56 H18        -3.4630   -2.5890   -4.8090 ha        1 07J      0.146500
     57 H19        -4.1350    0.2540   -8.5590 h1        1 07J      0.066450
     58 H20        -4.6330   -1.4870   -8.8650 h1        1 07J      0.066450
     59 H21        -4.6860   -1.2640  -11.1740 h1        1 07J      0.067950
     60 H22        -5.2900    0.3520  -10.5830 h1        1 07J      0.067950
     61 H24        -4.7230    1.5230  -12.4630 h1        1 07J      0.050200
     62 H25        -4.1220    0.0440  -13.3440 h1        1 07J      0.050200
     63 H26        -2.3810    2.5570  -12.7620 hc        1 07J      0.052033
     64 H27        -3.3200    2.2390  -14.2790 hc        1 07J      0.052033
     65 H28        -1.9570    1.1420  -13.8170 hc        1 07J      0.052033
     66 H29        -1.3450    0.1550  -11.9940 h1        1 07J      0.067950
     67 H30        -2.3320   -1.3800  -12.0330 h1        1 07J      0.067950
     68 H31        -0.9390    0.0610   -9.7090 h1        1 07J      0.066450
     69 H32        -0.9470   -1.7070  -10.2090 h1        1 07J      0.066450
     70 H321        0.6240    2.6720    0.1070 hn        1 07J      0.515300
     71 H161       -0.8550    0.6730   -0.8500 hn        1 07J      0.509800
     72 H242       -0.3180   -4.3660   -4.6110 hn        1 07J      0.491800
@<TRIPOS>BOND
     1    1    2 2   
     2    2    3 1   
     3    2   16 1   
     4    3    4 1   
     5    3   39 1   
     6    3   70 1   
     7    4    5 ar  
     8    4   14 ar  
     9    5    6 1   
    10    5    7 ar  
    11    7    8 1   
    12    7   10 ar  
    13    8    9 1   
    14    9   40 1   
    15    9   41 1   
    16    9   42 1   
    17   10   11 ar  
    18   10   43 1   
    19   11   12 1   
    20   11   14 ar  
    21   12   13 1   
    22   13   44 1   
    23   13   45 1   
    24   13   46 1   
    25   14   15 1   
    26   16   17 1   
    27   16   18 1   
    28   16   71 1   
    29   17   47 1   
    30   17   48 1   
    31   17   49 1   
    32   18   19 ar  
    33   18   23 ar  
    34   19   20 ar  
    35   19   50 1   
    36   20   21 ar  
    37   20   24 1   
    38   21   22 ar  
    39   22   23 ar  
    40   22   51 1   
    41   24   25 1   
    42   24   52 1   
    43   24   72 1   
    44   25   26 ar  
    45   25   30 ar  
    46   26   27 ar  
    47   26   53 1   
    48   27   28 ar  
    49   27   54 1   
    50   28   29 ar  
    51   28   31 1   
    52   29   30 ar  
    53   29   55 1   
    54   30   56 1   
    55   31   32 1   
    56   31   38 1   
    57   32   33 1   
    58   32   57 1   
    59   32   58 1   
    60   33   34 1   
    61   33   59 1   
    62   33   60 1   
    63   34   35 1   
    64   34   37 1   
    65   35   36 1   
    66   35   61 1   
    67   35   62 1   
    68   36   63 1   
    69   36   64 1   
    70   36   65 1   
    71   37   38 1   
    72   37   66 1   
    73   37   67 1   
    74   38   68 1   
    75   38   69 1   
@<TRIPOS>SUBSTRUCTURE
     1 07J         1 TEMP              0 ****  ****    0 ROOT
