@<TRIPOS>MOLECULE
07J
   69    60     1     0     0
SMALL
bcc


@<TRIPOS>ATOM
      1 O1         -0.1680    1.3230    4.6370 o         1 07J     -0.358000
      2 C2          0.9620    0.8120    4.6510 c1        1 07J      0.395000
      3 N3          1.6630    0.6320    5.9140 n2        1 07J     -0.314000
      4 C4          1.0450    1.0490    7.1420 c1        1 07J      0.097000
      5 C5          0.9870    2.3920    7.4630 c1        1 07J     -0.086000
      6 CL1         1.7360    3.5750    6.4110 cl        1 07J      0.032000
      7 C7          0.3790    2.8010    8.6400 c1        1 07J      0.096000
      8 O8          0.3120    4.1840    8.9620 o         1 07J     -0.207000
      9 C9         -0.8170    4.8480    8.4160 c3        1 07J     -0.076500
     10 C10        -0.1740    1.8610    9.5010 c1        1 07J     -0.206000
     11 C11        -0.1170    0.5070    9.1820 c1        1 07J     -0.005000
     12 O12        -0.5750   -0.4750   10.1340 o         1 07J     -0.207000
     13 C13        -1.9980   -0.6840   10.1170 c3        1 07J     -0.076500
     14 C14         0.4900    0.0990    8.0070 c1        1 07J     -0.005000
     15 CL2         0.4160   -1.5810    7.5250 cl        1 07J      0.013000
     16 N16         1.5580    0.3590    3.4290 n3        1 07J     -0.256000
     17 C17         2.8880   -0.1040    3.4230 c3        1 07J     -0.088000
     18 C18         0.8720    0.4930    2.2380 c2        1 07J      0.155000
     19 C19         0.7360   -0.5890    1.4000 c2        1 07J     -0.262000
     20 C20        -0.0400   -0.4910    0.2750 c1        1 07J      0.158000
     21 N21        -0.6720    0.6710   -0.0080 n2        1 07J     -0.223000
     22 C22        -0.5360    1.7430    0.8250 c1        1 07J      0.012000
     23 N23         0.2440    1.6440    1.9530 n1        1 07J     -0.235000
     24 N24        -0.2880   -1.6410   -0.5160 n2        1 07J     -0.235000
     25 C25        -0.4810   -1.5060   -1.9320 c1        1 07J      0.018000
     26 C26        -1.7420   -1.2610   -2.4360 c1        1 07J     -0.142000
     27 C27        -1.9390   -1.1640   -3.8220 c1        1 07J     -0.142000
     28 C28        -0.8520   -1.3170   -4.6970 c1        1 07J      0.045000
     29 C29         0.4180   -1.5640   -4.1880 c1        1 07J     -0.169000
     30 C30         0.6100   -1.6590   -2.8070 c1        1 07J     -0.084000
     31 N31        -1.0500   -1.1500   -6.1680 n3        1 07J     -0.235000
     32 C32        -0.2810   -0.0120   -6.6390 c3        1 07J     -0.052500
     33 C33        -0.3270    0.1310   -8.1580 c3        1 07J     -0.071500
     34 N34         0.0140   -1.0710   -8.8230 n3        1 07J     -0.255000
     35 C35        -0.1830   -0.9120  -10.2350 c3        1 07J     -0.067000
     36 C36         1.1490   -1.1060  -10.9610 c3        1 07J     -0.213000
     37 C37        -0.7560   -2.2080   -8.3510 c3        1 07J     -0.071500
     38 C38        -0.7100   -2.3490   -6.8290 c3        1 07J     -0.052500
     39 H1          2.4810    0.2190    5.9290 hn        1 07J      0.235000
     40 H2         -0.8650    5.7600    8.7760 h1        1 07J      0.088500
     41 H3         -1.6270    4.3620    8.6550 h1        1 07J      0.088500
     42 H4         -0.7340    4.8860    7.4340 h1        1 07J      0.088500
     43 H5         -0.6030    2.1520   10.3330 ha        1 07J      0.162000
     44 H6         -2.4470    0.0680   10.5730 h1        1 07J      0.088500
     45 H7         -2.3070   -0.7370    9.1960 h1        1 07J      0.088500
     46 H8         -2.2110   -1.5220   10.5820 h1        1 07J      0.088500
     47 H9          3.1610   -0.3070    2.4920 h1        1 07J      0.092000
     48 H10         2.9540   -0.9170    3.9680 h1        1 07J      0.092000
     49 H11         3.4820    0.5920    3.7950 h1        1 07J      0.092000
     50 H12         1.1950   -1.4290    1.6070 ha        1 07J      0.179000
     51 H13        -0.9870    2.5730    0.6220 ha        1 07J      0.191000
     52 H14        -0.4110   -2.4470   -0.1170 hn        1 07J      0.226000
     53 H15        -2.4970   -1.1530   -1.8280 ha        1 07J      0.133500
     54 H16        -2.8300   -0.9910   -4.1780 ha        1 07J      0.133500
     55 H17         1.1680   -1.6690   -4.7880 ha        1 07J      0.136000
     56 H18         1.4970   -1.8320   -2.4510 ha        1 07J      0.152000
     57 H19        -0.6360    0.7890   -6.2410 h1        1 07J      0.083750
     58 H20         0.6700   -0.1230   -6.3520 h1        1 07J      0.083750
     59 H21        -1.2430    0.4000   -8.4290 h1        1 07J      0.078250
     60 H22         0.3090    0.8400   -8.4310 h1        1 07J      0.078250
     61 H24        -0.8190   -1.5710  -10.5480 h1        1 07J      0.069500
     62 H25        -0.5390    0.0170  -10.4250 h1        1 07J      0.069500
     63 H26         1.8860   -0.7460  -10.4010 hc        1 07J      0.079000
     64 H27         1.1280   -0.6280  -11.8250 hc        1 07J      0.079000
     65 H28         1.2960   -2.0540  -11.1190 hc        1 07J      0.079000
     66 H29        -1.6940   -2.0990   -8.6330 h1        1 07J      0.078250
     67 H30        -0.3940   -3.0280   -8.7570 h1        1 07J      0.078250
     68 H31        -1.3540   -3.0640   -6.5500 h1        1 07J      0.083750
     69 H32         0.2000   -2.6160   -6.5600 h1        1 07J      0.083750
@<TRIPOS>BOND
     1    1    2 1   
     2    2   16 1   
     3    3    4 1   
     4    3   39 1   
     5    4    5 1   
     6    5    6 1   
     7    7   10 1   
     8    8    9 1   
     9    9   40 1   
    10    9   41 1   
    11    9   42 1   
    12   10   43 1   
    13   11   14 1   
    14   12   13 1   
    15   13   44 1   
    16   13   45 1   
    17   13   46 1   
    18   16   17 1   
    19   16   18 1   
    20   17   47 1   
    21   17   48 1   
    22   17   49 1   
    23   18   19 1   
    24   18   23 1   
    25   19   20 1   
    26   19   50 1   
    27   20   21 1   
    28   21   22 1   
    29   22   51 1   
    30   24   25 1   
    31   24   52 1   
    32   25   30 1   
    33   26   27 1   
    34   26   53 1   
    35   27   54 1   
    36   28   29 1   
    37   28   31 1   
    38   29   55 1   
    39   30   56 1   
    40   31   32 1   
    41   31   38 1   
    42   32   33 1   
    43   32   57 1   
    44   32   58 1   
    45   33   34 1   
    46   33   59 1   
    47   33   60 1   
    48   34   35 1   
    49   34   37 1   
    50   35   36 1   
    51   35   61 1   
    52   35   62 1   
    53   36   63 1   
    54   36   64 1   
    55   36   65 1   
    56   37   38 1   
    57   37   66 1   
    58   37   67 1   
    59   38   68 1   
    60   38   69 1   
@<TRIPOS>SUBSTRUCTURE
     1 07J         1 TEMP              0 ****  ****    0 ROOT
