@<TRIPOS>MOLECULE
07J
   69    72     1     0     0
SMALL
bcc


@<TRIPOS>ATOM
      1 O1          2.6020   -0.4560   -0.0090 o         1 07J     -0.591100
      2 C2          3.1350   -1.0170   -0.9880 c         1 07J      0.767100
      3 N3          4.4970   -0.7860   -1.2990 n         1 07J     -0.460100
      4 C4          5.3110   -0.0570   -0.4000 ca        1 07J      0.108600
      5 C5          6.2680   -0.7280    0.4010 ca        1 07J     -0.042100
      6 CL1         6.3860   -2.4230    0.3170 cl        1 07J     -0.054400
      7 C7          7.1100    0.0130    1.2510 ca        1 07J      0.178100
      8 O8          8.0270   -0.7100    1.9840 os        1 07J     -0.308400
      9 C9          8.8210    0.0190    2.9140 c3        1 07J      0.112200
     10 C10         7.0030    1.4070    1.3220 ca        1 07J     -0.273000
     11 C11         6.0600    2.0670    0.5300 ca        1 07J      0.178100
     12 O12         5.9040    3.4370    0.5350 os        1 07J     -0.308400
     13 C13         6.6980    4.1700    1.4620 c3        1 07J      0.112200
     14 C14         5.2160    1.3510   -0.3470 ca        1 07J     -0.042100
     15 CL2         4.1050    2.1660   -1.3350 cl        1 07J     -0.054400
     16 N16         2.3860   -1.9170   -1.8090 n         1 07J     -0.440300
     17 C17         3.0220   -2.5590   -2.9330 c3        1 07J      0.067300
     18 C18         0.9810   -1.6670   -1.9010 ca        1 07J      0.563200
     19 C19         0.2080   -1.5950   -0.7200 ca        1 07J     -0.392600
     20 C20        -1.2060   -1.3900   -0.8520 ca        1 07J      0.678200
     21 N21        -1.7850   -1.2680   -2.0910 nb        1 07J     -0.750000
     22 C22        -0.9400   -1.3620   -3.1450 ca        1 07J      0.674900
     23 N23         0.3980   -1.5450   -3.1430 nb        1 07J     -0.762000
     24 N24        -1.9740   -1.3850    0.3190 nh        1 07J     -0.714300
     25 C25        -3.3240   -0.9600    0.3480 ca        1 07J      0.100600
     26 C26        -4.3070   -1.5740   -0.4530 ca        1 07J     -0.114000
     27 C27        -5.6380   -1.1950   -0.3550 ca        1 07J     -0.155000
     28 C28        -6.0530   -0.1900    0.5500 ca        1 07J      0.125600
     29 C29        -5.0620    0.4170    1.3510 ca        1 07J     -0.155000
     30 C30        -3.7290    0.0410    1.2530 ca        1 07J     -0.114000
     31 N31        -7.4340    0.1060    0.6790 nh        1 07J     -0.633000
     32 C32        -7.8080    0.9580    1.7960 c3        1 07J      0.183800
     33 C33        -9.3370    1.0620    1.9640 c3        1 07J      0.165300
     34 N34       -10.0210    1.4400    0.7350 n3        1 07J     -0.729600
     35 C35       -11.4650    1.5010    0.9270 c3        1 07J      0.169800
     36 C36       -12.2340    2.0410   -0.2670 c3        1 07J     -0.095100
     37 C37        -9.6310    0.6030   -0.3890 c3        1 07J      0.165300
     38 C38        -8.1030    0.4860   -0.5570 c3        1 07J      0.183800
     39 H1          4.9870   -1.4860   -1.8170 hn        1 07J      0.320500
     40 H2          8.1780    0.5370    3.6660 h1        1 07J      0.049033
     41 H3          9.4350   -0.7800    3.4030 h1        1 07J      0.049033
     42 H4          9.4780    0.7500    2.3830 h1        1 07J      0.049033
     43 H5          7.6570    1.9760    1.9960 ha        1 07J      0.152000
     44 H6          6.3610    5.2260    1.3010 h1        1 07J      0.049033
     45 H7          6.4890    3.8440    2.5090 h1        1 07J      0.049033
     46 H8          7.7840    4.0620    1.2210 h1        1 07J      0.049033
     47 H9          3.9080   -3.1430   -2.5630 h1        1 07J      0.052033
     48 H10         2.3090   -3.2890   -3.4040 h1        1 07J      0.052033
     49 H11         3.3530   -1.8270   -3.7170 h1        1 07J      0.052033
     50 H12         0.6810   -1.6700    0.2690 ha        1 07J      0.180000
     51 H13        -1.4120   -1.2600   -4.1460 h5        1 07J      0.053100
     52 H14        -1.4510   -1.1450    1.1370 hn        1 07J      0.429800
     53 H15        -4.0300   -2.3650   -1.1680 ha        1 07J      0.141000
     54 H16        -6.3760   -1.7080   -0.9910 ha        1 07J      0.136500
     55 H17        -5.3250    1.2090    2.0700 ha        1 07J      0.136500
     56 H18        -2.9900    0.5430    1.8980 ha        1 07J      0.141000
     57 H19        -7.3910    0.5070    2.7390 h1        1 07J      0.043950
     58 H20        -7.3880    2.0000    1.6840 h1        1 07J      0.043950
     59 H21        -9.7230    0.0830    2.3740 h1        1 07J      0.038700
     60 H22        -9.5390    1.8610    2.7310 h1        1 07J      0.038700
     61 H24       -11.8890    0.4860    1.1940 h1        1 07J      0.030200
     62 H25       -11.6490    2.1830    1.8060 h1        1 07J      0.030200
     63 H26       -13.2930    2.2190    0.0410 hc        1 07J      0.039700
     64 H27       -11.8000    3.0050   -0.6260 hc        1 07J      0.039700
     65 H28       -12.2300    1.3130   -1.1130 hc        1 07J      0.039700
     66 H29       -10.0680   -0.4350   -0.3090 h1        1 07J      0.038700
     67 H30       -10.0350    1.0780   -1.3270 h1        1 07J      0.038700
     68 H31        -7.7060    1.4680   -0.9480 h1        1 07J      0.043950
     69 H32        -7.9050   -0.3030   -1.3340 h1        1 07J      0.043950
@<TRIPOS>BOND
     1    1    2 2   
     2    2    3 1   
     3    2   16 1   
     4    3    4 1   
     5    3   39 1   
     6    4    5 ar  
     7    4   14 ar  
     8    5    6 1   
     9    5    7 ar  
    10    7    8 1   
    11    7   10 ar  
    12    8    9 1   
    13    9   40 1   
    14    9   41 1   
    15    9   42 1   
    16   10   11 ar  
    17   10   43 1   
    18   11   12 1   
    19   11   14 ar  
    20   12   13 1   
    21   13   44 1   
    22   13   45 1   
    23   13   46 1   
    24   14   15 1   
    25   16   17 1   
    26   16   18 1   
    27   17   47 1   
    28   17   48 1   
    29   17   49 1   
    30   18   19 ar  
    31   18   23 ar  
    32   19   20 ar  
    33   19   50 1   
    34   20   21 ar  
    35   20   24 1   
    36   21   22 ar  
    37   22   23 ar  
    38   22   51 1   
    39   24   25 1   
    40   24   52 1   
    41   25   26 ar  
    42   25   30 ar  
    43   26   27 ar  
    44   26   53 1   
    45   27   28 ar  
    46   27   54 1   
    47   28   29 ar  
    48   28   31 1   
    49   29   30 ar  
    50   29   55 1   
    51   30   56 1   
    52   31   32 1   
    53   31   38 1   
    54   32   33 1   
    55   32   57 1   
    56   32   58 1   
    57   33   34 1   
    58   33   59 1   
    59   33   60 1   
    60   34   35 1   
    61   34   37 1   
    62   35   36 1   
    63   35   61 1   
    64   35   62 1   
    65   36   63 1   
    66   36   64 1   
    67   36   65 1   
    68   37   38 1   
    69   37   66 1   
    70   37   67 1   
    71   38   68 1   
    72   38   69 1   
@<TRIPOS>SUBSTRUCTURE
     1 07J         1 TEMP              0 ****  ****    0 ROOT
