@<TRIPOS>MOLECULE
07J
   69    72     1     0     0
SMALL
bcc


@<TRIPOS>ATOM
      1 O1          0.5320   -0.4450   -0.2620 o         1 07J     -0.591100
      2 C2          1.6260    0.1230   -0.0670 c         1 07J      0.767100
      3 N3          1.9740    0.5990    1.2200 ns        1 07J     -0.460100
      4 C4          1.1610    0.2770    2.3330 ca        1 07J      0.108600
      5 C5          1.5910   -0.6910    3.2740 ca        1 07J     -0.042100
      6 Cl1         3.0620   -1.5070    3.0190 cl        1 07J     -0.054400
      7 C7          0.8010   -0.9640    4.4060 ca        1 07J      0.178100
      8 O8          1.2960   -1.9060    5.2830 os        1 07J     -0.308400
      9 C9          0.4630   -2.2560    6.3840 c3        1 07J      0.112200
     10 C10        -0.4120   -0.2960    4.6060 ca        1 07J     -0.273000
     11 C11        -0.8340    0.6600    3.6790 ca        1 07J      0.178100
     12 O12        -2.0090    1.3690    3.8130 os        1 07J     -0.308400
     13 C13        -2.8430    1.0240    4.9140 c3        1 07J      0.112200
     14 C14        -0.0510    0.9690    2.5440 ca        1 07J     -0.042100
     15 Cl2        -0.5520    2.1620    1.4480 cl        1 07J     -0.054400
     16 N16         2.5590    0.2930   -1.1370 n         1 07J     -0.440300
     17 C17         3.8200    0.9490   -0.8910 c3        1 07J      0.067300
     18 C18         2.0020    0.4090   -2.4500 ca        1 07J      0.563200
     19 C19         1.1440   -0.6050   -2.9330 ca        1 07J     -0.392600
     20 C20         0.6400   -0.4800   -4.2700 ca        1 07J      0.678200
     21 N21         0.9850    0.5940   -5.0530 nb        1 07J     -0.750000
     22 C22         1.8180    1.4940   -4.4780 ca        1 07J      0.674900
     23 N23         2.3470    1.4860   -3.2360 nb        1 07J     -0.762000
     24 N24        -0.1560   -1.5200   -4.7650 nu        1 07J     -0.714300
     25 C25        -0.9010   -1.4130   -5.9630 ca        1 07J      0.100600
     26 C26        -0.2790   -1.1240   -7.1940 ca        1 07J     -0.114000
     27 C27        -1.0150   -1.0970   -8.3700 ca        1 07J     -0.155000
     28 C28        -2.4040   -1.3620   -8.3750 ca        1 07J      0.125600
     29 C29        -3.0190   -1.6530   -7.1390 ca        1 07J     -0.155000
     30 C30        -2.2850   -1.6770   -5.9600 ca        1 07J     -0.114000
     31 N31        -3.1010   -1.4090   -9.6110 nh        1 07J     -0.633000
     32 C32        -4.4570   -1.9290   -9.5650 c3        1 07J      0.183800
     33 C33        -5.0560   -2.1210  -10.9720 c3        1 07J      0.165300
     34 N34        -4.9570   -0.9270  -11.8010 n3        1 07J     -0.729600
     35 C35        -5.5080   -1.1560  -13.1320 c3        1 07J      0.169800
     36 C36        -5.5840    0.0880  -14.0010 c3        1 07J     -0.095100
     37 C37        -3.6050   -0.3910  -11.8300 c3        1 07J      0.165300
     38 C38        -2.9960   -0.2070  -10.4250 c3        1 07J      0.183800
     39 H1          2.9430    0.7010    1.4390 hn        1 07J      0.320500
     40 H2         -0.5150   -2.6610    6.0290 h1        1 07J      0.049033
     41 H3          0.3080   -1.3760    7.0550 h1        1 07J      0.049033
     42 H4          1.0550   -3.0510    6.9050 h1        1 07J      0.049033
     43 H5         -1.0270   -0.5220    5.4870 ha        1 07J      0.152000
     44 H6         -2.3290    1.2430    5.8820 h1        1 07J      0.049033
     45 H7         -3.7300    1.6960    4.7780 h1        1 07J      0.049033
     46 H8         -3.1490   -0.0480    4.8610 h1        1 07J      0.049033
     47 H9          4.3700    0.3870   -0.0880 h1        1 07J      0.052033
     48 H10         4.4510    0.9150   -1.8200 h1        1 07J      0.052033
     49 H11         3.6950    2.0220   -0.5840 h1        1 07J      0.052033
     50 H12         0.8540   -1.4500   -2.2930 ha        1 07J      0.180000
     51 H13         2.0930    2.3640   -5.1140 h5        1 07J      0.053100
     52 H14        -0.6080   -2.0520   -4.0480 hn        1 07J      0.429800
     53 H15         0.8030   -0.9180   -7.2380 ha        1 07J      0.141000
     54 H16        -0.4880   -0.8800   -9.3120 ha        1 07J      0.136500
     55 H17        -4.0990   -1.8610   -7.0810 ha        1 07J      0.136500
     56 H18        -2.8070   -1.9080   -5.0180 ha        1 07J      0.141000
     57 H19        -4.4310   -2.9380   -9.0650 h1        1 07J      0.043950
     58 H20        -5.1420   -1.2560   -8.9710 h1        1 07J      0.043950
     59 H21        -6.1490   -2.3620  -10.8440 h1        1 07J      0.038700
     60 H22        -4.5590   -3.0110  -11.4590 h1        1 07J      0.038700
     61 H24        -6.5540   -1.5530  -12.9870 h1        1 07J      0.030200
     62 H25        -4.9230   -1.9470  -13.6900 h1        1 07J      0.030200
     63 H26        -4.5670    0.4190  -14.3200 hc        1 07J      0.039700
     64 H27        -6.0790    0.9300  -13.4620 hc        1 07J      0.039700
     65 H28        -6.1800   -0.1510  -14.9150 hc        1 07J      0.039700
     66 H29        -2.9120   -1.0370  -12.4440 h1        1 07J      0.038700
     67 H30        -3.6500    0.6260  -12.3110 h1        1 07J      0.038700
     68 H31        -3.5010    0.6690   -9.9240 h1        1 07J      0.043950
     69 H32        -1.9080    0.0480  -10.5570 h1        1 07J      0.043950
@<TRIPOS>BOND
     1    1    2 2   
     2    2    3 1   
     3    2   16 1   
     4    3    4 1   
     5    3   39 1   
     6    4    5 ar  
     7    4   14 ar  
     8    5    6 1   
     9    5    7 ar  
    10    7    8 1   
    11    7   10 ar  
    12    8    9 1   
    13    9   40 1   
    14    9   41 1   
    15    9   42 1   
    16   10   11 ar  
    17   10   43 1   
    18   11   12 1   
    19   11   14 ar  
    20   12   13 1   
    21   13   44 1   
    22   13   45 1   
    23   13   46 1   
    24   14   15 1   
    25   16   17 1   
    26   16   18 1   
    27   17   47 1   
    28   17   48 1   
    29   17   49 1   
    30   18   19 ar  
    31   18   23 ar  
    32   19   20 ar  
    33   19   50 1   
    34   20   21 ar  
    35   20   24 1   
    36   21   22 ar  
    37   22   23 ar  
    38   22   51 1   
    39   24   25 1   
    40   24   52 1   
    41   25   26 ar  
    42   25   30 ar  
    43   26   27 ar  
    44   26   53 1   
    45   27   28 ar  
    46   27   54 1   
    47   28   29 ar  
    48   28   31 1   
    49   29   30 ar  
    50   29   55 1   
    51   30   56 1   
    52   31   32 1   
    53   31   38 1   
    54   32   33 1   
    55   32   57 1   
    56   32   58 1   
    57   33   34 1   
    58   33   59 1   
    59   33   60 1   
    60   34   35 1   
    61   34   37 1   
    62   35   36 1   
    63   35   61 1   
    64   35   62 1   
    65   36   63 1   
    66   36   64 1   
    67   36   65 1   
    68   37   38 1   
    69   37   66 1   
    70   37   67 1   
    71   38   68 1   
    72   38   69 1   
@<TRIPOS>SUBSTRUCTURE
     1 07J         1 TEMP              0 ****  ****    0 ROOT
