@<TRIPOS>MOLECULE
07J
   69    72     1     0     0
SMALL
bcc


@<TRIPOS>ATOM
      1 O1          0.5240   -0.4290   -0.2600 o         1 07J     -0.591100
      2 C2          1.6180    0.1410   -0.0640 c         1 07J      0.767100
      3 N3          1.9650    0.6140    1.2240 n         1 07J     -0.460100
      4 C4          1.1530    0.2870    2.3370 ca        1 07J      0.108600
      5 C5          1.5850   -0.6830    3.2750 ca        1 07J     -0.042100
      6 CL1         3.0570   -1.4960    3.0160 cl        1 07J     -0.054400
      7 C7          0.7960   -0.9610    4.4060 ca        1 07J      0.178100
      8 O8          1.2920   -1.9050    5.2800 os        1 07J     -0.308400
      9 C9          0.4600   -2.2590    6.3800 c3        1 07J      0.112200
     10 C10        -0.4180   -0.2950    4.6090 ca        1 07J     -0.273000
     11 C11        -0.8420    0.6630    3.6850 ca        1 07J      0.178100
     12 O12        -2.0180    1.3700    3.8220 os        1 07J     -0.308400
     13 C13        -2.8500    1.0220    4.9240 c3        1 07J      0.112200
     14 C14        -0.0600    0.9770    2.5500 ca        1 07J     -0.042100
     15 CL2        -0.5630    2.1720    1.4580 cl        1 07J     -0.054400
     16 N16         2.5500    0.3150   -1.1330 n         1 07J     -0.440300
     17 C17         3.8090    0.9760   -0.8870 c3        1 07J      0.067300
     18 C18         1.9930    0.4280   -2.4460 ca        1 07J      0.563200
     19 C19         1.1400   -0.5890   -2.9300 ca        1 07J     -0.392600
     20 C20         0.6370   -0.4670   -4.2670 ca        1 07J      0.678200
     21 N21         0.9770    0.6080   -5.0500 nb        1 07J     -0.750000
     22 C22         1.8060    1.5120   -4.4750 ca        1 07J      0.674900
     23 N23         2.3330    1.5060   -3.2320 nb        1 07J     -0.762000
     24 N24        -0.1550   -1.5110   -4.7630 nh        1 07J     -0.714300
     25 C25        -0.8980   -1.4080   -5.9620 ca        1 07J      0.100600
     26 C26        -0.2750   -1.1180   -7.1930 ca        1 07J     -0.114000
     27 C27        -1.0090   -1.0950   -8.3690 ca        1 07J     -0.155000
     28 C28        -2.3970   -1.3670   -8.3770 ca        1 07J      0.125600
     29 C29        -3.0130   -1.6580   -7.1410 ca        1 07J     -0.155000
     30 C30        -2.2810   -1.6790   -5.9610 ca        1 07J     -0.114000
     31 N31        -3.0920   -1.4180   -9.6130 nh        1 07J     -0.633000
     32 C32        -4.4460   -1.9440   -9.5690 c3        1 07J      0.183800
     33 C33        -5.0420   -2.1400  -10.9770 c3        1 07J      0.165300
     34 N34        -4.9470   -0.9470  -11.8070 n3        1 07J     -0.729600
     35 C35        -5.4950   -1.1800  -13.1380 c3        1 07J      0.169800
     36 C36        -5.5740    0.0620  -14.0090 c3        1 07J     -0.095100
     37 C37        -3.5970   -0.4050  -11.8350 c3        1 07J      0.165300
     38 C38        -2.9900   -0.2160  -10.4300 c3        1 07J      0.183800
     39 H1          2.9330    0.7170    1.4440 hn        1 07J      0.320500
     40 H2          1.0540   -3.0550    6.8990 h1        1 07J      0.049033
     41 H3          0.3040   -1.3830    7.0540 h1        1 07J      0.049033
     42 H4         -0.5170   -2.6650    6.0240 h1        1 07J      0.049033
     43 H5         -1.0330   -0.5250    5.4890 ha        1 07J      0.152000
     44 H6         -3.1550   -0.0510    4.8680 h1        1 07J      0.049033
     45 H7         -2.3350    1.2390    5.8910 h1        1 07J      0.049033
     46 H8         -3.7370    1.6930    4.7900 h1        1 07J      0.049033
     47 H9          4.4390    0.9470   -1.8160 h1        1 07J      0.052033
     48 H10         4.3610    0.4150   -0.0850 h1        1 07J      0.052033
     49 H11         3.6790    2.0480   -0.5780 h1        1 07J      0.052033
     50 H12         0.8530   -1.4360   -2.2900 ha        1 07J      0.180000
     51 H13         2.0770    2.3830   -5.1110 h5        1 07J      0.053100
     52 H14        -0.6050   -2.0440   -4.0450 hn        1 07J      0.429800
     53 H15         0.8050   -0.9060   -7.2350 ha        1 07J      0.141000
     54 H16        -0.4820   -0.8760   -9.3110 ha        1 07J      0.136500
     55 H17        -4.0920   -1.8710   -7.0850 ha        1 07J      0.136500
     56 H18        -2.8040   -1.9110   -5.0200 ha        1 07J      0.141000
     57 H19        -4.4160   -2.9520   -9.0670 h1        1 07J      0.043950
     58 H20        -5.1350   -1.2730   -8.9770 h1        1 07J      0.043950
     59 H21        -6.1340   -2.3850  -10.8500 h1        1 07J      0.038700
     60 H22        -4.5410   -3.0290  -11.4610 h1        1 07J      0.038700
     61 H24        -6.5400   -1.5800  -12.9950 h1        1 07J      0.030200
     62 H25        -4.9060   -1.9690  -13.6950 h1        1 07J      0.030200
     63 H26        -6.1680   -0.1800  -14.9240 hc        1 07J      0.039700
     64 H27        -6.0730    0.9040  -13.4720 hc        1 07J      0.039700
     65 H28        -4.5580    0.3970  -14.3280 hc        1 07J      0.039700
     66 H29        -3.6450    0.6110  -12.3170 h1        1 07J      0.038700
     67 H30        -2.9000   -1.0490  -12.4470 h1        1 07J      0.038700
     68 H31        -1.9030    0.0420  -10.5600 h1        1 07J      0.043950
     69 H32        -3.5000    0.6580   -9.9300 h1        1 07J      0.043950
@<TRIPOS>BOND
     1    1    2 2   
     2    2    3 1   
     3    2   16 1   
     4    3    4 1   
     5    3   39 1   
     6    4    5 ar  
     7    4   14 ar  
     8    5    6 1   
     9    5    7 ar  
    10    7    8 1   
    11    7   10 ar  
    12    8    9 1   
    13    9   40 1   
    14    9   41 1   
    15    9   42 1   
    16   10   11 ar  
    17   10   43 1   
    18   11   12 1   
    19   11   14 ar  
    20   12   13 1   
    21   13   44 1   
    22   13   45 1   
    23   13   46 1   
    24   14   15 1   
    25   16   17 1   
    26   16   18 1   
    27   17   47 1   
    28   17   48 1   
    29   17   49 1   
    30   18   19 ar  
    31   18   23 ar  
    32   19   20 ar  
    33   19   50 1   
    34   20   21 ar  
    35   20   24 1   
    36   21   22 ar  
    37   22   23 ar  
    38   22   51 1   
    39   24   25 1   
    40   24   52 1   
    41   25   26 ar  
    42   25   30 ar  
    43   26   27 ar  
    44   26   53 1   
    45   27   28 ar  
    46   27   54 1   
    47   28   29 ar  
    48   28   31 1   
    49   29   30 ar  
    50   29   55 1   
    51   30   56 1   
    52   31   32 1   
    53   31   38 1   
    54   32   33 1   
    55   32   57 1   
    56   32   58 1   
    57   33   34 1   
    58   33   59 1   
    59   33   60 1   
    60   34   35 1   
    61   34   37 1   
    62   35   36 1   
    63   35   61 1   
    64   35   62 1   
    65   36   63 1   
    66   36   64 1   
    67   36   65 1   
    68   37   38 1   
    69   37   66 1   
    70   37   67 1   
    71   38   68 1   
    72   38   69 1   
@<TRIPOS>SUBSTRUCTURE
     1 07J         1 TEMP              0 ****  ****    0 ROOT
