@<TRIPOS>MOLECULE
07K
   22    23     1     0     0
SMALL
bcc


@<TRIPOS>ATOM
      1 C10        -0.0060   -0.1340   -0.0420 ca        1 07K     -0.133000
      2 C01        -0.0340   -0.0230    2.3820 ca        1 07K     -0.175300
      3 C02         1.3960   -0.0010    2.4020 ca        1 07K      0.423600
      4 N03         2.1190    0.0550    3.5790 nb        1 07K     -0.695000
      5 C04         1.4450    0.0900    4.7150 ca        1 07K      0.448200
      6 C05         0.0300    0.0860    4.8180 ca        1 07K     -0.348300
      7 C06        -0.7330    0.0240    3.6500 ca        1 07K      0.201600
      8 N07        -2.1170   -0.0580    3.7150 nh        1 07K     -0.832200
      9 C08         2.1080   -0.0380    1.1490 ca        1 07K     -0.113600
     10 C09         1.4040   -0.1020   -0.0330 ca        1 07K     -0.124000
     11 C11        -0.7090   -0.0970    1.1380 ca        1 07K     -0.114000
     12 C12         3.5890   -0.0110    1.1420 c3        1 07K     -0.046800
     13 H1         -0.5330   -0.1920   -1.0050 ha        1 07K      0.133000
     14 H2          2.0540    0.1310    5.6380 h4        1 07K      0.018100
     15 H3         -0.4330    0.1240    5.8120 ha        1 07K      0.141000
     16 H4         -2.6200    0.2430    2.9130 hn        1 07K      0.405300
     17 H5         -2.5220    0.2090    4.5830 hn        1 07K      0.405300
     18 H6          1.9420   -0.1310   -0.9940 ha        1 07K      0.135000
     19 H7         -1.8070   -0.1390    1.0990 ha        1 07K      0.125000
     20 H8          3.9970   -0.8880    1.7050 hc        1 07K      0.049367
     21 H9          3.9880   -0.0440    0.0980 hc        1 07K      0.049367
     22 H10         3.9640    0.9200    1.6360 hc        1 07K      0.049367
@<TRIPOS>BOND
     1    1   10 ar  
     2    1   11 ar  
     3    1   13 1   
     4    2    3 ar  
     5    2    7 ar  
     6    2   11 ar  
     7    3    4 ar  
     8    3    9 ar  
     9    4    5 ar  
    10    5    6 ar  
    11    5   14 1   
    12    6    7 ar  
    13    6   15 1   
    14    7    8 1   
    15    8   16 1   
    16    8   17 1   
    17    9   10 ar  
    18    9   12 1   
    19   10   18 1   
    20   11   19 1   
    21   12   20 1   
    22   12   21 1   
    23   12   22 1   
@<TRIPOS>SUBSTRUCTURE
     1 07K         1 TEMP              0 ****  ****    0 ROOT
