@<TRIPOS>MOLECULE
07K
   22    17     1     0     0
SMALL
bcc


@<TRIPOS>ATOM
      1 C10        -0.7410    0.0120   -2.3140 c1        1 07K     -0.136750
      2 C01        -0.7320    0.0120    0.1090 c1        1 07K     -0.110000
      3 C02         0.6420    0.0120    0.1090 c1        1 07K      0.030000
      4 N03         1.3350    0.0120    1.3080 n1        1 07K     -0.169000
      5 C04         0.6530    0.0120    2.4910 c1        1 07K     -0.136750
      6 C05        -0.7380    0.0120    2.4940 c1        1 07K     -0.136750
      7 C06        -1.4240    0.0120    1.3110 c1        1 07K      0.120000
      8 N07        -2.8150   -0.0120    1.5930 n2        1 07K     -0.341000
      9 C08         1.3460    0.0120   -1.1110 c1        1 07K     -0.041000
     10 C09         0.6510    0.0120   -2.3140 c1        1 07K     -0.124000
     11 C11        -1.4360    0.0120   -1.1110 c1        1 07K     -0.136750
     12 C12         2.8510   -0.0300   -1.2620 c3        1 07K     -0.172000
     13 H1         -1.2290    0.0120   -3.1590 ha        1 07K      0.138500
     14 H2          1.1430    0.0120    3.3360 ha        1 07K      0.138500
     15 H3         -1.2250    0.0120    3.3400 ha        1 07K      0.138500
     16 H4         -3.3390   -0.6730    1.2450 hn        1 07K      0.200500
     17 H5         -3.1910    0.6540    2.0890 hn        1 07K      0.200500
     18 H6          1.1390    0.0120   -3.1590 ha        1 07K      0.135000
     19 H7         -2.4120    0.0120   -1.1110 ha        1 07K      0.138500
     20 H8          3.2670    0.3940   -0.4870 hc        1 07K      0.088667
     21 H9          3.1460   -0.9580   -1.3230 hc        1 07K      0.088667
     22 H10         3.1100    0.4480   -2.0720 hc        1 07K      0.088667
@<TRIPOS>BOND
     1    1   11 1   
     2    1   13 1   
     3    2    3 1   
     4    2    7 1   
     5    3    4 1   
     6    5    6 1   
     7    5   14 1   
     8    6   15 1   
     9    8   16 1   
    10    8   17 1   
    11    9   10 1   
    12    9   12 1   
    13   10   18 1   
    14   11   19 1   
    15   12   20 1   
    16   12   21 1   
    17   12   22 1   
@<TRIPOS>SUBSTRUCTURE
     1 07K         1 TEMP              0 ****  ****    0 ROOT
