@<TRIPOS>MOLECULE
07K
   22    23     1     0     0
SMALL
bcc


@<TRIPOS>ATOM
      1 C10        -0.0070   -0.1310   -0.0420 ca        1 07K     -0.133000
      2 C01        -0.0330   -0.0290    2.3830 ca        1 07K     -0.175300
      3 C02         1.3960    0.0030    2.4020 ca        1 07K      0.423600
      4 N03         2.1190    0.0600    3.5780 nb        1 07K     -0.695000
      5 C04         1.4460    0.0870    4.7140 ca        1 07K      0.448200
      6 C05         0.0310    0.0730    4.8190 ca        1 07K     -0.348300
      7 C06        -0.7320    0.0100    3.6510 ca        1 07K      0.201600
      8 N07        -2.1160   -0.0820    3.7170 nv        1 07K     -0.832200
      9 C08         2.1070   -0.0260    1.1480 ca        1 07K     -0.113600
     10 C09         1.4030   -0.0900   -0.0340 ca        1 07K     -0.124000
     11 C11        -0.7090   -0.1030    1.1380 ca        1 07K     -0.114000
     12 C12         3.5890    0.0110    1.1400 c3        1 07K     -0.046800
     13 H1         -0.5350   -0.1900   -1.0050 ha        1 07K      0.133000
     14 H2          2.0550    0.1290    5.6370 h4        1 07K      0.018100
     15 H3         -0.4310    0.1040    5.8130 ha        1 07K      0.141000
     16 H4         -2.5220    0.1790    4.5860 hn        1 07K      0.405300
     17 H5         -2.6210    0.2180    2.9170 hn        1 07K      0.405300
     18 H6          1.9400   -0.1120   -0.9950 ha        1 07K      0.135000
     19 H7         -1.8070   -0.1520    1.1000 ha        1 07K      0.125000
     20 H8          3.9570    0.9440    1.6370 hc        1 07K      0.049367
     21 H9          3.9860   -0.0150    0.0960 hc        1 07K      0.049367
     22 H10         4.0020   -0.8650    1.7000 hc        1 07K      0.049367
@<TRIPOS>BOND
     1    1   10 ar  
     2    1   11 ar  
     3    1   13 1   
     4    2    3 ar  
     5    2    7 ar  
     6    2   11 ar  
     7    3    4 ar  
     8    3    9 ar  
     9    4    5 ar  
    10    5    6 ar  
    11    5   14 1   
    12    6    7 ar  
    13    6   15 1   
    14    7    8 1   
    15    8   16 1   
    16    8   17 1   
    17    9   10 ar  
    18    9   12 1   
    19   10   18 1   
    20   11   19 1   
    21   12   20 1   
    22   12   21 1   
    23   12   22 1   
@<TRIPOS>SUBSTRUCTURE
     1 07K         1 TEMP              0 ****  ****    0 ROOT
