@<TRIPOS>MOLECULE
07K
   22    23     1     0     0
SMALL
bcc


@<TRIPOS>ATOM
      1 C10         1.4120   -2.1210   -0.0230 ca        1 07K     -0.133000
      2 C01        -0.4580   -0.5750    0.0240 ca        1 07K     -0.175300
      3 C02         0.4490    0.5300    0.0160 ca        1 07K      0.423600
      4 N03         0.0170    1.8420    0.0440 nb        1 07K     -0.695000
      5 C04        -1.2850    2.0610    0.0760 ca        1 07K      0.448200
      6 C05        -2.2780    1.0480    0.0730 ca        1 07K     -0.348300
      7 C06        -1.8780   -0.2900    0.0520 ca        1 07K      0.201600
      8 N07        -2.8180   -1.3090    0.1260 nh        1 07K     -0.832200
      9 C08         1.8650    0.2640   -0.0210 ca        1 07K     -0.113600
     10 C09         2.3150   -1.0370   -0.0420 ca        1 07K     -0.124000
     11 C11         0.0580   -1.8960    0.0100 ca        1 07K     -0.114000
     12 C12         2.8270    1.3920   -0.0350 c3        1 07K     -0.046800
     13 H1          1.8080   -3.1470   -0.0330 ha        1 07K      0.133000
     14 H2         -1.5980    3.1230    0.1010 h4        1 07K      0.018100
     15 H3         -3.3360    1.3360    0.0970 ha        1 07K      0.141000
     16 H4         -2.5450   -2.1940   -0.2320 hn        1 07K      0.405300
     17 H5         -3.7530   -1.0460   -0.0880 hn        1 07K      0.405300
     18 H6          3.3960   -1.2470   -0.0700 ha        1 07K      0.135000
     19 H7         -0.6200   -2.7610    0.0390 ha        1 07K      0.125000
     20 H8          2.6990    2.0220    0.8810 hc        1 07K      0.049367
     21 H9          3.8810    1.0220   -0.0670 hc        1 07K      0.049367
     22 H10         2.6510    2.0420   -0.9290 hc        1 07K      0.049367
@<TRIPOS>BOND
     1    1   10 ar  
     2    1   11 ar  
     3    1   13 1   
     4    2    3 ar  
     5    2    7 ar  
     6    2   11 ar  
     7    3    4 ar  
     8    3    9 ar  
     9    4    5 ar  
    10    5    6 ar  
    11    5   14 1   
    12    6    7 ar  
    13    6   15 1   
    14    7    8 1   
    15    8   16 1   
    16    8   17 1   
    17    9   10 ar  
    18    9   12 1   
    19   10   18 1   
    20   11   19 1   
    21   12   20 1   
    22   12   21 1   
    23   12   22 1   
@<TRIPOS>SUBSTRUCTURE
     1 07K         1 TEMP              0 ****  ****    0 ROOT
