@<TRIPOS>MOLECULE
07K
   23    24     1     0     0
SMALL
bcc


@<TRIPOS>ATOM
      1 C10        -0.0160    0.0170   -0.0240 ca        1 07K     -0.046000
      2 C01        -0.0250    0.0080    2.3960 ca        1 07K     -0.122300
      3 C02         1.4120    0.0020    2.4090 ca        1 07K      0.400600
      4 N03         2.1310   -0.0050    3.5850 nb        1 07K     -0.583000
      5 C04         1.4810   -0.0060    4.7320 ca        1 07K      0.413200
      6 C05         0.0560   -0.0010    4.8470 ca        1 07K     -0.184300
      7 C06        -0.6760    0.0060    3.6740 ca        1 07K     -0.033400
      8 N07        -2.1400    0.0120    3.7220 n4        1 07K     -0.706000
      9 C08         2.1150    0.0040    1.1500 ca        1 07K     -0.058600
     10 C09         1.3940    0.0110   -0.0260 ca        1 07K     -0.123000
     11 C11        -0.7160    0.0160    1.1620 ca        1 07K     -0.186000
     12 C12         3.5960   -0.0020    1.1300 c3        1 07K     -0.069800
     13 H1         -0.5530    0.0230   -0.9870 ha        1 07K      0.163000
     14 H2          2.0990   -0.0120    5.6540 h4        1 07K      0.064100
     15 H3         -0.3960   -0.0030    5.8500 ha        1 07K      0.169000
     16 H4         -2.4910    0.8520    3.2450 hn        1 07K      0.466467
     17 H5         -2.4980   -0.8210    3.2390 hn        1 07K      0.466467
     18 H6          1.9230    0.0130   -0.9950 ha        1 07K      0.169000
     19 H7         -1.8140    0.0200    1.1250 ha        1 07K      0.118000
     20 H8          3.9850    0.0000    0.0810 hc        1 07K      0.072367
     21 H9          3.9970    0.9000    1.6580 hc        1 07K      0.072367
     22 H10         3.9900   -0.9110    1.6520 hc        1 07K      0.072367
     23 H073       -2.4660    0.0100    4.6950 hn        1 07K      0.466467
@<TRIPOS>BOND
     1    1   10 ar  
     2    1   11 ar  
     3    1   13 1   
     4    2    3 ar  
     5    2    7 ar  
     6    2   11 ar  
     7    3    4 ar  
     8    3    9 ar  
     9    4    5 ar  
    10    5    6 ar  
    11    5   14 1   
    12    6    7 ar  
    13    6   15 1   
    14    7    8 1   
    15    8   16 1   
    16    8   17 1   
    17    8   23 1   
    18    9   10 ar  
    19    9   12 1   
    20   10   18 1   
    21   11   19 1   
    22   12   20 1   
    23   12   21 1   
    24   12   22 1   
@<TRIPOS>SUBSTRUCTURE
     1 07K         1 TEMP              0 ****  ****    0 ROOT
