@<TRIPOS>MOLECULE
07L
   18    19     1     0     0
SMALL
bcc


@<TRIPOS>ATOM
      1 O11        -0.0170   -0.0260   -0.2260 o         1 07L     -0.562500
      2 C9          1.1940   -0.0100   -0.0150 c         1 07L      0.720800
      3 C8          1.9150    0.0640    1.2460 cc        1 07L     -0.263200
      4 C7          3.2640    0.0700    1.2700 cd        1 07L     -0.000200
      5 C2          4.0020    0.0020    0.0350 ca        1 07L     -0.194800
      6 O10         1.9050   -0.0760   -1.2190 os        1 07L     -0.326200
      7 C3          3.2800   -0.0690   -1.1750 ca        1 07L      0.195100
      8 C4          3.9340   -0.1370   -2.4170 ca        1 07L     -0.246000
      9 C5          5.3300   -0.1330   -2.4240 ca        1 07L      0.177100
     10 O12         6.0600   -0.1970   -3.5830 oh        1 07L     -0.488100
     11 C6          6.0750   -0.0630   -1.2240 ca        1 07L     -0.184000
     12 C1          5.4080    0.0040   -0.0160 ca        1 07L     -0.039000
     13 H1          1.2930    0.1130    2.1510 ha        1 07L      0.170000
     14 H2          3.8300    0.1250    2.2130 ha        1 07L      0.147000
     15 H3          3.3460   -0.1920   -3.3430 ha        1 07L      0.163000
     16 H4          5.4430   -0.2410   -4.3300 ho        1 07L      0.429000
     17 H5          7.1730   -0.0620   -1.2760 ha        1 07L      0.159000
     18 H6          5.9770    0.0590    0.9250 ha        1 07L      0.143000
@<TRIPOS>BOND
     1    1    2 2   
     2    2    3 1   
     3    2    6 1   
     4    3    4 2   
     5    3   13 1   
     6    4    5 1   
     7    4   14 1   
     8    5    7 ar  
     9    5   12 ar  
    10    6    7 1   
    11    7    8 ar  
    12    8    9 ar  
    13    8   15 1   
    14    9   10 1   
    15    9   11 ar  
    16   10   16 1   
    17   11   12 ar  
    18   11   17 1   
    19   12   18 1   
@<TRIPOS>SUBSTRUCTURE
     1 07L         1 TEMP              0 ****  ****    0 ROOT
