@<TRIPOS>MOLECULE
07L
   18    15     1     0     0
SMALL
bcc


@<TRIPOS>ATOM
      1 O11        -4.0070   -0.0490    0.7530 o         1 07L     -0.287000
      2 C9         -2.7920   -0.0490    0.7530 c1        1 07L      0.336000
      3 C8         -2.0540   -0.0490    2.0310 c1        1 07L     -0.128000
      4 C7         -0.6080   -0.0490    2.0230 c1        1 07L     -0.128000
      5 C2          0.1310   -0.0490    0.7120 c1        1 07L     -0.183000
      6 O10        -2.0730   -0.0490   -0.4880 os        1 07L     -0.191000
      7 C3         -0.5860   -0.0490   -0.4970 c2        1 07L      0.150000
      8 C4          0.1000   -0.0490   -1.7150 c1        1 07L     -0.246000
      9 C5          1.4950   -0.0490   -1.7310 c1        1 07L      0.132000
     10 O12         2.1850   -0.0630   -2.9570 oh        1 07L     -0.242000
     11 C6          2.2110   -0.0490   -0.5230 c1        1 07L     -0.184000
     12 C1          1.5290   -0.0490    0.6960 c1        1 07L     -0.039000
     13 H1         -2.5380    0.0430    2.8740 ha        1 07L      0.158500
     14 H2         -0.1130   -0.0490    2.8650 ha        1 07L      0.158500
     15 H3         -0.3970   -0.0620   -2.5550 ha        1 07L      0.163000
     16 H4          2.3000    0.7700   -3.2410 ho        1 07L      0.228000
     17 H5          3.1880   -0.0490   -0.5350 ha        1 07L      0.159000
     18 H6          2.0280   -0.0490    1.5360 ha        1 07L      0.143000
@<TRIPOS>BOND
     1    1    2 1   
     2    2    6 1   
     3    3    4 1   
     4    3   13 1   
     5    4   14 1   
     6    5    7 1   
     7    5   12 1   
     8    6    7 1   
     9    7    8 1   
    10    8   15 1   
    11    9   10 1   
    12    9   11 1   
    13   10   16 1   
    14   11   17 1   
    15   12   18 1   
@<TRIPOS>SUBSTRUCTURE
     1 07L         1 TEMP              0 ****  ****    0 ROOT
