@<TRIPOS>MOLECULE
07L
   18    19     1     0     0
SMALL
bcc


@<TRIPOS>ATOM
      1 O11        -0.0150   -0.0720   -0.2120 o         1 07L     -0.562500
      2 C9          1.1960   -0.0400   -0.0060 c         1 07L      0.720800
      3 C8          1.9210    0.0480    1.2520 cc        1 07L     -0.263200
      4 C7          3.2700    0.0710    1.2710 cd        1 07L     -0.000200
      5 C2          4.0040    0.0070    0.0340 ca        1 07L     -0.194800
      6 O10         1.9040   -0.1020   -1.2120 os        1 07L     -0.326200
      7 C3          3.2790   -0.0780   -1.1730 ca        1 07L      0.195100
      8 C4          3.9290   -0.1440   -2.4170 ca        1 07L     -0.246000
      9 C5          5.3250   -0.1220   -2.4290 ca        1 07L      0.177100
     10 O12         6.0510   -0.1810   -3.5900 oh        1 07L     -0.488100
     11 C6          6.0740   -0.0370   -1.2320 ca        1 07L     -0.184000
     12 C1          5.4100    0.0260   -0.0220 ca        1 07L     -0.039000
     13 H1          1.3010    0.0940    2.1600 ha        1 07L      0.170000
     14 H2          3.8380    0.1380    2.2120 ha        1 07L      0.147000
     15 H3          3.3390   -0.2090   -3.3410 ha        1 07L      0.163000
     16 H4          5.4330   -0.2370   -4.3350 ho        1 07L      0.429000
     17 H5          7.1710   -0.0230   -1.2880 ha        1 07L      0.159000
     18 H6          5.9810    0.0930    0.9170 ha        1 07L      0.143000
@<TRIPOS>BOND
     1    1    2 2   
     2    2    3 1   
     3    2    6 1   
     4    3    4 2   
     5    3   13 1   
     6    4    5 1   
     7    4   14 1   
     8    5    7 ar  
     9    5   12 ar  
    10    6    7 1   
    11    7    8 ar  
    12    8    9 ar  
    13    8   15 1   
    14    9   10 1   
    15    9   11 ar  
    16   10   16 1   
    17   11   12 ar  
    18   11   17 1   
    19   12   18 1   
@<TRIPOS>SUBSTRUCTURE
     1 07L         1 TEMP              0 ****  ****    0 ROOT
