@<TRIPOS>MOLECULE
07L
   18    19     1     0     0
SMALL
bcc


@<TRIPOS>ATOM
      1 O11        -3.2780    1.3310    0.0540 o         1 07L     -0.562500
      2 C9         -2.3720    0.5010    0.0320 c         1 07L      0.720800
      3 C8         -2.4450   -0.9510   -0.0380 cc        1 07L     -0.263200
      4 C7         -1.3210   -1.6980   -0.0520 cd        1 07L     -0.000200
      5 C2         -0.0340   -1.0550    0.0030 ca        1 07L     -0.194800
      6 O10        -1.1230    1.1310    0.0870 os        1 07L     -0.326200
      7 C3          0.0110    0.3530    0.0710 ca        1 07L      0.195100
      8 C4          1.2320    1.0460    0.1280 ca        1 07L     -0.246000
      9 C5          2.4110    0.3000    0.1150 ca        1 07L      0.177100
     10 O12         3.6510    0.8820    0.1670 oh        1 07L     -0.488100
     11 C6          2.3920   -1.1130    0.0480 ca        1 07L     -0.184000
     12 C1          1.1770   -1.7710   -0.0070 ca        1 07L     -0.039000
     13 H1         -3.4570   -1.3770   -0.0790 ha        1 07L      0.170000
     14 H2         -1.3540   -2.7970   -0.1060 ha        1 07L      0.147000
     15 H3          1.2370    2.1440    0.1810 ha        1 07L      0.163000
     16 H4          3.5350    1.8440    0.2110 ho        1 07L      0.429000
     17 H5          3.3450   -1.6610    0.0400 ha        1 07L      0.159000
     18 H6          1.1490   -2.8710   -0.0610 ha        1 07L      0.143000
@<TRIPOS>BOND
     1    1    2 2   
     2    2    3 1   
     3    2    6 1   
     4    3    4 2   
     5    3   13 1   
     6    4    5 1   
     7    4   14 1   
     8    5    7 ar  
     9    5   12 ar  
    10    6    7 1   
    11    7    8 ar  
    12    8    9 ar  
    13    8   15 1   
    14    9   10 1   
    15    9   11 ar  
    16   10   16 1   
    17   11   12 ar  
    18   11   17 1   
    19   12   18 1   
@<TRIPOS>SUBSTRUCTURE
     1 07L         1 TEMP              0 ****  ****    0 ROOT
