@<TRIPOS>MOLECULE
07M
   35    31     1     0     0
SMALL
bcc


@<TRIPOS>ATOM
      1 C1          2.6050   -1.3940    1.9870 c1        1 07M     -0.090000
      2 C2          2.0100   -1.0030    0.5940 c3        1 07M     -0.256000
      3 C3         -4.4220    0.9010   -1.0530 c3        1 07M     -0.024000
      4 O4         -4.0110   -0.2540   -0.4600 os        1 07M     -0.258000
      5 C5         -2.7220   -0.3120    0.0180 c3        1 07M      0.018000
      6 C6         -3.5890    1.4210   -2.1160 c3        1 07M     -0.173000
      7 C7         -2.0620    1.1850   -1.9730 c2        1 07M      0.064000
      8 C8         -1.6170    0.4000   -0.8640 c2        1 07M     -0.194000
      9 C9         -0.2290    0.2640   -0.6060 c1        1 07M     -0.106000
     10 N10         0.6590    0.8660   -1.3950 n1        1 07M     -0.247000
     11 C11         0.2230    1.6440   -2.4920 c1        1 07M      0.192000
     12 C12        -1.1820    1.7840   -2.7570 c2        1 07M     -0.098000
     13 C13        -1.6840    2.5700   -4.0460 c1        1 07M     -0.076000
     14 N14        -2.0410    3.1260   -4.9580 n1        1 07M     -0.033000
     15 O15         1.2460    2.2230   -3.4560 oh        1 07M     -0.226000
     16 S16         0.3110   -0.6350    0.7720 s         1 07M      0.287000
     17 C17         4.0020   -1.4640    2.1650 c1        1 07M     -0.009000
     18 N18         4.5300   -1.8830    3.3960 n1        1 07M     -0.054000
     19 C19         3.6820   -2.2280    4.4360 c1        1 07M     -0.110500
     20 C20         2.2680   -2.1580    4.2600 c1        1 07M     -0.110500
     21 C21         1.7400   -1.7460    3.0500 c1        1 07M     -0.083000
     22 C22         4.9470   -1.2260    0.9580 c1        1 07M     -0.009000
     23 N23         5.5690   -1.0680    0.1590 n1        1 07M     -0.054000
     24 H1          2.4920   -0.1970    0.2410 h1        1 07M      0.136000
     25 H2          2.1190   -1.7590   -0.0410 h1        1 07M      0.136000
     26 H3         -5.3420    0.7390   -1.4360 h1        1 07M      0.097000
     27 H4         -4.4990    1.6200   -0.3300 h1        1 07M      0.097000
     28 H5         -2.7130    0.1340    0.9380 h1        1 07M      0.108000
     29 H6         -2.4710   -1.2820    0.0880 h1        1 07M      0.108000
     30 H7         -3.7250    2.3440   -2.1540 hc        1 07M      0.120500
     31 H8         -3.8710    1.0030   -2.9360 hc        1 07M      0.120500
     32 H10         4.0650   -2.5280    5.3180 ha        1 07M      0.164000
     33 H11         1.6330   -2.4180    5.0440 ha        1 07M      0.164000
     34 H12         0.6960   -1.6930    2.9200 ha        1 07M      0.153000
     35 H9          1.3790    3.0210   -3.2730 ho        1 07M      0.246000
@<TRIPOS>BOND
     1    1    2 1   
     2    1   21 1   
     3    2   16 1   
     4    2   24 1   
     5    2   25 1   
     6    3    4 1   
     7    3    6 1   
     8    3   26 1   
     9    3   27 1   
    10    4    5 1   
    11    5    8 1   
    12    5   28 1   
    13    5   29 1   
    14    6    7 1   
    15    6   30 1   
    16    6   31 1   
    17    7    8 1   
    18    7   12 1   
    19    8    9 1   
    20    9   10 1   
    21   11   12 1   
    22   11   15 1   
    23   12   13 1   
    24   13   14 1   
    25   15   35 1   
    26   17   18 1   
    27   19   20 1   
    28   19   32 1   
    29   20   33 1   
    30   21   34 1   
    31   22   23 1   
@<TRIPOS>SUBSTRUCTURE
     1 07M         1 TEMP              0 ****  ****    0 ROOT
