@<TRIPOS>MOLECULE
07M
   35    39     1     0     0
SMALL
bcc


@<TRIPOS>ATOM
      1 C1          0.0000    0.0000    0.0000 c2        1 07M     -0.089000
      2 C2         -0.7640   -0.0000   -1.2990 c3        1 07M     -0.203000
      3 C3         -3.5600    4.7110   -5.3000 c3        1 07M      0.072000
      4 O4         -2.2900    4.8420   -4.6500 os        1 07M     -0.209000
      5 C5         -2.1010    3.9020   -3.5920 c3        1 07M     -0.100000
      6 C6         -3.5620    3.4070   -6.1010 DU        1 07M     -0.245000
      7 C7         -3.0670    2.2790   -5.2380 c2        1 07M      0.205000
      8 C8         -2.3870    2.5060   -4.0780 c3        1 07M     -0.072000
      9 C9         -1.9460    1.4170   -3.3200 c2        1 07M     -0.095000
     10 N10        -2.1800    0.1720   -3.7070 n2        1 07M     -0.129000
     11 C11        -2.8370   -0.0940   -4.8220 c2        1 07M      0.198000
     12 C12        -3.3060    0.9520   -5.6320 c2        1 07M     -0.132000
     13 C13        -4.2230    0.8530   -6.4900 c1        1 07M     -0.074000
     14 N14        -4.8500    0.7550   -7.5480 n1        1 07M     -0.089000
     15 O15        -3.0590   -1.3800   -5.1850 oh        1 07M     -0.239000
     16 S16        -1.0640    1.7070   -1.8220 ss        1 07M      0.200000
     17 C17         1.3950    0.0000    0.0000 c2        1 07M      0.090000
     18 N18         2.0690    0.0000    1.1440 n2        1 07M     -0.037000
     19 C19         1.4540   -0.0010    2.3060 c2        1 07M     -0.049000
     20 C20         0.0710   -0.0020    2.3810 c2        1 07M     -0.122000
     21 C21        -0.6730    0.0040    1.2100 c2        1 07M     -0.079000
     22 C22         2.1060    0.0010   -1.2430 c1        1 07M     -0.094000
     23 N23         2.6750   -0.0170   -2.2260 n1        1 07M     -0.035000
     24 H1         -1.0740   -1.0080   -1.5480 h1        1 07M      0.110000
     25 H2         -1.7950    0.0090   -0.9650 h1        1 07M      0.110000
     26 H3         -3.5650    5.5020   -6.0400 h1        1 07M      0.180000
     27 H4         -3.9390    3.6960   -5.2740 DU        1 07M      0.124000
     28 H5         -1.0530    3.9130   -3.3170 h1        1 07M      0.085000
     29 H6         -2.2280    3.0890   -4.2960 DU        1 07M      0.129000
     30 H7         -4.3220    3.2310   -6.8530 ha        1 07M     -0.006000
     31 H8         -3.2740    2.6380   -5.3950 ha        1 07M     -0.006000
     32 H10         2.1920   -0.0100    3.0990 h4        1 07M      0.129000
     33 H11        -0.5900    0.0530    3.2370 ha        1 07M      0.122000
     34 H12        -1.6710   -0.4170    1.2280 ha        1 07M      0.121000
     35 H9         -2.2670   -1.7940   -5.4870 ho        1 07M      0.225000
@<TRIPOS>BOND
     1    1    2 1   
     2    1   17 1   
     3    1   21 1   
     4    2   16 1   
     5    2   24 1   
     6    2   25 1   
     7    3    4 1   
     8    3    6 1   
     9    3   26 1   
    10    3   27 1   
    11    4    5 1   
    12    5    8 1   
    13    5   28 1   
    14    5   29 1   
    15    6    7 1   
    16    6   27 1   
    17    6   30 1   
    18    6   31 1   
    19    7    8 1   
    20    7   12 1   
    21    8    9 1   
    22    8   29 1   
    23    9   10 1   
    24    9   16 1   
    25   10   11 1   
    26   11   12 1   
    27   11   15 1   
    28   12   13 1   
    29   13   14 1   
    30   15   35 1   
    31   17   18 1   
    32   17   22 1   
    33   18   19 1   
    34   19   20 1   
    35   19   32 1   
    36   20   21 1   
    37   20   33 1   
    38   21   34 1   
    39   22   23 1   
@<TRIPOS>SUBSTRUCTURE
     1 07M         1 TEMP              0 ****  ****    0 ROOT
