@<TRIPOS>MOLECULE
07M
   35    37     1     0     0
SMALL
bcc


@<TRIPOS>ATOM
      1 C1          0.0110    0.0420   -0.0890 ca        1 07M     -0.162600
      2 C2         -0.7190   -0.1500   -1.3580 c3        1 07M      0.012000
      3 C3         -3.4160    4.7670   -5.1660 c3        1 07M      0.126400
      4 O4         -2.1980    4.8310   -4.4350 os        1 07M     -0.401600
      5 C5         -2.0390    3.7580   -3.5160 c3        1 07M      0.175700
      6 C6         -3.4720    3.5280   -6.0450 c3        1 07M     -0.087100
      7 C7         -3.0710    2.3060   -5.2980 ca        1 07M      0.056700
      8 C8         -2.3650    2.4230   -4.0930 ca        1 07M     -0.266600
      9 C9         -1.9720    1.2440   -3.4110 ca        1 07M      0.549600
     10 N10        -2.2470    0.0030   -3.8710 nb        1 07M     -0.773000
     11 C11        -2.9300   -0.0950   -5.0390 ca        1 07M      0.690600
     12 C12        -3.3720    1.0270   -5.7970 ca        1 07M     -0.167300
     13 C13        -4.0870    0.8490   -7.0040 cg        1 07M      0.253800
     14 N14        -4.6760    0.6940   -7.9960 n1        1 07M     -0.358800
     15 O15        -3.2300   -1.3340   -5.5420 oh        1 07M     -0.597300
     16 S16        -1.1210    1.4750   -1.9570 ss        1 07M     -0.222400
     17 C17         1.4260   -0.0030   -0.0200 ca        1 07M      0.508300
     18 N18         2.1200    0.1590    1.1390 nb        1 07M     -0.629000
     19 C19         1.4120    0.3670    2.2590 ca        1 07M      0.405200
     20 C20         0.0040    0.4220    2.2960 ca        1 07M     -0.226300
     21 C21        -0.6960    0.2550    1.1070 ca        1 07M     -0.083000
     22 C22         2.1850   -0.2320   -1.2160 cg        1 07M      0.127800
     23 N23         2.8070   -0.4180   -2.1790 n1        1 07M     -0.330800
     24 H1         -0.1040   -0.7040   -2.1130 h1        1 07M      0.096700
     25 H2         -1.6540   -0.7430   -1.1920 h1        1 07M      0.096700
     26 H3         -3.4080    5.7000   -5.7900 h1        1 07M      0.057700
     27 H4         -4.2870    4.7900   -4.4580 h1        1 07M      0.057700
     28 H5         -0.9540    3.8140   -3.2170 h1        1 07M      0.068700
     29 H6         -2.6900    3.9470   -2.6160 h1        1 07M      0.068700
     30 H7         -4.5090    3.4100   -6.4580 hc        1 07M      0.081200
     31 H8         -2.7710    3.6520   -6.9160 hc        1 07M      0.081200
     32 H10         2.0110    0.4950    3.1810 h4        1 07M      0.036100
     33 H11        -0.5200    0.5930    3.2470 ha        1 07M      0.155000
     34 H12        -1.7960    0.2910    1.0920 ha        1 07M      0.153000
     35 H9         -2.8660   -2.0230   -4.9590 ho        1 07M      0.447000
@<TRIPOS>BOND
     1    1    2 1   
     2    1   17 ar  
     3    1   21 ar  
     4    2   16 1   
     5    2   24 1   
     6    2   25 1   
     7    3    4 1   
     8    3    6 1   
     9    3   26 1   
    10    3   27 1   
    11    4    5 1   
    12    5    8 1   
    13    5   28 1   
    14    5   29 1   
    15    6    7 1   
    16    6   30 1   
    17    6   31 1   
    18    7    8 ar  
    19    7   12 ar  
    20    8    9 ar  
    21    9   10 ar  
    22    9   16 1   
    23   10   11 ar  
    24   11   12 ar  
    25   11   15 1   
    26   12   13 1   
    27   13   14 3   
    28   15   35 1   
    29   17   18 ar  
    30   17   22 1   
    31   18   19 ar  
    32   19   20 ar  
    33   19   32 1   
    34   20   21 ar  
    35   20   33 1   
    36   21   34 1   
    37   22   23 3   
@<TRIPOS>SUBSTRUCTURE
     1 07M         1 TEMP              0 ****  ****    0 ROOT
