@<TRIPOS>MOLECULE
07M
   35    37     1     0     0
SMALL
bcc


@<TRIPOS>ATOM
      1 C1          3.2620   -0.3480    0.4630 ca        1 07M     -0.162600
      2 C2          1.8920   -0.8950    0.3990 c3        1 07M      0.012000
      3 C3         -3.8280    2.7390    0.2420 c3        1 07M      0.126400
      4 O4         -2.5960    3.0680   -0.3860 os        1 07M     -0.401600
      5 C5         -1.5100    2.2640    0.0560 c3        1 07M      0.175700
      6 C6         -4.2640    1.3220   -0.0990 c3        1 07M     -0.087100
      7 C7         -3.1490    0.3510    0.0570 ca        1 07M      0.056700
      8 C8         -1.8260    0.8090    0.1110 ca        1 07M     -0.266600
      9 C9         -0.7770   -0.1370    0.2350 ca        1 07M      0.549600
     10 N10        -0.9950   -1.4690    0.3040 nb        1 07M     -0.773000
     11 C11        -2.2810   -1.8980    0.2490 ca        1 07M      0.690600
     12 C12        -3.4030   -1.0290    0.1290 ca        1 07M     -0.167300
     13 C13        -4.7180   -1.5480    0.0850 cg        1 07M      0.253800
     14 N14        -5.7970   -1.9810    0.0510 n1        1 07M     -0.358800
     15 O15        -2.5470   -3.2410    0.3160 oh        1 07M     -0.597300
     16 S16         0.7970    0.5020    0.2960 ss        1 07M     -0.222400
     17 C17         4.0950   -0.2680   -0.6810 ca        1 07M      0.508300
     18 N18         5.3650    0.2200   -0.6430 nb        1 07M     -0.629000
     19 C19         5.8320    0.6400    0.5420 ca        1 07M      0.405200
     20 C20         5.0840    0.5970    1.7370 ca        1 07M     -0.226300
     21 C21         3.7890    0.0950    1.6890 ca        1 07M     -0.083000
     22 C22         3.6010   -0.7230   -1.9480 cg        1 07M      0.127800
     23 N23         3.2080   -1.0890   -2.9790 n1        1 07M     -0.330800
     24 H1          1.7530   -1.5670   -0.4850 h1        1 07M      0.096700
     25 H2          1.6630   -1.4980    1.3140 h1        1 07M      0.096700
     26 H3         -3.7370    2.8660    1.3530 h1        1 07M      0.057700
     27 H4         -4.5530    3.4900   -0.1700 h1        1 07M      0.057700
     28 H5         -0.6940    2.4720   -0.6940 h1        1 07M      0.068700
     29 H6         -1.1840    2.6160    1.0760 h1        1 07M      0.068700
     30 H7         -5.1300    1.0310    0.5520 hc        1 07M      0.081200
     31 H8         -4.6160    1.2850   -1.1670 hc        1 07M      0.081200
     32 H10         6.8660    1.0310    0.5320 h4        1 07M      0.036100
     33 H11         5.5230    0.9530    2.6790 ha        1 07M      0.155000
     34 H12         3.1720    0.0430    2.5990 ha        1 07M      0.153000
     35 H9         -1.7130   -3.7390    0.3760 ho        1 07M      0.447000
@<TRIPOS>BOND
     1    1    2 1   
     2    1   17 ar  
     3    1   21 ar  
     4    2   16 1   
     5    2   24 1   
     6    2   25 1   
     7    3    4 1   
     8    3    6 1   
     9    3   26 1   
    10    3   27 1   
    11    4    5 1   
    12    5    8 1   
    13    5   28 1   
    14    5   29 1   
    15    6    7 1   
    16    6   30 1   
    17    6   31 1   
    18    7    8 ar  
    19    7   12 ar  
    20    8    9 ar  
    21    9   10 ar  
    22    9   16 1   
    23   10   11 ar  
    24   11   12 ar  
    25   11   15 1   
    26   12   13 1   
    27   13   14 3   
    28   15   35 1   
    29   17   18 ar  
    30   17   22 1   
    31   18   19 ar  
    32   19   20 ar  
    33   19   32 1   
    34   20   21 ar  
    35   20   33 1   
    36   21   34 1   
    37   22   23 3   
@<TRIPOS>SUBSTRUCTURE
     1 07M         1 TEMP              0 ****  ****    0 ROOT
