@<TRIPOS>MOLECULE
07N
   40    42     1     0     0
SMALL
bcc


@<TRIPOS>ATOM
      1 C1          6.4100    2.7870    0.4450 c3        1 07N     -0.038800
      2 CL1         4.9970   -2.3020   -0.0590 cl        1 07N     -0.019400
      3 C2          5.6510    1.5480    0.1990 cc        1 07N     -0.076600
      4 CL2         7.6080   -0.2990    0.7730 cl        1 07N     -0.048400
      5 C3          6.0880    0.2110    0.3100 cd        1 07N     -0.070600
      6 C4          4.9830   -0.6380   -0.0460 cd        1 07N      0.005400
      7 C5          3.9000    0.2060   -0.3590 cc        1 07N     -0.164900
      8 N6          4.3160    1.5280   -0.1930 na        1 07N     -0.150100
      9 C8          2.5340   -0.1690   -0.8070 c         1 07N      0.689700
     10 O9          2.3530   -1.0540   -1.6620 o         1 07N     -0.570100
     11 N10         1.4960    0.5740   -0.2660 n         1 07N     -0.555900
     12 C11         0.1080    0.2540   -0.5310 c3        1 07N      0.060700
     13 C13        -0.7070    1.5140   -0.8510 c3        1 07N     -0.084400
     14 C14        -2.1540    1.1370   -1.1580 c3        1 07N      0.162800
     15 N15        -2.7840    0.4340   -0.0390 nh        1 07N     -0.672300
     16 C16        -2.0510   -0.7760    0.3210 c3        1 07N      0.143800
     17 C17        -0.5670   -0.5050    0.6550 c3        1 07N      0.146600
     18 F19        -0.4180    0.1830    1.8490 f         1 07N     -0.243300
     19 C20        -4.1660    0.1740   -0.2800 cc        1 07N      0.444300
     20 N21        -4.6850   -0.6350   -1.2340 nd        1 07N     -0.679000
     21 C22        -6.0560   -0.6120   -1.1370 cd        1 07N      0.309200
     22 C23        -6.5830    0.2000   -0.1310 cc        1 07N     -0.213000
     23 S24        -5.3500    0.9420    0.7120 ss        1 07N     -0.006300
     24 C25        -8.0660    0.3650    0.1310 c         1 07N      0.938200
     25 O26        -8.4150    1.1420    1.0610 o         1 07N     -0.813800
     26 O27        -8.8560   -0.2880   -0.6030 o         1 07N     -0.813800
     27 H1          6.3980    3.4500   -0.4570 hc        1 07N      0.056700
     28 H1A         5.9750    3.3530    1.3070 hc        1 07N      0.056700
     29 H1B         7.4710    2.5320    0.6860 hc        1 07N      0.056700
     30 HN10        1.6570    1.0570    0.5890 hn        1 07N      0.310500
     31 H11         0.0680   -0.4410   -1.4240 h1        1 07N      0.099700
     32 H13        -0.6700    2.2210    0.0180 hc        1 07N      0.052200
     33 H13A       -0.2790    2.0340   -1.7460 hc        1 07N      0.052200
     34 H14        -2.7440    2.0790   -1.3380 h1        1 07N      0.050200
     35 H14A       -2.1780    0.5290   -2.1080 h1        1 07N      0.050200
     36 H16        -2.5460   -1.2100    1.2330 h1        1 07N      0.061200
     37 H16A       -2.0680   -1.5510   -0.4980 h1        1 07N      0.061200
     38 H17        -0.0610   -1.5080    0.7780 h1        1 07N      0.052700
     39 H22        -6.6680   -1.2060   -1.8260 h4        1 07N      0.052100
     40 HN6         3.7710    2.3240   -0.4060 hn        1 07N      0.309700
@<TRIPOS>BOND
     1    1    3 1   
     2    1   27 1   
     3    1   28 1   
     4    1   29 1   
     5    2    6 1   
     6    3    5 2   
     7    3    8 1   
     8    4    5 1   
     9    5    6 1   
    10    6    7 2   
    11    7    8 1   
    12    7    9 1   
    13    8   40 1   
    14    9   10 2   
    15    9   11 1   
    16   11   12 1   
    17   11   30 1   
    18   12   13 1   
    19   12   17 1   
    20   12   31 1   
    21   13   14 1   
    22   13   32 1   
    23   13   33 1   
    24   14   15 1   
    25   14   34 1   
    26   14   35 1   
    27   15   16 1   
    28   15   19 1   
    29   16   17 1   
    30   16   36 1   
    31   16   37 1   
    32   17   18 1   
    33   17   38 1   
    34   19   20 2   
    35   19   23 1   
    36   20   21 1   
    37   21   22 2   
    38   21   39 1   
    39   22   23 1   
    40   22   24 1   
    41   24   25 1   
    42   24   26 1   
@<TRIPOS>SUBSTRUCTURE
     1 07N         1 TEMP              0 ****  ****    0 ROOT
