@<TRIPOS>MOLECULE
07N
   41    43     1     0     0
SMALL
bcc


@<TRIPOS>ATOM
      1 C1          1.3980   -2.2690   -1.0350 c3        1 07N     -0.068800
      2 CL1         4.0140    1.4020    1.7260 cl        1 07N      0.042600
      3 C2          2.2840   -1.1460   -0.6770 cc        1 07N      0.034400
      4 CL2         1.7650   -1.1120    2.0240 cl        1 07N      0.012600
      5 C3          2.4950   -0.6010    0.6220 cd        1 07N     -0.099600
      6 C4          3.4450    0.4540    0.4960 cd        1 07N      0.095400
      7 C5          3.7890    0.5440   -0.8900 cc        1 07N     -0.282900
      8 N6          3.0440   -0.4330   -1.5810 na        1 07N     -0.157100
      9 C8          4.7090    1.4890   -1.4530 c         1 07N      0.593700
     10 O9          5.5380    2.1840   -0.8720 o         1 07N     -0.443100
     11 N10         4.6480    1.7340   -2.9510 n4        1 07N     -0.680800
     12 C11         5.7890    1.0870   -3.6980 c3        1 07N      0.090500
     13 C13         5.9020    1.6780   -5.1060 c3        1 07N     -0.107400
     14 C14         7.0430    0.9890   -5.8590 c3        1 07N      0.160800
     15 N15         6.8240   -0.4550   -5.9400 nh        1 07N     -0.660300
     16 C16         6.7700   -1.0560   -4.6120 c3        1 07N      0.146800
     17 C17         5.6330   -0.4610   -3.7490 c3        1 07N      0.148600
     18 F19         4.3730   -0.8170   -4.2080 f         1 07N     -0.241300
     19 C20         7.7910   -1.0990   -6.7690 cc        1 07N      0.370300
     20 N21         9.1290   -1.1530   -6.5270 nd        1 07N     -0.672000
     21 C22         9.7260   -1.8580   -7.5370 cd        1 07N      0.313200
     22 C23         8.8640   -2.3360   -8.5330 cc        1 07N     -0.206000
     23 S24         7.2980   -1.8970   -8.2040 ss        1 07N      0.053700
     24 C25         9.3220   -3.1460   -9.7390 c         1 07N      0.938200
     25 O26        10.5530   -3.3820   -9.8230 o         1 07N     -0.793800
     26 O27         8.4300   -3.5140  -10.5480 o         1 07N     -0.793800
     27 H1          1.6210   -2.6840   -2.0490 hc        1 07N      0.084367
     28 H1A         0.3320   -1.9240   -1.0150 hc        1 07N      0.084367
     29 H1B         1.5170   -3.0880   -0.2790 hc        1 07N      0.084367
     30 HN10        4.7160    2.7480   -3.1050 hn        1 07N      0.455800
     31 H11         6.7340    1.3150   -3.1170 hx        1 07N      0.128700
     32 H13         6.1250    2.7750   -5.0530 hc        1 07N      0.070200
     33 H13A        4.9410    1.5300   -5.6670 hc        1 07N      0.070200
     34 H14         8.0210    1.2540   -5.3630 h1        1 07N      0.074200
     35 H14A        7.0690    1.3890   -6.9110 h1        1 07N      0.074200
     36 H16         6.5690   -2.1570   -4.7430 h1        1 07N      0.083200
     37 H16A        7.7270   -0.9320   -4.0280 h1        1 07N      0.083200
     38 H17         5.7420   -0.8740   -2.7020 h1        1 07N      0.065700
     39 H22        10.8110   -2.0240   -7.5400 h4        1 07N      0.065100
     40 HN6         3.1840   -0.7040   -2.5280 hn        1 07N      0.326700
     41 H102        3.7650    1.4070   -3.3510 hn        1 07N      0.455800
@<TRIPOS>BOND
     1    1    3 1   
     2    1   27 1   
     3    1   28 1   
     4    1   29 1   
     5    2    6 1   
     6    3    5 2   
     7    3    8 1   
     8    4    5 1   
     9    5    6 1   
    10    6    7 2   
    11    7    8 1   
    12    7    9 1   
    13    8   40 1   
    14    9   10 2   
    15    9   11 1   
    16   11   12 1   
    17   11   30 1   
    18   11   41 1   
    19   12   13 1   
    20   12   17 1   
    21   12   31 1   
    22   13   14 1   
    23   13   32 1   
    24   13   33 1   
    25   14   15 1   
    26   14   34 1   
    27   14   35 1   
    28   15   16 1   
    29   15   19 1   
    30   16   17 1   
    31   16   36 1   
    32   16   37 1   
    33   17   18 1   
    34   17   38 1   
    35   19   20 2   
    36   19   23 1   
    37   20   21 1   
    38   21   22 2   
    39   21   39 1   
    40   22   23 1   
    41   22   24 1   
    42   24   25 1   
    43   24   26 1   
@<TRIPOS>SUBSTRUCTURE
     1 07N         1 TEMP              0 ****  ****    0 ROOT
