@<TRIPOS>MOLECULE
07N
   40    38     1     0     0
SMALL
bcc


@<TRIPOS>ATOM
      1 C1         -5.4980   -0.2700    4.2610 c3        1 07N     -0.041900
      2 CL1        -5.1340   -2.8590   -0.3600 cl        1 07N     -0.025400
      3 C2         -4.9580   -0.7720    2.9410 ce        1 07N      0.091400
      4 CL2        -7.1450   -2.3930    2.3530 cl        1 07N     -0.054400
      5 C3         -5.5930   -1.6450    2.0860 cf        1 07N     -0.064600
      6 C4         -4.7730   -1.8660    1.0260 cf        1 07N     -0.051700
      7 C5         -3.6250   -1.1300    1.2180 c1        1 07N      0.163500
      8 N6         -3.7460   -0.4590    2.3990 ne        1 07N     -0.510000
      9 C8         -2.4220   -1.1060    0.3020 c1        1 07N      0.596500
     10 O9         -2.3900   -1.8240   -0.6770 o         1 07N     -0.564500
     11 N10        -1.3020   -0.2980    0.6240 n3        1 07N     -0.395400
     12 C11        -0.1050   -0.3300   -0.2260 c3        1 07N      0.004000
     13 C13         1.0900   -0.5210    0.6360 c3        1 07N     -0.084400
     14 C14         2.3880   -0.3800   -0.1380 c3        1 07N      0.162800
     15 N15         2.4470    0.8680   -0.9170 nh        1 07N     -0.631600
     16 C16         1.2670    1.0640   -1.7740 c3        1 07N      0.143800
     17 C17        -0.0390    0.9280   -1.0060 c3        1 07N      0.146600
     18 F19        -0.1590    1.9890   -0.1480 f         1 07N     -0.243300
     19 C20         3.6180    0.8710   -1.7170 c2        1 07N      0.338100
     20 N21         3.8360    0.0840   -2.8890 ne        1 07N     -0.492700
     21 C22         5.2450    0.4470   -3.4750 cg        1 07N     -0.104000
     22 C23         5.8420    1.4540   -2.6310 c1        1 07N     -0.171900
     23 S24         4.8600    1.7610   -1.5050 ss        1 07N      0.128700
     24 C25         7.1590    2.1550   -2.8780 c1        1 07N      0.854000
     25 O26         7.1900    3.2160   -3.5550 o         1 07N     -0.782000
     26 O27         8.2260    1.6720   -2.4150 o         1 07N     -0.782000
     27 H1         -6.2580    0.3260    4.0970 hc        1 07N      0.056700
     28 H1A        -4.7950    0.2210    4.7360 hc        1 07N      0.056700
     29 H1B        -5.7900   -1.0300    4.8050 hc        1 07N      0.056700
     30 HN10       -1.3310    0.2510    1.3520 hn        1 07N      0.273700
     31 H11        -0.1740   -1.0830   -0.8430 h1        1 07N      0.099700
     32 H13         1.0740    0.1450    1.3510 hc        1 07N      0.052200
     33 H13A        1.0540   -1.4140    1.0330 hc        1 07N      0.052200
     34 H14         3.1350   -0.3940    0.4930 h1        1 07N      0.050200
     35 H14A        2.4760   -1.1390   -0.7490 h1        1 07N      0.050200
     36 H16         1.3090    1.9570   -2.1710 h1        1 07N      0.061200
     37 H16A        1.2830    0.3980   -2.4910 h1        1 07N      0.061200
     38 H17        -0.7830    0.9470   -1.6400 h1        1 07N      0.052700
     39 H22         5.6500    0.0590   -4.2740 DU        1 07N      0.224500
     40 HN6        -3.1250    0.1010    2.7630 DU        1 07N      0.224500
@<TRIPOS>BOND
     1    1    3 1   
     2    1   27 1   
     3    1   28 1   
     4    1   29 1   
     5    2    6 1   
     6    3    5 2   
     7    3    8 1   
     8    4    5 1   
     9    5    6 1   
    10    6    7 2   
    11    7    8 2   
    12    9   10 2   
    13    9   11 2   
    14   11   12 1   
    15   11   30 1   
    16   12   13 1   
    17   12   17 1   
    18   12   31 1   
    19   13   14 1   
    20   13   32 1   
    21   13   33 1   
    22   14   15 1   
    23   14   34 1   
    24   14   35 1   
    25   15   16 1   
    26   15   19 1   
    27   16   17 1   
    28   16   36 1   
    29   16   37 1   
    30   17   18 1   
    31   17   38 1   
    32   19   20 2   
    33   19   23 1   
    34   20   21 1   
    35   21   22 3   
    36   22   23 1   
    37   24   25 2   
    38   24   26 2   
@<TRIPOS>SUBSTRUCTURE
     1 07N         1 TEMP              0 ****  ****    0 ROOT
