@<TRIPOS>MOLECULE
07N
   41    43     1     0     0
SMALL
bcc


@<TRIPOS>ATOM
      1 C1          1.4900   -2.2950   -0.9230 c3        1 07N     -0.068800
      2 CL1         4.0180    1.5520    1.6770 cl        1 07N      0.042600
      3 C2          2.3440   -1.1330   -0.6150 cc        1 07N      0.034400
      4 CL2         1.8520   -1.0190    2.0890 cl        1 07N      0.012600
      5 C3          2.5510   -0.5350    0.6620 cd        1 07N     -0.099600
      6 C4          3.4660    0.5430    0.4880 cd        1 07N      0.095400
      7 C5          3.7920    0.5950   -0.9050 cc        1 07N     -0.282900
      8 N6          3.0710   -0.4280   -1.5520 na        1 07N     -0.157100
      9 C8          4.6760    1.5480   -1.5110 c         1 07N      0.593700
     10 O9          5.4890    2.2880   -0.9640 o         1 07N     -0.443100
     11 N10         4.5910    1.7370   -3.0150 n4        1 07N     -0.680800
     12 C11         5.7450    1.1010   -3.7530 c3        1 07N      0.090500
     13 C13         5.8230    1.6460   -5.1820 c3        1 07N     -0.107400
     14 C14         6.9780    0.9660   -5.9230 c3        1 07N      0.160800
     15 N15         6.8040   -0.4860   -5.9520 nh        1 07N     -0.660300
     16 C16         6.7830   -1.0420   -4.6040 c3        1 07N      0.146800
     17 C17         5.6360   -0.4520   -3.7480 c3        1 07N      0.148600
     18 F19         4.3840   -0.8630   -4.1800 f         1 07N     -0.241300
     19 C20         7.7820   -1.1280   -6.7690 cc        1 07N      0.370300
     20 N21         9.1230   -1.1320   -6.5420 nd        1 07N     -0.672000
     21 C22         9.7310   -1.8530   -7.5330 cd        1 07N      0.313200
     22 C23         8.8750   -2.3920   -8.5010 cc        1 07N     -0.206000
     23 S24         7.2990   -1.9920   -8.1690 ss        1 07N      0.053700
     24 C25         9.3450   -3.2300   -9.6830 c         1 07N      0.938200
     25 O26        10.5820   -3.4290   -9.7740 o         1 07N     -0.793800
     26 O27         8.4570   -3.6540  -10.4680 o         1 07N     -0.793800
     27 H1          1.7100   -2.7340   -1.9280 hc        1 07N      0.084367
     28 H1A         0.4130   -1.9850   -0.8950 hc        1 07N      0.084367
     29 H1B         1.6480   -3.0850   -0.1440 hc        1 07N      0.084367
     30 HN10        3.7150    1.3700   -3.3940 hn        1 07N      0.455800
     31 H11         6.6880    1.3790   -3.1920 hx        1 07N      0.128700
     32 H13         4.8620    1.4480   -5.7260 hc        1 07N      0.070200
     33 H13A        6.0130    2.7500   -5.1700 hc        1 07N      0.070200
     34 H14         7.9520    1.2790   -5.4490 h1        1 07N      0.074200
     35 H14A        6.9800    1.3290   -6.9900 h1        1 07N      0.074200
     36 H16         6.6160   -2.1520   -4.6940 h1        1 07N      0.083200
     37 H16A        7.7410   -0.8670   -4.0350 h1        1 07N      0.083200
     38 H17         5.7710   -0.8250   -2.6890 h1        1 07N      0.065700
     39 H22        10.8210   -1.9840   -7.5430 h4        1 07N      0.065100
     40 HN6         3.2100   -0.7280   -2.4910 hn        1 07N      0.326700
     41 H102        4.6260    2.7480   -3.2050 hn        1 07N      0.455800
@<TRIPOS>BOND
     1    1    3 1   
     2    1   27 1   
     3    1   28 1   
     4    1   29 1   
     5    2    6 1   
     6    3    5 2   
     7    3    8 1   
     8    4    5 1   
     9    5    6 1   
    10    6    7 2   
    11    7    8 1   
    12    7    9 1   
    13    8   40 1   
    14    9   10 2   
    15    9   11 1   
    16   11   12 1   
    17   11   30 1   
    18   11   41 1   
    19   12   13 1   
    20   12   17 1   
    21   12   31 1   
    22   13   14 1   
    23   13   32 1   
    24   13   33 1   
    25   14   15 1   
    26   14   34 1   
    27   14   35 1   
    28   15   16 1   
    29   15   19 1   
    30   16   17 1   
    31   16   36 1   
    32   16   37 1   
    33   17   18 1   
    34   17   38 1   
    35   19   20 2   
    36   19   23 1   
    37   20   21 1   
    38   21   22 2   
    39   21   39 1   
    40   22   23 1   
    41   22   24 1   
    42   24   25 1   
    43   24   26 1   
@<TRIPOS>SUBSTRUCTURE
     1 07N         1 TEMP              0 ****  ****    0 ROOT
