@<TRIPOS>MOLECULE
07N
   41    43     1     0     0
SMALL
bcc


@<TRIPOS>ATOM
      1 C1          1.5020   -2.2920   -0.9050 c3        1 07N     -0.068800
      2 Cl1         4.0910    1.5000    1.7150 cl        1 07N      0.042600
      3 C2          2.3700   -1.1420   -0.5920 cc        1 07N      0.034400
      4 Cl2         1.9050   -1.0550    2.1180 cl        1 07N      0.012600
      5 C3          2.5950   -0.5610    0.6900 cd        1 07N     -0.099600
      6 C4          3.5180    0.5100    0.5190 cd        1 07N      0.095400
      7 C5          3.8320    0.5760   -0.8760 cc        1 07N     -0.282900
      8 N6          3.0950   -0.4330   -1.5280 na        1 07N     -0.157100
      9 C8          4.7180    1.5280   -1.4790 c         1 07N      0.593700
     10 O9          5.5430    2.2540   -0.9320 o         1 07N     -0.443100
     11 N10         4.6210    1.7350   -2.9810 ny        1 07N     -0.680800
     12 C11         5.7610    1.0970   -3.7370 c3        1 07N      0.090500
     13 C13         5.8310    1.6570   -5.1600 c3        1 07N     -0.107400
     14 C14         6.9720    0.9750   -5.9200 c3        1 07N      0.160800
     15 N15         6.7840   -0.4740   -5.9640 nh        1 07N     -0.660300
     16 C16         6.7710   -1.0450   -4.6220 c3        1 07N      0.146800
     17 C17         5.6380   -0.4550   -3.7490 c3        1 07N      0.148600
     18 F19         4.3780   -0.8490   -4.1730 f         1 07N     -0.241300
     19 C20         7.7480   -1.1160   -6.7980 cc        1 07N      0.370300
     20 N21         9.0910   -1.1350   -6.5840 nd        1 07N     -0.672000
     21 C22         9.6830   -1.8500   -7.5890 cd        1 07N      0.313200
     22 C23         8.8120   -2.3700   -8.5560 cc        1 07N     -0.206000
     23 S24         7.2440   -1.9580   -8.2030 ss        1 07N      0.053700
     24 C25         9.2630   -3.1980   -9.7520 c         1 07N      0.938200
     25 O26        10.4970   -3.4080   -9.8570 o         1 07N     -0.793800
     26 O27         8.3630   -3.6040  -10.5330 o         1 07N     -0.793800
     27 H1          1.6530   -3.0890   -0.1320 hc        1 07N      0.084367
     28 H1A         1.7150   -2.7270   -1.9140 hc        1 07N      0.084367
     29 H1B         0.4290   -1.9690   -0.8740 hc        1 07N      0.084367
     30 HN10        3.7380    1.3800   -3.3550 hn        1 07N      0.455800
     31 H11         6.7120    1.3600   -3.1810 hx        1 07N      0.128700
     32 H13         4.8630    1.4750   -5.6970 hc        1 07N      0.070200
     33 H13A        6.0310    2.7600   -5.1370 hc        1 07N      0.070200
     34 H14         7.9540    1.2740   -5.4520 h1        1 07N      0.074200
     35 H14A        6.9670    1.3510   -6.9820 h1        1 07N      0.074200
     36 H16         7.7360   -0.8860   -4.0610 h1        1 07N      0.083200
     37 H16A        6.5920   -2.1530   -4.7230 h1        1 07N      0.083200
     38 H17         5.7790   -0.8410   -2.6950 h1        1 07N      0.065700
     39 H22        10.7720   -1.9920   -7.6120 h4        1 07N      0.065100
     40 HN6         3.2210   -0.7230   -2.4710 hn        1 07N      0.326700
     41 H102        4.6640    2.7480   -3.1590 hn        1 07N      0.455800
@<TRIPOS>BOND
     1    1    3 1   
     2    1   27 1   
     3    1   28 1   
     4    1   29 1   
     5    2    6 1   
     6    3    5 2   
     7    3    8 1   
     8    4    5 1   
     9    5    6 1   
    10    6    7 2   
    11    7    8 1   
    12    7    9 1   
    13    8   40 1   
    14    9   10 2   
    15    9   11 1   
    16   11   12 1   
    17   11   30 1   
    18   11   41 1   
    19   12   13 1   
    20   12   17 1   
    21   12   31 1   
    22   13   14 1   
    23   13   32 1   
    24   13   33 1   
    25   14   15 1   
    26   14   34 1   
    27   14   35 1   
    28   15   16 1   
    29   15   19 1   
    30   16   17 1   
    31   16   36 1   
    32   16   37 1   
    33   17   18 1   
    34   17   38 1   
    35   19   20 2   
    36   19   23 1   
    37   20   21 1   
    38   21   22 2   
    39   21   39 1   
    40   22   23 1   
    41   22   24 1   
    42   24   25 1   
    43   24   26 1   
@<TRIPOS>SUBSTRUCTURE
     1 07N         1 TEMP              0 ****  ****    0 ROOT
