@<TRIPOS>MOLECULE
07O
   31    31     1     0     0
SMALL
bcc


@<TRIPOS>ATOM
      1 N           2.7410    1.1150   -0.9600 n3        1 07O     -0.900800
      2 CA          3.1620    0.3570    0.2080 c3        1 07O      0.014500
      3 CB          2.1390   -0.6640    0.6680 c3        1 07O      0.028700
      4 SG          0.6110    0.0460    1.2540 ss        1 07O     -0.289700
      5 CD         -0.3590    0.3060   -0.1280 c         1 07O      0.585700
      6 OD         -0.1380   -0.0500   -1.2910 o         1 07O     -0.545100
      7 C1         -1.6140    1.0760    0.2580 c3        1 07O     -0.115400
      8 C1A        -1.6900    2.3490   -0.5670 c3        1 07O     -0.081100
      9 C2         -2.8450    0.2470    0.0770 ca        1 07O     -0.065300
     10 C3         -3.1220   -0.3700   -1.1500 ca        1 07O     -0.119000
     11 C4         -4.2850   -1.1210   -1.3120 ca        1 07O     -0.137000
     12 C5         -5.1810   -1.2640   -0.2540 ca        1 07O     -0.139000
     13 C6         -4.9090   -0.6570    0.9710 ca        1 07O     -0.137000
     14 C7         -3.7460    0.0940    1.1380 ca        1 07O     -0.119000
     15 C           4.5380   -0.3910    0.0570 c         1 07O      0.896600
     16 O           5.2230   -0.1560   -0.9760 o         1 07O     -0.833300
     17 H1          3.5740    1.4620   -1.4090 hn        1 07O      0.342800
     18 H2          2.2920    0.4990   -1.6140 hn        1 07O      0.342800
     19 H4          3.3160    1.1120    1.0350 h1        1 07O      0.053700
     20 H5          1.9150   -1.3990   -0.1410 h1        1 07O      0.092200
     21 H6          2.5620   -1.2090    1.5530 h1        1 07O      0.092200
     22 H7         -1.5250    1.3640    1.3470 hc        1 07O      0.074700
     23 H8         -0.7850    2.9770   -0.3820 hc        1 07O      0.044033
     24 H9         -1.7320    2.0980   -1.6550 hc        1 07O      0.044033
     25 H10        -2.6000    2.9320   -0.2920 hc        1 07O      0.044033
     26 H11        -2.3990   -0.2680   -1.9770 ha        1 07O      0.145500
     27 H12        -4.4910   -1.6050   -2.2780 ha        1 07O      0.123500
     28 H13        -6.0970   -1.8570   -0.3830 ha        1 07O      0.120000
     29 H14        -5.6090   -0.7730    1.8110 ha        1 07O      0.123500
     30 H15        -3.5340    0.5650    2.1100 ha        1 07O      0.145500
     31 OXT         4.8760   -1.1640    0.9940 o         1 07O     -0.833300
@<TRIPOS>BOND
     1    1    2 1   
     2    1   17 1   
     3    1   18 1   
     4    2    3 1   
     5    2   15 1   
     6    2   19 1   
     7    3    4 1   
     8    3   20 1   
     9    3   21 1   
    10    4    5 1   
    11    5    6 2   
    12    5    7 1   
    13    7    8 1   
    14    7    9 1   
    15    7   22 1   
    16    8   23 1   
    17    8   24 1   
    18    8   25 1   
    19    9   10 ar  
    20    9   14 ar  
    21   10   11 ar  
    22   10   26 1   
    23   11   12 ar  
    24   11   27 1   
    25   12   13 ar  
    26   12   28 1   
    27   13   14 ar  
    28   13   29 1   
    29   14   30 1   
    30   15   16 1   
    31   15   31 1   
@<TRIPOS>SUBSTRUCTURE
     1 07O         1 TEMP              0 ****  ****    0 ROOT
