@<TRIPOS>MOLECULE
07Q
   44    46     1     0     0
SMALL
bcc


@<TRIPOS>ATOM
      1 O01         0.3540   -1.5360   -0.4100 o         1 07Q     -0.441100
      2 C02         0.9610   -0.4850   -0.2100 c         1 07Q      0.628100
      3 N03         1.9640   -0.5610    0.9410 n4        1 07Q     -0.681800
      4 C04         1.4230    0.0050    2.2430 c3        1 07Q      0.200800
      5 C05         1.4200    1.5250    2.2570 c3        1 07Q     -0.132100
      6 C06         2.2320   -0.5610    3.3750 ca        1 07Q     -0.154300
      7 C07         3.5220   -0.0840    3.6390 ca        1 07Q     -0.158000
      8 C08         4.2470   -0.6080    4.7070 ca        1 07Q     -0.076000
      9 C09         3.7040   -1.6050    5.5150 ca        1 07Q     -0.164000
     10 C10         2.4130   -2.0810    5.2450 ca        1 07Q      0.147100
     11 O11         1.7700   -3.0610    5.9610 os        1 07Q     -0.314900
     12 C12         2.4680   -3.5920    7.0880 c3        1 07Q      0.106700
     13 C13         1.6700   -1.5620    4.1650 ca        1 07Q     -0.133000
     14 N14         0.7490    0.7530   -0.8240 n         1 07Q     -0.428400
     15 C15         0.4260    0.7100   -2.2050 cc        1 07Q      0.322300
     16 N16         1.2900    0.2880   -3.1650 nd        1 07Q     -0.621000
     17 C17         0.6690    0.3840   -4.3940 cd        1 07Q      0.423800
     18 C18         1.3330    0.0020   -5.6370 ca        1 07Q     -0.105500
     19 C19         2.7160    0.1560   -5.8010 ca        1 07Q     -0.222300
     20 C20         3.2890   -0.2210   -7.0300 ca        1 07Q      0.400200
     21 N21         2.5820   -0.7240   -8.0600 nb        1 07Q     -0.639000
     22 C22         1.2550   -0.8690   -7.8860 ca        1 07Q      0.400200
     23 C23         0.5830   -0.5230   -6.7000 ca        1 07Q     -0.222300
     24 C24        -0.6490    0.8780   -4.3300 cc        1 07Q     -0.265400
     25 S25        -1.1070    1.2010   -2.7860 ss        1 07Q      0.151700
     26 H1          2.8380   -0.0880    0.7020 hn        1 07Q      0.463300
     27 H2          0.3530   -0.3680    2.3150 hx        1 07Q      0.117700
     28 H3          1.2100    1.8570    3.3070 hc        1 07Q      0.078367
     29 H4          0.6160    1.9390    1.6010 hc        1 07Q      0.078367
     30 H5          2.4060    1.9550    1.9550 hc        1 07Q      0.078367
     31 H6          3.9590    0.7150    3.0230 ha        1 07Q      0.133000
     32 H7          5.2600   -0.2280    4.9190 ha        1 07Q      0.158000
     33 H8          4.2880   -2.0060    6.3580 ha        1 07Q      0.164000
     34 H9          1.7430   -4.3380    7.5040 h1        1 07Q      0.060367
     35 H10         3.4110   -4.0930    6.7630 h1        1 07Q      0.060367
     36 H11         2.6800   -2.7870    7.8330 h1        1 07Q      0.060367
     37 H12         0.6560   -1.9500    3.9820 ha        1 07Q      0.163000
     38 H13         1.3890    1.4920   -0.5900 hn        1 07Q      0.325500
     39 H14         3.3470    0.5610   -4.9990 ha        1 07Q      0.148500
     40 H15         4.3760   -0.1130   -7.2010 h4        1 07Q      0.035100
     41 H16         0.6990   -1.2860   -8.7460 h4        1 07Q      0.035100
     42 H17        -0.5010   -0.6730   -6.6140 ha        1 07Q      0.148500
     43 H18        -1.2770    1.0320   -5.2110 h4        1 07Q      0.210000
     44 H032        2.1660   -1.5620    1.0930 hn        1 07Q      0.463300
@<TRIPOS>BOND
     1    1    2 2   
     2    2    3 1   
     3    2   14 1   
     4    3    4 1   
     5    3   26 1   
     6    3   44 1   
     7    4    5 1   
     8    4    6 1   
     9    4   27 1   
    10    5   28 1   
    11    5   29 1   
    12    5   30 1   
    13    6    7 ar  
    14    6   13 ar  
    15    7    8 ar  
    16    7   31 1   
    17    8    9 ar  
    18    8   32 1   
    19    9   10 ar  
    20    9   33 1   
    21   10   11 1   
    22   10   13 ar  
    23   11   12 1   
    24   12   34 1   
    25   12   35 1   
    26   12   36 1   
    27   13   37 1   
    28   14   15 1   
    29   14   38 1   
    30   15   16 2   
    31   15   25 1   
    32   16   17 1   
    33   17   18 1   
    34   17   24 2   
    35   18   19 ar  
    36   18   23 ar  
    37   19   20 ar  
    38   19   39 1   
    39   20   21 ar  
    40   20   40 1   
    41   21   22 ar  
    42   22   23 ar  
    43   22   41 1   
    44   23   42 1   
    45   24   25 1   
    46   24   43 1   
@<TRIPOS>SUBSTRUCTURE
     1 07Q         1 TEMP              0 ****  ****    0 ROOT
