@<TRIPOS>MOLECULE
07Q
   44    46     1     0     0
SMALL
bcc


@<TRIPOS>ATOM
      1 O01         0.3690   -1.5590   -0.4150 o         1 07Q     -0.441100
      2 C02         0.9600   -0.5000   -0.2120 c         1 07Q      0.628100
      3 N03         1.9610   -0.5620    0.9420 ny        1 07Q     -0.681800
      4 C04         1.4080   -0.0040    2.2420 c3        1 07Q      0.200800
      5 C05         1.3860    1.5160    2.2570 c3        1 07Q     -0.132100
      6 C06         2.2210   -0.5600    3.3760 ca        1 07Q     -0.154300
      7 C07         3.5050   -0.0680    3.6430 ca        1 07Q     -0.158000
      8 C08         4.2340   -0.5830    4.7130 ca        1 07Q     -0.076000
      9 C09         3.7000   -1.5870    5.5200 ca        1 07Q     -0.164000
     10 C10         2.4160   -2.0780    5.2460 ca        1 07Q      0.147100
     11 O11         1.7830   -3.0660    5.9610 os        1 07Q     -0.314900
     12 C12         2.4840   -3.5880    7.0900 c3        1 07Q      0.106700
     13 C13         1.6690   -1.5680    4.1650 ca        1 07Q     -0.133000
     14 N14         0.7310    0.7360   -0.8260 ns        1 07Q     -0.428400
     15 C15         0.4150    0.6890   -2.2090 cc        1 07Q      0.322300
     16 N16         1.2890    0.2830   -3.1660 nd        1 07Q     -0.621000
     17 C17         0.6710    0.3700   -4.3970 cd        1 07Q      0.422800
     18 C18         1.3470    0.0010   -5.6380 ca        1 07Q     -0.105500
     19 C19         2.7280    0.1800   -5.7960 ca        1 07Q     -0.222300
     20 C20         3.3120   -0.1850   -7.0240 ca        1 07Q      0.400200
     21 N21         2.6180   -0.7000   -8.0560 nb        1 07Q     -0.639000
     22 C22         1.2920   -0.8690   -7.8880 ca        1 07Q      0.400200
     23 C23         0.6100   -0.5360   -6.7040 ca        1 07Q     -0.222300
     24 C24        -0.6550    0.8420   -4.3370 cc        1 07Q     -0.265400
     25 S25        -1.1240    1.1550   -2.7950 ss        1 07Q      0.152700
     26 H1          2.8290   -0.0760    0.7040 hn        1 07Q      0.463300
     27 H2          0.3440   -0.3910    2.3100 hx        1 07Q      0.117700
     28 H3          2.3670    1.9590    1.9590 hc        1 07Q      0.078367
     29 H4          0.5790    1.9200    1.5990 hc        1 07Q      0.078367
     30 H5          1.1670    1.8440    3.3070 hc        1 07Q      0.078367
     31 H6          3.9340    0.7370    3.0290 ha        1 07Q      0.133000
     32 H7          5.2410   -0.1910    4.9280 ha        1 07Q      0.158000
     33 H8          4.2870   -1.9810    6.3640 ha        1 07Q      0.164000
     34 H9          3.4340   -4.0780    6.7670 h1        1 07Q      0.060367
     35 H10         1.7670   -4.3430    7.5040 h1        1 07Q      0.060367
     36 H11         2.6840   -2.7810    7.8350 h1        1 07Q      0.060367
     37 H12         0.6600   -1.9680    3.9790 ha        1 07Q      0.163000
     38 H13         1.3600    1.4840   -0.5900 hn        1 07Q      0.325500
     39 H14         3.3480    0.5960   -4.9920 ha        1 07Q      0.148500
     40 H15         4.3970   -0.0570   -7.1910 h4        1 07Q      0.035100
     41 H16         0.7480   -1.2950   -8.7510 h4        1 07Q      0.035100
     42 H17        -0.4710   -0.7050   -6.6220 ha        1 07Q      0.148500
     43 H18        -1.2820    0.9860   -5.2210 h4        1 07Q      0.210000
     44 H032        2.1770   -1.5600    1.0940 hn        1 07Q      0.463300
@<TRIPOS>BOND
     1    1    2 2   
     2    2    3 1   
     3    2   14 1   
     4    3    4 1   
     5    3   26 1   
     6    3   44 1   
     7    4    5 1   
     8    4    6 1   
     9    4   27 1   
    10    5   28 1   
    11    5   29 1   
    12    5   30 1   
    13    6    7 ar  
    14    6   13 ar  
    15    7    8 ar  
    16    7   31 1   
    17    8    9 ar  
    18    8   32 1   
    19    9   10 ar  
    20    9   33 1   
    21   10   11 1   
    22   10   13 ar  
    23   11   12 1   
    24   12   34 1   
    25   12   35 1   
    26   12   36 1   
    27   13   37 1   
    28   14   15 1   
    29   14   38 1   
    30   15   16 2   
    31   15   25 1   
    32   16   17 1   
    33   17   18 1   
    34   17   24 2   
    35   18   19 ar  
    36   18   23 ar  
    37   19   20 ar  
    38   19   39 1   
    39   20   21 ar  
    40   20   40 1   
    41   21   22 ar  
    42   22   23 ar  
    43   22   41 1   
    44   23   42 1   
    45   24   25 1   
    46   24   43 1   
@<TRIPOS>SUBSTRUCTURE
     1 07Q         1 TEMP              0 ****  ****    0 ROOT
