@<TRIPOS>MOLECULE
07Q
   43    45     1     0     0
SMALL
bcc


@<TRIPOS>ATOM
      1 O01        -0.3880   -1.7510   -0.4330 o         1 07Q     -0.629100
      2 C02        -0.5110   -0.5250   -0.6800 c         1 07Q      0.754100
      3 N03        -1.7650    0.0860   -0.7830 n         1 07Q     -0.534900
      4 C04        -2.9430   -0.7620   -0.9010 c3        1 07Q      0.145000
      5 C05        -3.0930   -1.4330   -2.2690 c3        1 07Q     -0.122100
      6 C06        -4.1900    0.0320   -0.5890 ca        1 07Q     -0.064300
      7 C07        -4.5750    1.1060   -1.4020 ca        1 07Q     -0.163000
      8 C08        -5.7340    1.8200   -1.1130 ca        1 07Q     -0.092000
      9 C09        -6.5250    1.4780   -0.0160 ca        1 07Q     -0.198000
     10 C10        -6.1350    0.4060    0.7940 ca        1 07Q      0.127100
     11 O11        -6.8310   -0.0310    1.9040 os        1 07Q     -0.324900
     12 C12        -8.0140    0.6910    2.2290 c3        1 07Q      0.112700
     13 C13        -4.9620   -0.3210    0.5150 ca        1 07Q     -0.137000
     14 N14         0.6450    0.2740   -0.8540 n         1 07Q     -0.518400
     15 C15         1.8920   -0.2190   -0.4560 cc        1 07Q      0.476300
     16 N16         2.9710    0.5800   -0.2730 nd        1 07Q     -0.677000
     17 C17         4.0670   -0.2110    0.0520 cd        1 07Q      0.402800
     18 C18         5.3790    0.3740    0.3040 ca        1 07Q     -0.073500
     19 C19         5.7640    1.5900   -0.2810 ca        1 07Q     -0.226800
     20 C20         7.0490    2.0900   -0.0070 ca        1 07Q      0.386700
     21 N21         7.9400    1.4700    0.7900 nb        1 07Q     -0.664000
     22 C22         7.5560    0.3060    1.3490 ca        1 07Q      0.386700
     23 C23         6.2960   -0.2800    1.1410 ca        1 07Q     -0.226800
     24 C24         3.7960   -1.5810    0.1120 cc        1 07Q     -0.316400
     25 S25         2.2090   -1.9070   -0.2230 ss        1 07Q      0.073700
     26 H1         -1.8320    0.9800   -1.2140 hn        1 07Q      0.305500
     27 H2         -2.8200   -1.5850   -0.1290 h1        1 07Q      0.094700
     28 H3         -4.0050   -2.0760   -2.2590 hc        1 07Q      0.050367
     29 H4         -3.1990   -0.6780   -3.0840 hc        1 07Q      0.050367
     30 H5         -2.2030   -2.0750   -2.4790 hc        1 07Q      0.050367
     31 H6         -3.9680    1.3800   -2.2770 ha        1 07Q      0.129000
     32 H7         -6.0340    2.6620   -1.7540 ha        1 07Q      0.135000
     33 H8         -7.4380    2.0500    0.1990 ha        1 07Q      0.140000
     34 H9         -7.7750    1.7600    2.4510 h1        1 07Q      0.046033
     35 H10        -8.7600    0.6200    1.4010 h1        1 07Q      0.046033
     36 H11        -8.3900    0.1720    3.1470 h1        1 07Q      0.046033
     37 H12        -4.6740   -1.1530    1.1750 ha        1 07Q      0.156000
     38 H13         0.5510    1.2670   -0.8850 hn        1 07Q      0.330500
     39 H14         5.0820    2.1460   -0.9390 ha        1 07Q      0.150500
     40 H15         7.3860    3.0440   -0.4510 h4        1 07Q      0.020600
     41 H16         8.3020   -0.1830    2.0010 h4        1 07Q      0.020600
     42 H17         6.0370   -1.2270    1.6320 ha        1 07Q      0.150500
     43 H18         4.5370   -2.3420    0.3470 h4        1 07Q      0.183000
@<TRIPOS>BOND
     1    1    2 2   
     2    2    3 1   
     3    2   14 1   
     4    3    4 1   
     5    3   26 1   
     6    4    5 1   
     7    4    6 1   
     8    4   27 1   
     9    5   28 1   
    10    5   29 1   
    11    5   30 1   
    12    6    7 ar  
    13    6   13 ar  
    14    7    8 ar  
    15    7   31 1   
    16    8    9 ar  
    17    8   32 1   
    18    9   10 ar  
    19    9   33 1   
    20   10   11 1   
    21   10   13 ar  
    22   11   12 1   
    23   12   34 1   
    24   12   35 1   
    25   12   36 1   
    26   13   37 1   
    27   14   15 1   
    28   14   38 1   
    29   15   16 2   
    30   15   25 1   
    31   16   17 1   
    32   17   18 1   
    33   17   24 2   
    34   18   19 ar  
    35   18   23 ar  
    36   19   20 ar  
    37   19   39 1   
    38   20   21 ar  
    39   20   40 1   
    40   21   22 ar  
    41   22   23 ar  
    42   22   41 1   
    43   23   42 1   
    44   24   25 1   
    45   24   43 1   
@<TRIPOS>SUBSTRUCTURE
     1 07Q         1 TEMP              0 ****  ****    0 ROOT
