@<TRIPOS>MOLECULE
07Q
   43    37     1     0     0
SMALL
bcc


@<TRIPOS>ATOM
      1 O01        -1.7670    1.2270    0.5250 o         1 07Q     -0.390000
      2 C02        -0.5920    1.1390    0.4910 c1        1 07Q      0.381000
      3 N03         0.1500    1.0440    1.7030 n2        1 07Q     -0.344000
      4 C04        -0.4710    0.5600    2.8820 c3        1 07Q      0.061000
      5 C05        -1.0770    1.7310    3.6600 c3        1 07Q     -0.240000
      6 C06         0.5770   -0.1460    3.7530 c1        1 07Q     -0.057000
      7 C07         1.6820    0.5660    4.2240 c1        1 07Q     -0.127500
      8 C08         2.6810   -0.0920    4.9460 c1        1 07Q     -0.127500
      9 C09         2.5740   -1.4670    5.1980 c1        1 07Q     -0.198000
     10 C10         1.4730   -2.1770    4.7290 c1        1 07Q      0.082000
     11 O11         1.3630   -3.5880    4.9920 o         1 07Q     -0.208000
     12 C12         2.3610   -4.3610    4.3750 c3        1 07Q     -0.077000
     13 C13         0.4700   -1.5170    4.0040 c2        1 07Q     -0.137000
     14 N14         0.0960    1.1350   -0.7820 n3        1 07Q     -0.285000
     15 C15        -0.6730    1.2390   -2.0250 c2        1 07Q     -0.181000
     16 N16        -0.2290    0.8530   -3.3250 n2        1 07Q     -0.151000
     17 C17        -1.4270    1.0710   -4.3510 c1        1 07Q     -0.033000
     18 C18        -1.3760    0.8250   -5.8250 c1        1 07Q      0.034000
     19 C19        -1.9380   -0.3260   -6.3530 c2        1 07Q     -0.172000
     20 C20        -1.7770   -0.6230   -7.7000 c1        1 07Q     -0.077000
     21 N21        -1.0690    0.2170   -8.5040 n1        1 07Q     -0.138000
     22 C22        -0.5100    1.3590   -7.9880 c1        1 07Q     -0.080000
     23 C23        -0.6670    1.6650   -6.6320 c1        1 07Q     -0.151000
     24 C24        -2.5650    1.5890   -3.6160 c1        1 07Q     -0.521000
     25 S25        -2.1580    1.7190   -2.1460 ss        1 07Q      0.658000
     26 H1          1.0450    1.2560    1.7110 hn        1 07Q      0.219000
     27 H2         -1.2030   -0.0960    2.6350 h1        1 07Q      0.134000
     28 H3         -0.5520    2.5890    3.4530 hc        1 07Q      0.089667
     29 H4         -1.9980    1.8480    3.4000 hc        1 07Q      0.089667
     30 H5         -1.0300    1.5390    4.6480 hc        1 07Q      0.089667
     31 H6          1.7560    1.5280    4.0490 ha        1 07Q      0.132000
     32 H7          3.4720    0.4190    5.2830 ha        1 07Q      0.132000
     33 H8          3.2600   -1.9200    5.6930 ha        1 07Q      0.140000
     34 H9          2.1000   -5.3180    4.3990 h1        1 07Q      0.085333
     35 H10         2.4680   -4.0720    3.4350 h1        1 07Q      0.085333
     36 H11         3.2440   -4.2360    4.8740 h1        1 07Q      0.085333
     37 H12        -0.3040   -2.0160    3.6720 ha        1 07Q      0.156000
     38 H13         0.9800    0.9610   -0.8150 hn        1 07Q      0.244000
     39 H14        -2.4470   -0.9310   -5.7760 ha        1 07Q      0.143000
     40 H15        -2.1840   -1.4560   -8.0810 ha        1 07Q      0.157000
     41 H16        -0.0110    1.9480   -8.5580 ha        1 07Q      0.158000
     42 H17        -0.2620    2.4950   -6.2570 ha        1 07Q      0.158000
     43 H18        -3.4630    1.8220   -4.0030 DU        1 07Q      0.183000
@<TRIPOS>BOND
     1    1    2 1   
     2    2   14 1   
     3    3    4 1   
     4    3   26 1   
     5    4    5 1   
     6    4    6 1   
     7    4   27 1   
     8    5   28 1   
     9    5   29 1   
    10    5   30 1   
    11    6   13 1   
    12    7    8 1   
    13    7   31 1   
    14    8   32 1   
    15    9   10 1   
    16    9   33 1   
    17   10   13 1   
    18   11   12 1   
    19   12   34 1   
    20   12   35 1   
    21   12   36 1   
    22   13   37 1   
    23   14   15 1   
    24   14   38 1   
    25   15   16 1   
    26   15   25 1   
    27   16   17 1   
    28   17   24 1   
    29   18   19 1   
    30   18   23 1   
    31   19   20 1   
    32   19   39 1   
    33   20   40 1   
    34   21   22 1   
    35   22   41 1   
    36   23   42 1   
    37   24   25 1   
@<TRIPOS>SUBSTRUCTURE
     1 07Q         1 TEMP              0 ****  ****    0 ROOT
