@<TRIPOS>MOLECULE
07Q
   45    47     1     0     0
SMALL
bcc


@<TRIPOS>ATOM
      1 O01        -1.1780    1.8370    1.0790 o         1 07Q     -0.319100
      2 C02        -0.1630    1.8070    0.4030 c         1 07Q      0.508100
      3 N03         1.0300    1.0260    0.7650 n4        1 07Q     -0.654800
      4 C04         1.3060    1.0300    2.3160 c3        1 07Q      0.242800
      5 C05         1.8460    2.3730    2.7490 c3        1 07Q     -0.149100
      6 C06         2.2030   -0.1280    2.5610 ca        1 07Q     -0.185300
      7 C07         3.5960    0.0130    2.6370 ca        1 07Q     -0.124000
      8 C08         4.3870   -1.0940    2.9400 ca        1 07Q     -0.078000
      9 C09         3.8150   -2.3460    3.1500 ca        1 07Q     -0.127000
     10 C10         2.4190   -2.4930    3.0550 ca        1 07Q      0.154100
     11 O11         1.7400   -3.6710    3.2180 os        1 07Q     -0.312900
     12 C12         2.5020   -4.8040    3.6460 c3        1 07Q      0.103700
     13 C13         1.6080   -1.3820    2.7590 ca        1 07Q     -0.148000
     14 N14        -0.1580    2.6180   -0.8800 n4        1 07Q     -0.567500
     15 C15        -0.0400    1.7740   -2.0520 cc        1 07Q      0.182300
     16 N16         0.9480    0.8130   -2.1060 nd        1 07Q     -0.668000
     17 C17         0.8830    0.1810   -3.3100 cd        1 07Q      0.487800
     18 C18         1.7850   -0.8960   -3.7050 ca        1 07Q     -0.151500
     19 C19         3.1540   -0.8370   -3.4110 ca        1 07Q     -0.219800
     20 C20         3.9710   -1.9000   -3.8410 ca        1 07Q      0.417200
     21 N21         3.5060   -2.9710   -4.5120 nb        1 07Q     -0.608000
     22 C22         2.1890   -3.0120   -4.7880 ca        1 07Q      0.417200
     23 C23         1.2850   -2.0000   -4.4100 ca        1 07Q     -0.219800
     24 C24        -0.1600    0.6790   -4.1510 cc        1 07Q     -0.262400
     25 S25        -0.9970    1.8670   -3.4490 ss        1 07Q      0.370700
     26 H1          0.8710    0.0370    0.4840 hn        1 07Q      0.496300
     27 H2          0.2880    0.8510    2.7850 hx        1 07Q      0.130700
     28 H3          1.0780    3.1760    2.6360 hc        1 07Q      0.091700
     29 H4          2.1010    2.2960    3.8430 hc        1 07Q      0.091700
     30 H5          2.7770    2.6680    2.2070 hc        1 07Q      0.091700
     31 H6          4.0750    0.9930    2.4920 ha        1 07Q      0.146000
     32 H7          5.4820   -0.9760    3.0210 ha        1 07Q      0.175000
     33 H8          4.4540   -3.2110    3.3960 ha        1 07Q      0.179000
     34 H9          3.0020   -4.5940    4.6220 h1        1 07Q      0.069367
     35 H10         3.2460   -5.0870    2.8630 h1        1 07Q      0.069367
     36 H11         1.7210   -5.5990    3.7610 h1        1 07Q      0.069367
     37 H12         0.5160   -1.5180    2.7310 ha        1 07Q      0.158000
     38 H13        -1.0560    3.1360   -0.9210 hn        1 07Q      0.496800
     39 H14         3.5940    0.0160   -2.8800 ha        1 07Q      0.148500
     40 H15         5.0610   -1.8920   -3.6430 h4        1 07Q      0.054600
     41 H16         1.8400   -3.9030   -5.3470 h4        1 07Q      0.054600
     42 H17         0.2200   -2.0890   -4.6630 ha        1 07Q      0.148500
     43 H18        -0.3300    0.2770   -5.1620 h4        1 07Q      0.250000
     44 H032        1.8790    1.3530    0.2820 hn        1 07Q      0.496300
     45 H142        0.6210    3.2980   -0.8640 hn        1 07Q      0.496800
@<TRIPOS>BOND
     1    1    2 2   
     2    2    3 1   
     3    2   14 1   
     4    3    4 1   
     5    3   26 1   
     6    3   44 1   
     7    4    5 1   
     8    4    6 1   
     9    4   27 1   
    10    5   28 1   
    11    5   29 1   
    12    5   30 1   
    13    6    7 ar  
    14    6   13 ar  
    15    7    8 ar  
    16    7   31 1   
    17    8    9 ar  
    18    8   32 1   
    19    9   10 ar  
    20    9   33 1   
    21   10   11 1   
    22   10   13 ar  
    23   11   12 1   
    24   12   34 1   
    25   12   35 1   
    26   12   36 1   
    27   13   37 1   
    28   14   15 1   
    29   14   38 1   
    30   14   45 1   
    31   15   16 2   
    32   15   25 1   
    33   16   17 1   
    34   17   18 1   
    35   17   24 2   
    36   18   19 ar  
    37   18   23 ar  
    38   19   20 ar  
    39   19   39 1   
    40   20   21 ar  
    41   20   40 1   
    42   21   22 ar  
    43   22   23 ar  
    44   22   41 1   
    45   23   42 1   
    46   24   25 1   
    47   24   43 1   
@<TRIPOS>SUBSTRUCTURE
     1 07Q         1 TEMP              0 ****  ****    0 ROOT
