@<TRIPOS>MOLECULE
07R
   38    40     1     0     0
SMALL
bcc


@<TRIPOS>ATOM
      1 O01         0.7550    1.6940   -0.5510 o         1 07R     -0.436100
      2 C02         1.1560    0.5620   -0.2930 c         1 07R      0.626100
      3 N03         2.0990    0.5060    0.9140 n4        1 07R     -0.679800
      4 C04         1.4860   -0.1990    2.0880 c3        1 07R      0.175100
      5 C05         2.3450   -0.0530    3.2990 ca        1 07R     -0.152300
      6 C06         2.3690    1.1720    3.9700 ca        1 07R     -0.152000
      7 C07         3.1560    1.2970    5.1270 ca        1 07R      0.149100
      8 O08         3.1450    2.5270    5.7300 oh        1 07R     -0.479100
      9 C09         3.9010    0.2070    5.6090 ca        1 07R     -0.166000
     10 C10         3.8580   -1.0040    4.9260 ca        1 07R     -0.076000
     11 C11         3.0880   -1.1400    3.7690 ca        1 07R     -0.135000
     12 N12         0.7600   -0.6490   -0.8680 n         1 07R     -0.422400
     13 C13         0.4300   -0.5960   -2.2480 cc        1 07R      0.316300
     14 N14         1.3350   -0.3330   -3.2270 nd        1 07R     -0.618000
     15 C15         0.6920   -0.3700   -4.4470 cd        1 07R      0.424800
     16 C16         1.3900   -0.1260   -5.7060 ca        1 07R     -0.106500
     17 C17         0.7130    0.4740   -6.7780 ca        1 07R     -0.221800
     18 C18         1.4130    0.6830   -7.9790 ca        1 07R      0.400200
     19 N19         2.7030    0.3390   -8.1590 nb        1 07R     -0.639000
     20 C20         3.3410   -0.2340   -7.1210 ca        1 07R      0.400200
     21 C21         2.7330   -0.4870   -5.8760 ca        1 07R     -0.221800
     22 C22        -0.6840   -0.6620   -4.3580 cc        1 07R     -0.264400
     23 S23        -1.1660   -0.8700   -2.8020 ss        1 07R      0.156700
     24 H1          2.9820    0.0560    0.6580 hn        1 07R      0.465800
     25 H2          0.4710    0.2640    2.2660 hx        1 07R      0.110200
     26 H3          1.3510   -1.2850    1.8180 hx        1 07R      0.110200
     27 H4          1.7720    2.0320    3.6320 ha        1 07R      0.157000
     28 H5          3.6850    2.4820    6.5350 ho        1 07R      0.442000
     29 H6          4.5090    0.3120    6.5210 ha        1 07R      0.162000
     30 H7          4.4340   -1.8650    5.3020 ha        1 07R      0.162000
     31 H8          3.0570   -2.1080    3.2460 ha        1 07R      0.142000
     32 H9          1.2970   -1.4640   -0.6270 hn        1 07R      0.325500
     33 H10        -0.3370    0.7840   -6.6880 ha        1 07R      0.148500
     34 H11         0.9150    1.1530   -8.8480 h4        1 07R      0.035600
     35 H12         4.3980   -0.5060   -7.2960 h4        1 07R      0.035600
     36 H13         3.3080   -0.9570   -5.0680 ha        1 07R      0.148500
     37 H14        -1.3380   -0.7460   -5.2290 h4        1 07R      0.211000
     38 H032        2.3050    1.4810    1.1850 hn        1 07R      0.465800
@<TRIPOS>BOND
     1    1    2 2   
     2    2    3 1   
     3    2   12 1   
     4    3    4 1   
     5    3   24 1   
     6    3   38 1   
     7    4    5 1   
     8    4   25 1   
     9    4   26 1   
    10    5    6 ar  
    11    5   11 ar  
    12    6    7 ar  
    13    6   27 1   
    14    7    8 1   
    15    7    9 ar  
    16    8   28 1   
    17    9   10 ar  
    18    9   29 1   
    19   10   11 ar  
    20   10   30 1   
    21   11   31 1   
    22   12   13 1   
    23   12   32 1   
    24   13   14 2   
    25   13   23 1   
    26   14   15 1   
    27   15   16 1   
    28   15   22 2   
    29   16   17 ar  
    30   16   21 ar  
    31   17   18 ar  
    32   17   33 1   
    33   18   19 ar  
    34   18   34 1   
    35   19   20 ar  
    36   20   21 ar  
    37   20   35 1   
    38   21   36 1   
    39   22   23 1   
    40   22   37 1   
@<TRIPOS>SUBSTRUCTURE
     1 07R         1 TEMP              0 ****  ****    0 ROOT
