@<TRIPOS>MOLECULE
07R
   37    31     1     0     0
SMALL
bcc


@<TRIPOS>ATOM
      1 O01        -1.2640    0.0810    0.8680 o         1 07R     -0.386000
      2 C02        -0.0580    0.2170    0.8380 c1        1 07R      0.373000
      3 N03         0.6730    0.3440    2.0500 n2        1 07R     -0.324000
      4 C04         0.1770    1.1720    3.0960 c3        1 07R     -0.009000
      5 C05         0.3130    0.4490    4.4210 c1        1 07R     -0.092000
      6 C06         1.5430   -0.0570    4.8090 c1        1 07R     -0.153500
      7 C07         1.6900   -0.6420    6.0580 c1        1 07R      0.056500
      8 O08         2.9510   -1.1110    6.4710 o         1 07R     -0.251000
      9 C09         0.6060   -0.7200    6.9180 c2        1 07R     -0.187500
     10 C10        -0.6250   -0.2130    6.5300 c1        1 07R     -0.084000
     11 C11        -0.7710    0.3710    5.2820 c1        1 07R     -0.141000
     12 N12         0.6280    0.2030   -0.4060 n3        1 07R     -0.285000
     13 C13        -0.0980    0.0300   -1.6140 c2        1 07R     -0.179000
     14 N14         0.4300    0.1530   -2.9360 n2        1 07R     -0.151000
     15 C15        -0.7360   -0.0840   -3.9600 c1        1 07R     -0.032000
     16 C16        -0.6140   -0.0410   -5.4680 c1        1 07R      0.056500
     17 C17        -0.9130    1.1060   -6.1450 c2        1 07R     -0.187500
     18 C18        -0.7890    1.1480   -7.5250 c1        1 07R     -0.084000
     19 N19        -0.3700    0.0440   -8.2060 n1        1 07R     -0.138000
     20 C20        -0.0720   -1.1020   -7.5310 c1        1 07R     -0.080000
     21 C21        -0.1950   -1.1460   -6.1510 c1        1 07R     -0.153500
     22 C22        -1.9460   -0.3460   -3.2170 c1        1 07R     -0.520000
     23 S23        -1.6040   -0.2870   -1.7320 ss        1 07R      0.655000
     24 H1          1.4750   -0.0780    2.1450 hn        1 07R      0.212000
     25 H2          0.6910    2.0050    3.1250 h1        1 07R      0.123000
     26 H3         -0.7670    1.3770    2.9320 h1        1 07R      0.123000
     27 H4          2.3080    0.0010    4.2050 ha        1 07R      0.153000
     28 H5          2.9160   -1.9930    6.5840 ho        1 07R      0.221000
     29 H6          0.7090   -1.1310    7.7970 ha        1 07R      0.140000
     30 H7         -1.3890   -0.2680    7.1360 ha        1 07R      0.148500
     31 H8         -1.6370    0.7270    5.0090 ha        1 07R      0.146000
     32 H9          1.5320    0.3160   -0.4290 hn        1 07R      0.247000
     33 H10        -1.2120    1.8960   -5.6580 ha        1 07R      0.140000
     34 H11        -1.0020    1.9680   -8.0090 ha        1 07R      0.148500
     35 H12         0.2280   -1.8920   -8.0200 ha        1 07R      0.158000
     36 H13         0.0180   -1.9670   -5.6690 ha        1 07R      0.153000
     37 H14        -2.8260   -0.5280   -3.5970 DU        1 07R      0.183000
@<TRIPOS>BOND
     1    1    2 1   
     2    2   12 1   
     3    3    4 1   
     4    3   24 1   
     5    4    5 1   
     6    4   25 1   
     7    4   26 1   
     8    5   11 1   
     9    6    7 1   
    10    6   27 1   
    11    7    9 1   
    12    8   28 1   
    13    9   10 1   
    14    9   29 1   
    15   10   30 1   
    16   11   31 1   
    17   12   13 1   
    18   12   32 1   
    19   13   14 1   
    20   13   23 1   
    21   14   15 1   
    22   15   22 1   
    23   16   17 1   
    24   16   21 1   
    25   17   18 1   
    26   17   33 1   
    27   18   34 1   
    28   19   20 1   
    29   20   35 1   
    30   21   36 1   
    31   22   23 1   
@<TRIPOS>SUBSTRUCTURE
     1 07R         1 TEMP              0 ****  ****    0 ROOT
