@<TRIPOS>MOLECULE
07R
   39    41     1     0     0
SMALL
bcc


@<TRIPOS>ATOM
      1 O01        -1.7660    0.4330    0.8590 o         1 07R     -0.311100
      2 C02        -0.7940    0.8800    0.2720 c         1 07R      0.502100
      3 N03         0.5890    0.4640    0.5810 n4        1 07R     -0.642800
      4 C04         0.7880    0.2140    2.0900 c3        1 07R      0.206100
      5 C05         2.1740   -0.2490    2.3020 ca        1 07R     -0.186300
      6 C06         3.2060    0.6970    2.3850 ca        1 07R     -0.147000
      7 C07         4.5100    0.2580    2.6600 ca        1 07R      0.153100
      8 O08         5.4680    1.2310    2.7080 oh        1 07R     -0.474100
      9 C09         4.7790   -1.1110    2.8560 ca        1 07R     -0.128000
     10 C10         3.7410   -2.0330    2.7660 ca        1 07R     -0.076000
     11 C11         2.4400   -1.6140    2.4790 ca        1 07R     -0.110000
     12 N12        -1.0340    1.9020   -0.8190 n4        1 07R     -0.561500
     13 C13        -0.6090    1.4200   -2.1180 cc        1 07R      0.176300
     14 N14         0.6460    0.8640   -2.2630 nd        1 07R     -0.672000
     15 C15         0.8330    0.5310   -3.5680 cd        1 07R      0.491800
     16 C16         2.0550   -0.0810   -4.0790 ca        1 07R     -0.153500
     17 C17         1.9760   -1.1000   -5.0400 ca        1 07R     -0.219800
     18 C18         3.1790   -1.6530   -5.5220 ca        1 07R      0.418200
     19 N19         4.3970   -1.2530   -5.1120 nb        1 07R     -0.606000
     20 C20         4.4550   -0.2690   -4.1950 ca        1 07R      0.418200
     21 C21         3.3160    0.3480   -3.6430 ca        1 07R     -0.219800
     22 C22        -0.2920    0.8440   -4.3950 cc        1 07R     -0.263400
     23 S23        -1.4990    1.5100   -3.5580 ss        1 07R      0.380700
     24 H1          1.2940    1.1500    0.2650 hn        1 07R      0.499300
     25 H2          0.0230   -0.5540    2.4030 hx        1 07R      0.124700
     26 H3          0.5850    1.1940    2.6080 hx        1 07R      0.124700
     27 H4          3.0170    1.7750    2.2800 ha        1 07R      0.153000
     28 H5          6.3090    0.8360    2.9960 ho        1 07R      0.456000
     29 H6          5.8050   -1.4450    3.0890 ha        1 07R      0.179000
     30 H7          3.9460   -3.1060    2.9280 ha        1 07R      0.180000
     31 H8          1.6290   -2.3570    2.4270 ha        1 07R      0.152000
     32 H9         -2.0540    2.0940   -0.8430 hn        1 07R      0.498800
     33 H10         1.0110   -1.4680   -5.4130 ha        1 07R      0.148500
     34 H11         3.1660   -2.4600   -6.2820 h4        1 07R      0.055600
     35 H12         5.4730    0.0450   -3.8910 h4        1 07R      0.055600
     36 H13         3.4290    1.1570   -2.9090 ha        1 07R      0.148500
     37 H14        -0.2860    0.6450   -5.4780 h4        1 07R      0.251000
     38 H032        0.7820   -0.4230    0.0740 hn        1 07R      0.499300
     39 H122       -0.5320    2.7800   -0.5960 hn        1 07R      0.498800
@<TRIPOS>BOND
     1    1    2 2   
     2    2    3 1   
     3    2   12 1   
     4    3    4 1   
     5    3   24 1   
     6    3   38 1   
     7    4    5 1   
     8    4   25 1   
     9    4   26 1   
    10    5    6 ar  
    11    5   11 ar  
    12    6    7 ar  
    13    6   27 1   
    14    7    8 1   
    15    7    9 ar  
    16    8   28 1   
    17    9   10 ar  
    18    9   29 1   
    19   10   11 ar  
    20   10   30 1   
    21   11   31 1   
    22   12   13 1   
    23   12   32 1   
    24   12   39 1   
    25   13   14 2   
    26   13   23 1   
    27   14   15 1   
    28   15   16 1   
    29   15   22 2   
    30   16   17 ar  
    31   16   21 ar  
    32   17   18 ar  
    33   17   33 1   
    34   18   19 ar  
    35   18   34 1   
    36   19   20 ar  
    37   20   21 ar  
    38   20   35 1   
    39   21   36 1   
    40   22   23 1   
    41   22   37 1   
@<TRIPOS>SUBSTRUCTURE
     1 07R         1 TEMP              0 ****  ****    0 ROOT
