@<TRIPOS>MOLECULE
07R
   37    39     1     0     0
SMALL
bcc


@<TRIPOS>ATOM
      1 O01        -1.3860   -1.4410   -0.1880 o         1 07R     -0.632100
      2 C02        -1.3070   -0.7110    0.8320 c         1 07R      0.746100
      3 N03        -2.3130   -0.6970    1.8160 n         1 07R     -0.515900
      4 C04        -3.5940   -1.2850    1.4970 c3        1 07R      0.119300
      5 C05        -4.5600   -0.3750    0.7920 ca        1 07R     -0.100300
      6 C06        -4.3890   -0.1210   -0.5710 ca        1 07R     -0.198000
      7 C07        -5.3040    0.7070   -1.2330 ca        1 07R      0.125100
      8 O08        -5.2010    1.0040   -2.5720 oh        1 07R     -0.496100
      9 C09        -6.3870    1.2820   -0.5450 ca        1 07R     -0.147000
     10 C10        -6.5390    1.0160    0.8110 ca        1 07R     -0.101000
     11 C11        -5.6320    0.1940    1.4820 ca        1 07R     -0.154000
     12 N12        -0.1690    0.1030    1.0200 n         1 07R     -0.517400
     13 C13         0.9820   -0.1150    0.2570 cc        1 07R      0.479300
     14 N14         2.1900    0.3980    0.5940 nd        1 07R     -0.675000
     15 C15         3.1140    0.0590   -0.3890 cd        1 07R      0.404800
     16 C16         4.5080    0.4800   -0.2990 ca        1 07R     -0.075500
     17 C17         5.5160   -0.2790   -0.9140 ca        1 07R     -0.226800
     18 C18         6.8460    0.1640   -0.8190 ca        1 07R      0.387200
     19 N19         7.2160    1.2820   -0.1650 nb        1 07R     -0.663000
     20 C20         6.2400    1.9980    0.4240 ca        1 07R      0.387200
     21 C21         4.8790    1.6450    0.3890 ca        1 07R     -0.226800
     22 C22         2.5910   -0.7010   -1.4380 cc        1 07R     -0.313400
     23 S23         0.9780   -1.0060   -1.2300 ss        1 07R      0.064700
     24 H1         -2.3620    0.1110    2.3990 hn        1 07R      0.299500
     25 H2         -3.4180   -2.1980    0.8550 h1        1 07R      0.081200
     26 H3         -4.0380   -1.6200    2.4790 h1        1 07R      0.081200
     27 H4         -3.5410   -0.5740   -1.1110 ha        1 07R      0.157000
     28 H5         -4.4260    0.5400   -2.9230 ho        1 07R      0.424000
     29 H6         -7.0930    1.9270   -1.0870 ha        1 07R      0.153000
     30 H7         -7.3850    1.4590    1.3590 ha        1 07R      0.137000
     31 H8         -5.7700   -0.0100    2.5540 ha        1 07R      0.133000
     32 H9         -0.0420    0.5760    1.8900 hn        1 07R      0.334500
     33 H10         5.2770   -1.2050   -1.4530 ha        1 07R      0.150500
     34 H11         7.6630   -0.4090   -1.2920 h4        1 07R      0.021600
     35 H12         6.5680    2.9090    0.9560 h4        1 07R      0.021600
     36 H13         4.1310    2.2710    0.8930 ha        1 07R      0.150500
     37 H14         3.1720   -1.0480   -2.2910 h4        1 07R      0.183000
@<TRIPOS>BOND
     1    1    2 2   
     2    2    3 1   
     3    2   12 1   
     4    3    4 1   
     5    3   24 1   
     6    4    5 1   
     7    4   25 1   
     8    4   26 1   
     9    5    6 ar  
    10    5   11 ar  
    11    6    7 ar  
    12    6   27 1   
    13    7    8 1   
    14    7    9 ar  
    15    8   28 1   
    16    9   10 ar  
    17    9   29 1   
    18   10   11 ar  
    19   10   30 1   
    20   11   31 1   
    21   12   13 1   
    22   12   32 1   
    23   13   14 2   
    24   13   23 1   
    25   14   15 1   
    26   15   16 1   
    27   15   22 2   
    28   16   17 ar  
    29   16   21 ar  
    30   17   18 ar  
    31   17   33 1   
    32   18   19 ar  
    33   18   34 1   
    34   19   20 ar  
    35   20   21 ar  
    36   20   35 1   
    37   21   36 1   
    38   22   23 1   
    39   22   37 1   
@<TRIPOS>SUBSTRUCTURE
     1 07R         1 TEMP              0 ****  ****    0 ROOT
