@<TRIPOS>MOLECULE
07R
   38    40     1     0     0
SMALL
bcc


@<TRIPOS>ATOM
      1 O01         0.7540    1.6970   -0.5500 o         1 07R     -0.436100
      2 C02         1.1550    0.5640   -0.2930 c         1 07R      0.626100
      3 N03         2.0980    0.5080    0.9140 ny        1 07R     -0.679800
      4 C04         1.4880   -0.2000    2.0870 c3        1 07R      0.175100
      5 C05         2.3460   -0.0540    3.2980 ca        1 07R     -0.152300
      6 C06         2.3650    1.1700    3.9720 ca        1 07R     -0.152000
      7 C07         3.1520    1.2960    5.1290 ca        1 07R      0.149100
      8 O08         3.1360    2.5230    5.7350 oh        1 07R     -0.479100
      9 C09         3.9030    0.2080    5.6080 ca        1 07R     -0.166000
     10 C10         3.8640   -1.0020    4.9220 ca        1 07R     -0.076000
     11 C11         3.0940   -1.1390    3.7650 ca        1 07R     -0.135000
     12 N12         0.7570   -0.6470   -0.8680 ns        1 07R     -0.422400
     13 C13         0.4280   -0.5930   -2.2480 cc        1 07R      0.316300
     14 N14         1.3340   -0.3330   -3.2270 nd        1 07R     -0.618000
     15 C15         0.6910   -0.3680   -4.4470 cd        1 07R      0.424800
     16 C16         1.3900   -0.1270   -5.7060 ca        1 07R     -0.106500
     17 C17         0.7150    0.4750   -6.7780 ca        1 07R     -0.221800
     18 C18         1.4160    0.6810   -7.9790 ca        1 07R      0.400200
     19 N19         2.7050    0.3340   -8.1590 nb        1 07R     -0.639000
     20 C20         3.3400   -0.2410   -7.1200 ca        1 07R      0.400200
     21 C21         2.7320   -0.4910   -5.8760 ca        1 07R     -0.221800
     22 C22        -0.6850   -0.6570   -4.3580 cc        1 07R     -0.264400
     23 S23        -1.1680   -0.8630   -2.8020 ss        1 07R      0.156700
     24 H1          2.9820    0.0590    0.6560 hn        1 07R      0.465800
     25 H2          0.4710    0.2600    2.2650 hx        1 07R      0.110200
     26 H3          1.3550   -1.2860    1.8160 hx        1 07R      0.110200
     27 H4          1.7640    2.0290    3.6370 ha        1 07R      0.157000
     28 H5          3.6770    2.4800    6.5400 ho        1 07R      0.442000
     29 H6          4.5100    0.3130    6.5200 ha        1 07R      0.162000
     30 H7          4.4450   -1.8620    5.2960 ha        1 07R      0.162000
     31 H8          3.0680   -2.1050    3.2400 ha        1 07R      0.142000
     32 H9          1.2940   -1.4620   -0.6260 hn        1 07R      0.325500
     33 H10        -0.3340    0.7880   -6.6880 ha        1 07R      0.148500
     34 H11         0.9190    1.1530   -8.8480 h4        1 07R      0.035600
     35 H12         4.3970   -0.5160   -7.2960 h4        1 07R      0.035600
     36 H13         3.3050   -0.9640   -5.0670 ha        1 07R      0.148500
     37 H14        -1.3400   -0.7390   -5.2290 h4        1 07R      0.211000
     38 H032        2.3030    1.4830    1.1860 hn        1 07R      0.465800
@<TRIPOS>BOND
     1    1    2 2   
     2    2    3 1   
     3    2   12 1   
     4    3    4 1   
     5    3   24 1   
     6    3   38 1   
     7    4    5 1   
     8    4   25 1   
     9    4   26 1   
    10    5    6 ar  
    11    5   11 ar  
    12    6    7 ar  
    13    6   27 1   
    14    7    8 1   
    15    7    9 ar  
    16    8   28 1   
    17    9   10 ar  
    18    9   29 1   
    19   10   11 ar  
    20   10   30 1   
    21   11   31 1   
    22   12   13 1   
    23   12   32 1   
    24   13   14 2   
    25   13   23 1   
    26   14   15 1   
    27   15   16 1   
    28   15   22 2   
    29   16   17 ar  
    30   16   21 ar  
    31   17   18 ar  
    32   17   33 1   
    33   18   19 ar  
    34   18   34 1   
    35   19   20 ar  
    36   20   21 ar  
    37   20   35 1   
    38   21   36 1   
    39   22   23 1   
    40   22   37 1   
@<TRIPOS>SUBSTRUCTURE
     1 07R         1 TEMP              0 ****  ****    0 ROOT
