@<TRIPOS>MOLECULE
07S
   61    65     1     0     0
SMALL
bcc


@<TRIPOS>ATOM
      1 C1         -1.6710   -1.7800    3.1900 ca        1 07S      0.433200
      2 C2         -1.2680   -0.4300    3.1400 ca        1 07S     -0.236300
      3 C3          0.0370   -0.1100    3.5030 ca        1 07S     -0.074000
      4 C4          0.9090   -1.1380    3.9070 ca        1 07S     -0.181300
      5 C5          0.4030   -2.4620    3.9240 ca        1 07S      0.441200
      6 N6         -0.8540   -2.7800    3.5750 nb        1 07S     -0.647000
      7 C11         2.2660   -0.8680    4.2890 cc        1 07S     -0.116400
      8 S12         2.8010    0.5600    4.9490 ss        1 07S      0.208700
      9 C13         4.3900   -0.0430    5.0400 cc        1 07S      0.293300
     10 N14         4.5410   -1.3290    4.5990 nd        1 07S     -0.586000
     11 C15         3.3370   -1.7870    4.1740 cd        1 07S      0.342200
     12 N16         5.5370    0.7060    5.5280 n4        1 07S     -0.681400
     13 C17         5.2890    1.3350    6.8560 ca        1 07S      0.501200
     14 N18         4.2940    2.2600    6.9030 nb        1 07S     -0.724000
     15 C19         4.0900    2.8330    8.1040 ca        1 07S      0.468200
     16 C20         4.8230    2.5370    9.2560 ca        1 07S     -0.291300
     17 C21         5.8750    1.5770    9.2020 ca        1 07S      0.251600
     18 C22         6.0870    0.9390    7.9380 ca        1 07S     -0.293300
     19 N26         6.6850    1.3130   10.2860 nh        1 07S     -0.630000
     20 C27         6.2600    1.7940   11.5890 c3        1 07S      0.201300
     21 C28         7.2470    1.5370   12.7450 c3        1 07S      0.156800
     22 N29         7.8200    0.2020   12.6940 n3        1 07S     -0.719600
     23 C30         8.5160    0.0040   11.4350 c3        1 07S      0.156800
     24 C31         7.5810    0.1710   10.2230 c3        1 07S      0.201300
     25 C40         8.6110   -0.1140   13.8710 c3        1 07S      0.109800
     26 C41         8.9120   -1.6120   14.0300 c         1 07S      0.664100
     27 N44         9.3510   -2.0530   15.2690 n         1 07S     -0.468800
     28 C45         9.4530   -3.4790   15.5140 c3        1 07S      0.055500
     29 C46        10.5000   -3.8300   16.5770 c3        1 07S      0.115400
     30 O47        10.3320   -3.0460   17.7520 os        1 07S     -0.400600
     31 C48        10.4230   -1.6560   17.4800 c3        1 07S      0.115400
     32 C49         9.3910   -1.2010   16.4340 c3        1 07S      0.055500
     33 O58         8.8290   -2.4170   13.0810 o         1 07S     -0.606100
     34 H1         -2.6980   -2.0790    2.9070 h4        1 07S      0.045100
     35 H2         -1.9740    0.3480    2.8160 ha        1 07S      0.163000
     36 H3          0.3850    0.9340    3.4640 ha        1 07S      0.139000
     37 H4          1.0430   -3.3070    4.2410 h4        1 07S      0.033100
     38 H5          3.2620   -2.8060    3.7670 h4        1 07S      0.079100
     39 H6          5.7550    1.4430    4.8410 hn        1 07S      0.472300
     40 H7          3.2740    3.5830    8.1280 h4        1 07S      0.054100
     41 H8          4.5640    3.0570   10.1900 ha        1 07S      0.174000
     42 H9          6.8460    0.1510    7.8250 ha        1 07S      0.166000
     43 H10         5.2670    1.3270   11.8530 h1        1 07S      0.056950
     44 H11         6.1260    2.9130   11.5260 h1        1 07S      0.056950
     45 H12         6.6650    1.6500   13.7030 h1        1 07S      0.062450
     46 H13         8.0440    2.3380   12.7250 h1        1 07S      0.062450
     47 H15         8.9140   -1.0520   11.4030 h1        1 07S      0.062450
     48 H16         9.3860    0.7160   11.3220 h1        1 07S      0.062450
     49 H17         8.2470    0.2940    9.3200 h1        1 07S      0.056950
     50 H18         6.9760   -0.7740   10.1010 h1        1 07S      0.056950
     51 H19         8.0140    0.2270   14.7680 h1        1 07S      0.062200
     52 H20         9.6040    0.4260   13.8750 h1        1 07S      0.062200
     53 H21         8.4480   -3.8620   15.8540 h1        1 07S      0.058200
     54 H22         9.7220   -3.9980   14.5500 h1        1 07S      0.058200
     55 H23        11.5390   -3.6950   16.1770 h1        1 07S      0.062700
     56 H24        10.3530   -4.8880   16.9220 h1        1 07S      0.062700
     57 H25        11.4620   -1.4050   17.1390 h1        1 07S      0.062700
     58 H26        10.2080   -1.1610   18.4630 h1        1 07S      0.062700
     59 H27         9.6640   -0.1510   16.1330 h1        1 07S      0.058200
     60 H28         8.3720   -1.1800   16.9190 h1        1 07S      0.058200
     61 H162        6.3530    0.0790    5.6130 hn        1 07S      0.472300
@<TRIPOS>BOND
     1    1    2 ar  
     2    1    6 ar  
     3    1   34 1   
     4    2    3 ar  
     5    2   35 1   
     6    3    4 ar  
     7    3   36 1   
     8    4    5 ar  
     9    4    7 1   
    10    5    6 ar  
    11    5   37 1   
    12    7    8 1   
    13    7   11 2   
    14    8    9 1   
    15    9   10 2   
    16    9   12 1   
    17   10   11 1   
    18   11   38 1   
    19   12   13 1   
    20   12   39 1   
    21   12   61 1   
    22   13   14 ar  
    23   13   18 ar  
    24   14   15 ar  
    25   15   16 ar  
    26   15   40 1   
    27   16   17 ar  
    28   16   41 1   
    29   17   18 ar  
    30   17   19 1   
    31   18   42 1   
    32   19   20 1   
    33   19   24 1   
    34   20   21 1   
    35   20   43 1   
    36   20   44 1   
    37   21   22 1   
    38   21   45 1   
    39   21   46 1   
    40   22   23 1   
    41   22   25 1   
    42   23   24 1   
    43   23   47 1   
    44   23   48 1   
    45   24   49 1   
    46   24   50 1   
    47   25   26 1   
    48   25   51 1   
    49   25   52 1   
    50   26   27 1   
    51   26   33 2   
    52   27   28 1   
    53   27   32 1   
    54   28   29 1   
    55   28   53 1   
    56   28   54 1   
    57   29   30 1   
    58   29   55 1   
    59   29   56 1   
    60   30   31 1   
    61   31   32 1   
    62   31   57 1   
    63   31   58 1   
    64   32   59 1   
    65   32   60 1   
@<TRIPOS>SUBSTRUCTURE
     1 07S         1 TEMP              0 ****  ****    0 ROOT
