@<TRIPOS>MOLECULE
07S
   60    64     1     0     0
SMALL
bcc


@<TRIPOS>ATOM
      1 C1         10.5660    0.9130   -0.4140 ca        1 07S      0.386200
      2 C2          9.6530    1.3710    0.5530 ca        1 07S     -0.238300
      3 C3          8.3570    0.8600    0.5440 ca        1 07S     -0.101000
      4 C4          7.9990   -0.0920   -0.4270 ca        1 07S     -0.096300
      5 C5          8.9950   -0.4810   -1.3570 ca        1 07S      0.401200
      6 N6         10.2490    0.0030   -1.3560 nb        1 07S     -0.660000
      7 C11         6.6780   -0.6490   -0.4780 cc        1 07S     -0.222400
      8 S12         5.3190    0.0850    0.1900 ss        1 07S      0.034700
      9 C13         4.3180   -1.2190   -0.3420 cc        1 07S      0.606300
     10 N14         4.9920   -2.1890   -1.0240 nd        1 07S     -0.700000
     11 C15         6.3190   -1.8550   -1.0870 cd        1 07S      0.374200
     12 N16         2.9630   -1.3340   -0.0400 nh        1 07S     -0.807600
     13 C17         2.1470   -0.2250    0.2480 ca        1 07S      0.662200
     14 N18         2.7270    0.9720    0.5820 nb        1 07S     -0.751000
     15 C19         1.8990    1.9730    0.9120 ca        1 07S      0.464200
     16 C20         0.5030    1.8880    0.9350 ca        1 07S     -0.343300
     17 C21        -0.1130    0.6560    0.5990 ca        1 07S      0.226600
     18 C22         0.7360   -0.4150    0.2390 ca        1 07S     -0.336300
     19 N26        -1.5030    0.4630    0.6940 nh        1 07S     -0.645000
     20 C27        -2.2920    1.5900    1.1600 c3        1 07S      0.193800
     21 C28        -3.7580    1.2140    1.4600 c3        1 07S      0.158300
     22 N29        -4.3930    0.5000    0.3590 n3        1 07S     -0.716600
     23 C30        -3.6080   -0.6530   -0.0560 c3        1 07S      0.158300
     24 C31        -2.1420   -0.2940   -0.3700 c3        1 07S      0.193800
     25 C40        -5.7790    0.1830    0.6570 c3        1 07S      0.111800
     26 C41        -6.6120   -0.1930   -0.5760 c         1 07S      0.664100
     27 N44        -7.9970   -0.1940   -0.4380 n         1 07S     -0.478800
     28 C45        -8.8200   -0.3320   -1.6230 c3        1 07S      0.058000
     29 C46       -10.1940   -0.9440   -1.3270 c3        1 07S      0.115900
     30 O47       -10.8410   -0.2830   -0.2450 os        1 07S     -0.408600
     31 C48       -10.0610   -0.3170    0.9420 c3        1 07S      0.115900
     32 C49        -8.6660    0.2960    0.7410 c3        1 07S      0.058000
     33 O58        -6.1080   -0.5450   -1.6580 o         1 07S     -0.592100
     34 H1         11.6030    1.2910   -0.4410 h4        1 07S      0.022100
     35 H2          9.9610    2.1150    1.2990 ha        1 07S      0.143000
     36 H3          7.6190    1.1930    1.2900 ha        1 07S      0.139000
     37 H4          8.7650   -1.2200   -2.1460 h4        1 07S      0.024100
     38 H5          7.0040   -2.5440   -1.5980 h4        1 07S      0.043100
     39 H6          2.4870   -2.1250   -0.4260 hn        1 07S      0.452800
     40 H7          2.4030    2.9240    1.1720 h4        1 07S      0.023100
     41 H8         -0.0800    2.7780    1.2040 ha        1 07S      0.147000
     42 H9          0.3240   -1.3990   -0.0230 ha        1 07S      0.148000
     43 H10        -1.8450    1.9630    2.1240 h1        1 07S      0.051200
     44 H11        -2.2800    2.4330    0.4090 h1        1 07S      0.051200
     45 H12        -3.7900    0.6190    2.4190 h1        1 07S      0.050200
     46 H13        -4.3190    2.1760    1.6270 h1        1 07S      0.050200
     47 H15        -3.6220   -1.4660    0.7280 h1        1 07S      0.050200
     48 H16        -4.0650   -1.0620   -1.0020 h1        1 07S      0.050200
     49 H17        -2.1090    0.2810   -1.3410 h1        1 07S      0.051200
     50 H18        -1.5930   -1.2650   -0.5180 h1        1 07S      0.051200
     51 H19        -5.8730   -0.6740    1.3900 h1        1 07S      0.054700
     52 H20        -6.2360    1.1040    1.1250 h1        1 07S      0.054700
     53 H21        -8.9710    0.6860   -2.0870 h1        1 07S      0.056700
     54 H22        -8.2820   -0.9820   -2.3690 h1        1 07S      0.056700
     55 H23       -10.8790   -0.7870   -2.2010 h1        1 07S      0.058200
     56 H24       -10.1040   -2.0390   -1.0990 h1        1 07S      0.058200
     57 H25       -10.6430    0.2980    1.6780 h1        1 07S      0.058200
     58 H26        -9.9750   -1.3750    1.3040 h1        1 07S      0.058200
     59 H27        -8.0590    0.0480    1.6570 h1        1 07S      0.056700
     60 H28        -8.7710    1.4190    0.6790 h1        1 07S      0.056700
@<TRIPOS>BOND
     1    1    2 ar  
     2    1    6 ar  
     3    1   34 1   
     4    2    3 ar  
     5    2   35 1   
     6    3    4 ar  
     7    3   36 1   
     8    4    5 ar  
     9    4    7 1   
    10    5    6 ar  
    11    5   37 1   
    12    7    8 1   
    13    7   11 2   
    14    8    9 1   
    15    9   10 2   
    16    9   12 1   
    17   10   11 1   
    18   11   38 1   
    19   12   13 1   
    20   12   39 1   
    21   13   14 ar  
    22   13   18 ar  
    23   14   15 ar  
    24   15   16 ar  
    25   15   40 1   
    26   16   17 ar  
    27   16   41 1   
    28   17   18 ar  
    29   17   19 1   
    30   18   42 1   
    31   19   20 1   
    32   19   24 1   
    33   20   21 1   
    34   20   43 1   
    35   20   44 1   
    36   21   22 1   
    37   21   45 1   
    38   21   46 1   
    39   22   23 1   
    40   22   25 1   
    41   23   24 1   
    42   23   47 1   
    43   23   48 1   
    44   24   49 1   
    45   24   50 1   
    46   25   26 1   
    47   25   51 1   
    48   25   52 1   
    49   26   27 1   
    50   26   33 2   
    51   27   28 1   
    52   27   32 1   
    53   28   29 1   
    54   28   53 1   
    55   28   54 1   
    56   29   30 1   
    57   29   55 1   
    58   29   56 1   
    59   30   31 1   
    60   31   32 1   
    61   31   57 1   
    62   31   58 1   
    63   32   59 1   
    64   32   60 1   
@<TRIPOS>SUBSTRUCTURE
     1 07S         1 TEMP              0 ****  ****    0 ROOT
