@<TRIPOS>MOLECULE
07S
   60    64     1     0     0
SMALL
bcc


@<TRIPOS>ATOM
      1 C1         -1.1590    0.6720    1.0600 ca        1 07S      0.386200
      2 C2         -0.3310    1.6230    1.6840 ca        1 07S     -0.238300
      3 C3          0.6500    1.1770    2.5670 ca        1 07S     -0.101000
      4 C4          0.7820   -0.2010    2.8100 ca        1 07S     -0.096300
      5 C5         -0.1060   -1.0720    2.1310 ca        1 07S      0.401200
      6 N6         -1.0540   -0.6530    1.2750 nb        1 07S     -0.660000
      7 C11         1.7780   -0.7110    3.7100 cc        1 07S     -0.222400
      8 S12         2.4970    0.1960    4.9310 ss        1 07S      0.034700
      9 C13         3.4510   -1.1610    5.4150 cc        1 07S      0.605300
     10 N14         3.2230   -2.2860    4.6790 nd        1 07S     -0.699000
     11 C15         2.2830   -2.0140    3.7200 cd        1 07S      0.374200
     12 N16         4.4300   -1.1100    6.4060 nu        1 07S     -0.806600
     13 C17         4.4030   -0.1760    7.4580 ca        1 07S      0.664200
     14 N18         3.6080    0.9340    7.3560 nb        1 07S     -0.752000
     15 C19         3.6760    1.8210    8.3620 ca        1 07S      0.460200
     16 C20         4.4930    1.6990    9.4880 ca        1 07S     -0.325300
     17 C21         5.3260    0.5550    9.6080 ca        1 07S      0.226600
     18 C22         5.2580   -0.4050    8.5750 ca        1 07S     -0.351300
     19 N26         6.2320    0.4390   10.6760 nh        1 07S     -0.645000
     20 C27         5.7370    0.7840   11.9980 c3        1 07S      0.193300
     21 C28         6.8580    0.8740   13.0530 c3        1 07S      0.158300
     22 N29         7.7100   -0.3080   13.0670 n3        1 07S     -0.717600
     23 C30         8.2320   -0.6090   11.7420 c3        1 07S      0.158300
     24 C31         7.1280   -0.7050   10.6710 c3        1 07S      0.193300
     25 C40         8.7390   -0.2140   14.0890 c3        1 07S      0.111800
     26 C41         9.3970   -1.5570   14.4350 c         1 07S      0.664100
     27 N44        10.1470   -1.6220   15.6060 n         1 07S     -0.478800
     28 C45        10.6020   -2.9130   16.0780 c3        1 07S      0.058000
     29 C46        11.8730   -2.8230   16.9300 c3        1 07S      0.115900
     30 O47        11.7480   -1.8420   17.9550 os        1 07S     -0.407600
     31 C48        11.4600   -0.5550   17.4280 c3        1 07S      0.115900
     32 C49        10.1850   -0.5480   16.5690 c3        1 07S      0.058000
     33 O58         9.3370   -2.5570   13.6960 o         1 07S     -0.592100
     34 H1         -1.9470    0.9840    0.3520 h4        1 07S      0.022100
     35 H2         -0.4580    2.6930    1.4750 ha        1 07S      0.143000
     36 H3          1.3180    1.8930    3.0690 ha        1 07S      0.139000
     37 H4         -0.0510   -2.1640    2.2910 h4        1 07S      0.024100
     38 H5          1.9950   -2.8190    3.0330 h4        1 07S      0.043100
     39 H6          4.8960   -1.9710    6.6130 hn        1 07S      0.452800
     40 H7          3.0190    2.7040    8.2430 h4        1 07S      0.024100
     41 H8          4.4890    2.4950   10.2420 ha        1 07S      0.147000
     42 H9          5.8550   -1.3260    8.6170 ha        1 07S      0.148000
     43 H10         4.9740    0.0270   12.3450 h1        1 07S      0.051200
     44 H11         5.2390    1.7920   11.9590 h1        1 07S      0.051200
     45 H12         6.3610    0.9630   14.0600 h1        1 07S      0.049950
     46 H13         7.4520    1.8170   12.8730 h1        1 07S      0.049950
     47 H15         8.7430   -1.6130   11.7900 h1        1 07S      0.049950
     48 H16         8.9890    0.1610   11.4120 h1        1 07S      0.049950
     49 H17         7.6430   -0.7490    9.6700 h1        1 07S      0.051200
     50 H18         6.5570   -1.6670   10.8240 h1        1 07S      0.051200
     51 H19         9.5710    0.4920   13.7940 h1        1 07S      0.054700
     52 H20         8.2440    0.1870   15.0210 h1        1 07S      0.054700
     53 H21        10.8030   -3.5780   15.1900 h1        1 07S      0.056700
     54 H22         9.7870   -3.3890   16.6960 h1        1 07S      0.056700
     55 H23        12.0330   -3.7860   17.4820 h1        1 07S      0.058200
     56 H24        12.7670   -2.5900   16.2930 h1        1 07S      0.058200
     57 H25        11.3120    0.0920   18.3310 h1        1 07S      0.058200
     58 H26        12.3370   -0.1900   16.8300 h1        1 07S      0.058200
     59 H27         9.2900   -0.6200   17.2530 h1        1 07S      0.056700
     60 H28        10.1470    0.4440   16.0380 h1        1 07S      0.056700
@<TRIPOS>BOND
     1    1    2 ar  
     2    1    6 ar  
     3    1   34 1   
     4    2    3 ar  
     5    2   35 1   
     6    3    4 ar  
     7    3   36 1   
     8    4    5 ar  
     9    4    7 1   
    10    5    6 ar  
    11    5   37 1   
    12    7    8 1   
    13    7   11 2   
    14    8    9 1   
    15    9   10 2   
    16    9   12 1   
    17   10   11 1   
    18   11   38 1   
    19   12   13 1   
    20   12   39 1   
    21   13   14 ar  
    22   13   18 ar  
    23   14   15 ar  
    24   15   16 ar  
    25   15   40 1   
    26   16   17 ar  
    27   16   41 1   
    28   17   18 ar  
    29   17   19 1   
    30   18   42 1   
    31   19   20 1   
    32   19   24 1   
    33   20   21 1   
    34   20   43 1   
    35   20   44 1   
    36   21   22 1   
    37   21   45 1   
    38   21   46 1   
    39   22   23 1   
    40   22   25 1   
    41   23   24 1   
    42   23   47 1   
    43   23   48 1   
    44   24   49 1   
    45   24   50 1   
    46   25   26 1   
    47   25   51 1   
    48   25   52 1   
    49   26   27 1   
    50   26   33 2   
    51   27   28 1   
    52   27   32 1   
    53   28   29 1   
    54   28   53 1   
    55   28   54 1   
    56   29   30 1   
    57   29   55 1   
    58   29   56 1   
    59   30   31 1   
    60   31   32 1   
    61   31   57 1   
    62   31   58 1   
    63   32   59 1   
    64   32   60 1   
@<TRIPOS>SUBSTRUCTURE
     1 07S         1 TEMP              0 ****  ****    0 ROOT
