@<TRIPOS>MOLECULE
07S
   60    64     1     0     0
SMALL
bcc


@<TRIPOS>ATOM
      1 C1         -1.3650    0.3980    1.1910 ca        1 07S      0.386200
      2 C2         -0.9160    1.3740    2.0990 ca        1 07S     -0.238300
      3 C3          0.2140    1.1020    2.8680 ca        1 07S     -0.101000
      4 C4          0.8680   -0.1330    2.7160 ca        1 07S     -0.096300
      5 C5          0.3290   -1.0460    1.7760 ca        1 07S      0.401200
      6 N6         -0.7580   -0.7930    1.0270 nb        1 07S     -0.660000
      7 C11         2.0360   -0.4610    3.4840 cc        1 07S     -0.222400
      8 S12         2.4410    0.2730    4.9430 ss        1 07S      0.034700
      9 C13         3.8600   -0.7050    5.0730 cc        1 07S      0.606300
     10 N14         4.0220   -1.5820    4.0410 nd        1 07S     -0.700000
     11 C15         2.9900   -1.4270    3.1530 cd        1 07S      0.374200
     12 N16         4.8090   -0.5690    6.0840 nh        1 07S     -0.807600
     13 C17         4.5060   -0.0390    7.3520 ca        1 07S      0.662200
     14 N18         3.3520    0.6820    7.5240 nb        1 07S     -0.751000
     15 C19         3.1510    1.2180    8.7360 ca        1 07S      0.464200
     16 C20         4.0190    1.0930    9.8250 ca        1 07S     -0.343300
     17 C21         5.2200    0.3560    9.6620 ca        1 07S      0.226600
     18 C22         5.4540   -0.2280    8.3970 ca        1 07S     -0.336300
     19 N26         6.1880    0.2680   10.6780 nh        1 07S     -0.645000
     20 C27         5.9070    0.9730   11.9160 c3        1 07S      0.193800
     21 C28         7.1180    1.0190   12.8710 c3        1 07S      0.158300
     22 N29         7.7090   -0.2940   13.0940 n3        1 07S     -0.716600
     23 C30         8.0280   -0.9600   11.8400 c3        1 07S      0.158300
     24 C31         6.8270   -1.0240   10.8770 c3        1 07S      0.193800
     25 C40         8.8280   -0.2260   14.0170 c3        1 07S      0.111800
     26 C41         9.2340   -1.5840   14.6070 c         1 07S      0.664100
     27 N44        10.0640   -1.5760   15.7250 n         1 07S     -0.478800
     28 C45        10.2940   -2.8160   16.4380 c3        1 07S      0.058000
     29 C46        11.6330   -2.8360   17.1840 c3        1 07S      0.115900
     30 O47        11.8050   -1.6690   17.9810 os        1 07S     -0.407600
     31 C48        11.7320   -0.4800   17.2080 c3        1 07S      0.115900
     32 C49        10.4080   -0.3680   16.4340 c3        1 07S      0.058000
     33 O58         8.9040   -2.6730   14.1030 o         1 07S     -0.592100
     34 H1         -2.2550    0.5750    0.5620 h4        1 07S      0.022100
     35 H2         -1.4470    2.3300    2.1960 ha        1 07S      0.143000
     36 H3          0.5950    1.8450    3.5840 ha        1 07S      0.139000
     37 H4          0.7990   -2.0340    1.6230 h4        1 07S      0.024100
     38 H5          2.9800   -2.0570    2.2550 h4        1 07S      0.043100
     39 H6          5.5760   -1.2120    6.0620 hn        1 07S      0.452800
     40 H7          2.2090    1.7900    8.8380 h4        1 07S      0.023100
     41 H8          3.7460    1.5600   10.7800 ha        1 07S      0.147000
     42 H9          6.3690   -0.8030    8.2010 ha        1 07S      0.148000
     43 H10         5.0340    0.5080   12.4600 h1        1 07S      0.051450
     44 H11         5.6450    2.0400   11.6660 h1        1 07S      0.051450
     45 H12         7.8720    1.7540   12.4630 h1        1 07S      0.050200
     46 H13         6.7470    1.4120   13.8590 h1        1 07S      0.050200
     47 H15         8.8890   -0.4540   11.3120 h1        1 07S      0.050200
     48 H16         8.3290   -2.0210   12.0750 h1        1 07S      0.050200
     49 H17         7.2170   -1.4010    9.8920 h1        1 07S      0.051450
     50 H18         6.0840   -1.7760   11.2730 h1        1 07S      0.051450
     51 H19         8.5160    0.4490   14.8670 h1        1 07S      0.054700
     52 H20         9.7540    0.2110   13.5360 h1        1 07S      0.054700
     53 H21         9.4630   -2.9730   17.1840 h1        1 07S      0.056700
     54 H22        10.2730   -3.6700   15.7030 h1        1 07S      0.056700
     55 H23        12.4900   -2.9320   16.4670 h1        1 07S      0.058200
     56 H24        11.6480   -3.6820   17.9200 h1        1 07S      0.058200
     57 H25        11.8030    0.3500   17.9590 h1        1 07S      0.058200
     58 H26        12.6030   -0.4380   16.5010 h1        1 07S      0.058200
     59 H27         9.5860   -0.1080   17.1630 h1        1 07S      0.056700
     60 H28        10.5200    0.4850   15.7060 h1        1 07S      0.056700
@<TRIPOS>BOND
     1    1    2 ar  
     2    1    6 ar  
     3    1   34 1   
     4    2    3 ar  
     5    2   35 1   
     6    3    4 ar  
     7    3   36 1   
     8    4    5 ar  
     9    4    7 1   
    10    5    6 ar  
    11    5   37 1   
    12    7    8 1   
    13    7   11 2   
    14    8    9 1   
    15    9   10 2   
    16    9   12 1   
    17   10   11 1   
    18   11   38 1   
    19   12   13 1   
    20   12   39 1   
    21   13   14 ar  
    22   13   18 ar  
    23   14   15 ar  
    24   15   16 ar  
    25   15   40 1   
    26   16   17 ar  
    27   16   41 1   
    28   17   18 ar  
    29   17   19 1   
    30   18   42 1   
    31   19   20 1   
    32   19   24 1   
    33   20   21 1   
    34   20   43 1   
    35   20   44 1   
    36   21   22 1   
    37   21   45 1   
    38   21   46 1   
    39   22   23 1   
    40   22   25 1   
    41   23   24 1   
    42   23   47 1   
    43   23   48 1   
    44   24   49 1   
    45   24   50 1   
    46   25   26 1   
    47   25   51 1   
    48   25   52 1   
    49   26   27 1   
    50   26   33 2   
    51   27   28 1   
    52   27   32 1   
    53   28   29 1   
    54   28   53 1   
    55   28   54 1   
    56   29   30 1   
    57   29   55 1   
    58   29   56 1   
    59   30   31 1   
    60   31   32 1   
    61   31   57 1   
    62   31   58 1   
    63   32   59 1   
    64   32   60 1   
@<TRIPOS>SUBSTRUCTURE
     1 07S         1 TEMP              0 ****  ****    0 ROOT
