@<TRIPOS>MOLECULE
07S
   60    55     1     0     0
SMALL
bcc


@<TRIPOS>ATOM
      1 C1         -6.9640    7.9930   -5.0590 c1        1 07S     -0.079000
      2 C2         -6.9220    7.4860   -3.8000 c1        1 07S     -0.137000
      3 C3         -6.2880    6.3010   -3.5600 c1        1 07S     -0.137000
      4 C4         -5.6980    5.6270   -4.5810 c1        1 07S     -0.031000
      5 C5         -5.7390    6.1380   -5.8580 c1        1 07S     -0.064000
      6 N6         -6.3670    7.3110   -6.0960 n1        1 07S     -0.134000
      7 C11        -4.9860    4.2920   -4.3100 c1        1 07S     -0.426000
      8 S12        -3.5400    4.1220   -3.9240 ss        1 07S      0.621000
      9 C13        -3.2660    2.6130   -3.8120 c1        1 07S     -0.168000
     10 N14        -4.4540    1.9360   -4.1080 n2        1 07S     -0.174000
     11 C15        -5.5610    2.9950   -4.4290 c1        1 07S     -0.092000
     12 N16        -1.9820    1.9980   -3.5290 n2        1 07S     -0.214000
     13 C17        -1.8930    0.9460   -2.5770 c2        1 07S      0.137000
     14 N18        -2.9530    0.0980   -2.4030 n2        1 07S     -0.224000
     15 C19        -2.8300   -1.0030   -1.6010 c1        1 07S     -0.002000
     16 C20        -1.6270   -1.2660   -0.9590 c1        1 07S     -0.273000
     17 C21        -0.5540   -0.4140   -1.1300 c1        1 07S      0.143000
     18 C22        -0.6810    0.6900   -1.9350 c2        1 07S     -0.271000
     19 N26         0.7010   -0.6390   -0.3760 n2        1 07S     -0.248000
     20 C27         0.4610   -0.4540    1.0270 c3        1 07S     -0.043500
     21 C28         1.6870   -0.8080    1.8770 c3        1 07S     -0.078500
     22 N29         2.1920   -2.0870    1.5770 n3        1 07S     -0.242000
     23 C30         2.4270   -2.2740    0.1740 c3        1 07S     -0.078500
     24 C31         1.2080   -1.9160   -0.6760 c3        1 07S     -0.043500
     25 C40         3.4370   -2.3070    2.3170 c3        1 07S     -0.075000
     26 C41         3.1770   -3.2940    3.4560 c1        1 07S      0.308000
     27 N44         4.1630   -3.4780    4.5030 n2        1 07S     -0.337000
     28 C45         4.0240   -4.4460    5.5190 c3        1 07S     -0.058000
     29 C46         5.2640   -5.3340    5.6470 c3        1 07S     -0.034500
     30 O47         6.4940   -4.5520    5.7650 os        1 07S     -0.264000
     31 C48         6.6200   -3.5810    4.7310 c3        1 07S     -0.034500
     32 C49         5.3640   -2.6990    4.6050 c3        1 07S     -0.058000
     33 O58         2.1740   -3.9980    3.4350 o         1 07S     -0.354000
     34 H1         -7.4080    8.8210   -5.2240 ha        1 07S      0.159000
     35 H2         -7.3610    7.9860   -3.0380 ha        1 07S      0.141000
     36 H3         -6.2600    5.9520   -2.6860 ha        1 07S      0.141000
     37 H4         -5.3190    5.6580   -6.5830 ha        1 07S      0.161000
     38 H5         -6.4740    2.8010   -4.6660 DU        1 07S      0.180000
     39 H6         -1.2230    2.3130   -3.9340 hn        1 07S      0.245000
     40 H7         -3.6000   -1.6150   -1.4780 ha        1 07S      0.161000
     41 H8         -1.5400   -2.0630   -0.3790 ha        1 07S      0.150000
     42 H9          0.0930    1.3080   -2.0630 ha        1 07S      0.146000
     43 H10        -0.3010   -1.0380    1.3010 h1        1 07S      0.090500
     44 H11         0.2170    0.4870    1.1900 h1        1 07S      0.090500
     45 H12         1.4400   -0.7750    2.8220 h1        1 07S      0.089250
     46 H13         2.4040   -0.1300    1.7060 h1        1 07S      0.089250
     47 H15         2.6630   -3.2510    0.0100 h1        1 07S      0.089250
     48 H16         3.2020   -1.7000   -0.1070 h1        1 07S      0.089250
     49 H17         1.4590   -1.9380   -1.5950 h1        1 07S      0.090500
     50 H18         0.4880   -2.5990   -0.5180 h1        1 07S      0.090500
     51 H19         4.1320   -2.6830    1.6980 h1        1 07S      0.094000
     52 H20         3.7590   -1.4400    2.6930 h1        1 07S      0.094000
     53 H21         3.8720   -4.0070    6.3450 h1        1 07S      0.096000
     54 H22         3.2350   -5.0210    5.3080 h1        1 07S      0.096000
     55 H23         5.1690   -5.9000    6.4490 h1        1 07S      0.097500
     56 H24         5.3310   -5.9410    4.8130 h1        1 07S      0.097500
     57 H25         7.4180   -2.9890    4.9280 h1        1 07S      0.097500
     58 H26         6.7640   -4.0240    3.9160 h1        1 07S      0.097500
     59 H27         5.2990   -2.1100    5.4180 h1        1 07S      0.096000
     60 H28         5.4530   -2.0990    3.7620 h1        1 07S      0.096000
@<TRIPOS>BOND
     1    1    6 1   
     2    1   34 1   
     3    2    3 1   
     4    2   35 1   
     5    3   36 1   
     6    4    5 1   
     7    5   37 1   
     8    7    8 1   
     9    7   11 1   
    10    8    9 1   
    11    9   10 1   
    12   10   11 1   
    13   12   13 1   
    14   12   39 1   
    15   13   14 1   
    16   13   18 1   
    17   14   15 1   
    18   15   40 1   
    19   16   17 1   
    20   16   41 1   
    21   17   18 1   
    22   18   42 1   
    23   19   20 1   
    24   19   24 1   
    25   20   21 1   
    26   20   43 1   
    27   20   44 1   
    28   21   22 1   
    29   21   45 1   
    30   21   46 1   
    31   22   23 1   
    32   22   25 1   
    33   23   24 1   
    34   23   47 1   
    35   23   48 1   
    36   24   49 1   
    37   24   50 1   
    38   25   26 1   
    39   25   51 1   
    40   25   52 1   
    41   26   33 1   
    42   27   28 1   
    43   27   32 1   
    44   28   29 1   
    45   28   53 1   
    46   28   54 1   
    47   29   30 1   
    48   29   55 1   
    49   29   56 1   
    50   30   31 1   
    51   31   32 1   
    52   31   57 1   
    53   31   58 1   
    54   32   59 1   
    55   32   60 1   
@<TRIPOS>SUBSTRUCTURE
     1 07S         1 TEMP              0 ****  ****    0 ROOT
