@<TRIPOS>MOLECULE
07T
   42    45     1     0     0
SMALL
bcc


@<TRIPOS>ATOM
      1 OAD         0.0270    0.2770    0.0110 o         1 07T     -0.688500
      2 CAR         1.2720    0.1780    0.0800 c         1 07T      0.708100
      3 CAV         2.0490    0.0960    1.3150 cc        1 07T     -0.126900
      4 NAW         1.6020    0.0380    2.6350 na        1 07T     -0.011100
      5 CAA         0.2550   -0.1180    3.0840 c3        1 07T      0.011600
      6 CAT         2.7400   -0.0230    3.4340 cc        1 07T     -0.060300
      7 CAK         3.0540   -0.0970    4.8140 cc        1 07T     -0.088000
      8 CAQ         4.4340   -0.1020    4.9930 cd        1 07T     -0.164600
      9 SAY         5.0970   -0.0840    6.5620 sx        1 07T      0.384400
     10 CAB         4.7080   -1.6840    7.1110 c3        1 07T     -0.139800
     11 OAE         6.5690   -0.0710    6.3860 o         1 07T     -0.502200
     12 SAN         5.2800   -0.0260    3.5550 ss        1 07T      0.269200
     13 CAU         3.9420    0.0260    2.6110 cd        1 07T     -0.152100
     14 CAS         3.4790    0.0980    1.2680 cd        1 07T     -0.131900
     15 CAJ         4.0940    0.1530   -0.0240 cd        1 07T      0.429800
     16 NAM         3.3970    0.1810   -1.1430 nc        1 07T     -0.467300
     17 NAX         2.0550    0.1650   -1.1080 n         1 07T     -0.204800
     18 CAL         1.3510    0.1010   -2.3890 c3        1 07T      0.151300
     19 CAP         0.9850    1.4540   -2.9370 ca        1 07T     -0.077300
     20 CAI        -0.1400    2.1080   -2.4250 ca        1 07T     -0.084000
     21 CAH         1.7420    2.0490   -3.9490 ca        1 07T     -0.049000
     22 CAF         1.3720    3.2950   -4.4640 ca        1 07T     -0.105000
     23 CAG         0.2550    3.9630   -3.9730 ca        1 07T     -0.101000
     24 CAO        -0.4970    3.3590   -2.9480 ca        1 07T     -0.084400
     25 NAC        -1.6720    4.0500   -2.4140 n4        1 07T     -0.699000
     26 H1          0.0850   -1.1710    3.4400 h1        1 07T      0.069700
     27 H2         -0.4510    0.1050    2.2390 h1        1 07T      0.069700
     28 H3          0.0650    0.5890    3.9360 h1        1 07T      0.069700
     29 H4          2.3090   -0.1460    5.6120 ha        1 07T      0.163000
     30 H5          3.6470   -1.9430    6.8940 h1        1 07T      0.090700
     31 H6          5.3510   -2.4840    6.6760 h1        1 07T      0.090700
     32 H7          4.8550   -1.7170    8.2180 h1        1 07T      0.090700
     33 H9          5.1930    0.1680   -0.1360 h4        1 07T      0.063800
     34 H10         1.9890   -0.4450   -3.1440 h1        1 07T      0.095200
     35 H11         0.4050   -0.4950   -2.2220 h1        1 07T      0.095200
     36 H12        -0.7090    1.6200   -1.6090 ha        1 07T      0.191000
     37 H13         2.6390    1.5360   -4.3410 ha        1 07T      0.177000
     38 H14         1.9730    3.7590   -5.2650 ha        1 07T      0.174000
     39 H15        -0.0220    4.9450   -4.3890 ha        1 07T      0.156000
     40 H16        -2.0220    3.5540   -1.5850 hn        1 07T      0.462467
     41 H17        -1.4200    5.0090   -2.1530 hn        1 07T      0.462467
     42 HAC3       -2.4090    4.0780   -3.1270 hn        1 07T      0.462467
@<TRIPOS>BOND
     1    1    2 2   
     2    2    3 1   
     3    2   17 1   
     4    3    4 1   
     5    3   14 2   
     6    4    5 1   
     7    4    6 1   
     8    5   26 1   
     9    5   27 1   
    10    5   28 1   
    11    6    7 1   
    12    6   13 2   
    13    7    8 2   
    14    7   29 1   
    15    8    9 1   
    16    8   12 1   
    17    9   10 1   
    18    9   11 2   
    19   10   30 1   
    20   10   31 1   
    21   10   32 1   
    22   12   13 1   
    23   13   14 1   
    24   14   15 1   
    25   15   16 2   
    26   15   33 1   
    27   16   17 1   
    28   17   18 1   
    29   18   19 1   
    30   18   34 1   
    31   18   35 1   
    32   19   20 ar  
    33   19   21 ar  
    34   20   24 ar  
    35   20   36 1   
    36   21   22 ar  
    37   21   37 1   
    38   22   23 ar  
    39   22   38 1   
    40   23   24 ar  
    41   23   39 1   
    42   24   25 1   
    43   25   40 1   
    44   25   41 1   
    45   25   42 1   
@<TRIPOS>SUBSTRUCTURE
     1 07T         1 TEMP              0 ****  ****    0 ROOT
