@<TRIPOS>MOLECULE
07T
   41    44     1     0     0
SMALL
bcc


@<TRIPOS>ATOM
      1 OAD        -0.0580   -0.1740   -0.0120 o         1 07T     -0.651500
      2 CAR         1.1870   -0.1010    0.0210 c         1 07T      0.700100
      3 CAV         1.9870   -0.1020    1.2510 cc        1 07T     -0.113900
      4 NAW         1.5600   -0.1690    2.5760 na        1 07T     -0.015100
      5 CAA         0.2180   -0.2820    3.0510 c3        1 07T      0.012600
      6 CAT         2.7040   -0.1110    3.3660 cc        1 07T     -0.070300
      7 CAK         3.0350   -0.1230    4.7420 cc        1 07T     -0.081000
      8 CAQ         4.4150   -0.0280    4.9090 cd        1 07T     -0.186600
      9 SAY         5.0720    0.0840    6.4650 sx        1 07T      0.380400
     10 CAB         4.7640   -1.5120    7.0840 c3        1 07T     -0.134800
     11 OAE         6.5480    0.1620    6.3070 o         1 07T     -0.513200
     12 SAN         5.2390    0.0640    3.4560 ss        1 07T      0.241200
     13 CAU         3.8910   -0.0040    2.5270 cd        1 07T     -0.139100
     14 CAS         3.4100    0.0030    1.1880 cd        1 07T     -0.137900
     15 CAJ         4.0010    0.0900   -0.1150 cd        1 07T      0.398800
     16 NAM         3.2840    0.0820   -1.2220 nc        1 07T     -0.443300
     17 NAX         1.9530   -0.0410   -1.1770 n         1 07T     -0.188800
     18 CAL         1.2210    0.0660   -2.4500 c3        1 07T      0.154300
     19 CAP         0.9590    1.4790   -2.8840 ca        1 07T     -0.083300
     20 CAI        -0.0980    2.1840   -2.3100 ca        1 07T     -0.173000
     21 CAH         1.7490    2.0670   -3.8750 ca        1 07T     -0.147000
     22 CAF         1.4660    3.3650   -4.2950 ca        1 07T     -0.101000
     23 CAG         0.4130    4.0820   -3.7400 ca        1 07T     -0.179000
     24 CAO        -0.3850    3.5040   -2.7240 ca        1 07T      0.131600
     25 NAC        -1.3840    4.2500   -2.0880 nv        1 07T     -0.817200
     26 H1         -0.0120    0.5740    3.7420 h1        1 07T      0.068033
     27 H2         -0.4930   -0.2630    2.1800 h1        1 07T      0.068033
     28 H3          0.0940   -1.2470    3.6130 h1        1 07T      0.068033
     29 H4          2.3030   -0.1970    5.5490 ha        1 07T      0.156000
     30 H5          3.7200   -1.8330    6.8710 h1        1 07T      0.085033
     31 H6          4.9050   -1.4880    8.1910 h1        1 07T      0.085033
     32 H7          5.4510   -2.2920    6.6820 h1        1 07T      0.085033
     33 H9          5.0930    0.1710   -0.2430 h4        1 07T      0.051800
     34 H10         1.8090   -0.4730   -3.2470 h1        1 07T      0.080700
     35 H11         0.2390   -0.4700   -2.3010 h1        1 07T      0.080700
     36 H12        -0.6970    1.6990   -1.5200 ha        1 07T      0.152000
     37 H13         2.5890    1.5120   -4.3160 ha        1 07T      0.137000
     38 H14         2.0850    3.8320   -5.0780 ha        1 07T      0.131000
     39 H15         0.2110    5.1060   -4.0860 ha        1 07T      0.131000
     40 H16        -1.7630    4.9840   -2.6460 hn        1 07T      0.388300
     41 H17        -2.0820    3.6990   -1.6410 hn        1 07T      0.388300
@<TRIPOS>BOND
     1    1    2 2   
     2    2    3 1   
     3    2   17 1   
     4    3    4 1   
     5    3   14 2   
     6    4    5 1   
     7    4    6 1   
     8    5   26 1   
     9    5   27 1   
    10    5   28 1   
    11    6    7 1   
    12    6   13 2   
    13    7    8 2   
    14    7   29 1   
    15    8    9 1   
    16    8   12 1   
    17    9   10 1   
    18    9   11 2   
    19   10   30 1   
    20   10   31 1   
    21   10   32 1   
    22   12   13 1   
    23   13   14 1   
    24   14   15 1   
    25   15   16 2   
    26   15   33 1   
    27   16   17 1   
    28   17   18 1   
    29   18   19 1   
    30   18   34 1   
    31   18   35 1   
    32   19   20 ar  
    33   19   21 ar  
    34   20   24 ar  
    35   20   36 1   
    36   21   22 ar  
    37   21   37 1   
    38   22   23 ar  
    39   22   38 1   
    40   23   24 ar  
    41   23   39 1   
    42   24   25 1   
    43   25   40 1   
    44   25   41 1   
@<TRIPOS>SUBSTRUCTURE
     1 07T         1 TEMP              0 ****  ****    0 ROOT
