@<TRIPOS>MOLECULE
07T
   41    44     1     0     0
SMALL
bcc


@<TRIPOS>ATOM
      1 OAD        -0.0480   -0.1860   -0.0240 o         1 07T     -0.651500
      2 CAR         1.1970   -0.1050    0.0160 c         1 07T      0.700100
      3 CAV         1.9900   -0.1020    1.2500 cc        1 07T     -0.113900
      4 NAW         1.5560   -0.1750    2.5730 na        1 07T     -0.015100
      5 CAA         0.2130   -0.2960    3.0410 c3        1 07T      0.012600
      6 CAT         2.6970   -0.1100    3.3680 cc        1 07T     -0.070300
      7 CAK         3.0210   -0.1220    4.7460 cc        1 07T     -0.081000
      8 CAQ         4.3990   -0.0180    4.9210 cd        1 07T     -0.186600
      9 SAY         5.0480    0.0960    6.4790 sx        1 07T      0.380400
     10 CAB         4.7460   -1.5020    7.0960 c3        1 07T     -0.134800
     11 OAE         6.5240    0.1840    6.3290 o         1 07T     -0.513200
     12 SAN         5.2290    0.0810    3.4710 ss        1 07T      0.241200
     13 CAU         3.8870    0.0060    2.5360 cd        1 07T     -0.139100
     14 CAS         3.4120    0.0110    1.1940 cd        1 07T     -0.137900
     15 CAJ         4.0090    0.1040   -0.1050 cd        1 07T      0.398800
     16 NAM         3.2980    0.0930   -1.2160 nc        1 07T     -0.443300
     17 NAX         1.9680   -0.0380   -1.1780 n         1 07T     -0.188800
     18 CAL         1.2420    0.0660   -2.4540 c3        1 07T      0.154300
     19 CAP         0.9730    1.4770   -2.8880 ca        1 07T     -0.083300
     20 CAI        -0.0910    2.1750   -2.3180 ca        1 07T     -0.173000
     21 CAH         1.7640    2.0720   -3.8740 ca        1 07T     -0.147000
     22 CAF         1.4760    3.3690   -4.2950 ca        1 07T     -0.101000
     23 CAG         0.4160    4.0780   -3.7430 ca        1 07T     -0.179000
     24 CAO        -0.3840    3.4940   -2.7330 ca        1 07T      0.131600
     25 NAC        -1.3910    4.2330   -2.1000 nh        1 07T     -0.817200
     26 H1         -0.4940   -0.2840    2.1660 h1        1 07T      0.068033
     27 H2         -0.0270    0.5590    3.7280 h1        1 07T      0.068033
     28 H3          0.0930   -1.2610    3.6040 h1        1 07T      0.068033
     29 H4          2.2850   -0.2020    5.5490 ha        1 07T      0.156000
     30 H5          3.7050   -1.8300    6.8770 h1        1 07T      0.085033
     31 H6          4.8820   -1.4790    8.2030 h1        1 07T      0.085033
     32 H7          5.4400   -2.2770    6.6960 h1        1 07T      0.085033
     33 H9          5.1020    0.1920   -0.2280 h4        1 07T      0.051800
     34 H10         1.8370   -0.4690   -3.2500 h1        1 07T      0.080700
     35 H11         0.2620   -0.4770   -2.3120 h1        1 07T      0.080700
     36 H12        -0.6910    1.6860   -1.5330 ha        1 07T      0.152000
     37 H13         2.6100    1.5220   -4.3120 ha        1 07T      0.137000
     38 H14         2.0950    3.8400   -5.0730 ha        1 07T      0.131000
     39 H15         0.2090    5.1020   -4.0890 ha        1 07T      0.131000
     40 H16        -2.0880    3.6770   -1.6570 hn        1 07T      0.388300
     41 H17        -1.7710    4.9650   -2.6590 hn        1 07T      0.388300
@<TRIPOS>BOND
     1    1    2 2   
     2    2    3 1   
     3    2   17 1   
     4    3    4 1   
     5    3   14 2   
     6    4    5 1   
     7    4    6 1   
     8    5   26 1   
     9    5   27 1   
    10    5   28 1   
    11    6    7 1   
    12    6   13 2   
    13    7    8 2   
    14    7   29 1   
    15    8    9 1   
    16    8   12 1   
    17    9   10 1   
    18    9   11 2   
    19   10   30 1   
    20   10   31 1   
    21   10   32 1   
    22   12   13 1   
    23   13   14 1   
    24   14   15 1   
    25   15   16 2   
    26   15   33 1   
    27   16   17 1   
    28   17   18 1   
    29   18   19 1   
    30   18   34 1   
    31   18   35 1   
    32   19   20 ar  
    33   19   21 ar  
    34   20   24 ar  
    35   20   36 1   
    36   21   22 ar  
    37   21   37 1   
    38   22   23 ar  
    39   22   38 1   
    40   23   24 ar  
    41   23   39 1   
    42   24   25 1   
    43   25   40 1   
    44   25   41 1   
@<TRIPOS>SUBSTRUCTURE
     1 07T         1 TEMP              0 ****  ****    0 ROOT
