@<TRIPOS>MOLECULE
07T
   41    34     1     0     0
SMALL
bcc


@<TRIPOS>ATOM
      1 OAD        -2.8630   -0.4580   -0.1530 o         1 07T     -0.368000
      2 CAR        -1.6710   -0.1610   -0.1850 c1        1 07T      0.337000
      3 CAV        -0.8790   -0.0370    1.1090 c1        1 07T     -0.073000
      4 NAW        -1.2890    0.0290    2.4560 n2        1 07T     -0.069000
      5 CAA        -2.3730   -0.5920    3.1770 c2        1 07T     -0.090000
      6 CAT        -0.1930    0.3070    3.2170 c2        1 07T     -0.057000
      7 CAK         0.2900    0.6430    4.7130 c1        1 07T     -0.031000
      8 CAQ         1.7000    0.9470    4.6740 c1        1 07T     -0.880000
      9 SAY         2.4770    1.2780    6.2430 ss        1 07T      1.504000
     10 CAB         3.4640    2.7450    6.4570 c3        1 07T     -0.681000
     11 OAE         2.2410    0.4050    7.3570 o         1 07T     -0.780000
     12 SAN         2.1650    0.8280    3.2230 ss        1 07T      0.661000
     13 CAU         0.9130    0.4190    2.3560 c2        1 07T     -0.375000
     14 CAS         0.4690    0.2030    1.0610 c1        1 07T     -0.060000
     15 CAJ         1.1690    0.3460   -0.2860 c1        1 07T     -0.104000
     16 NAM         0.4100    0.2260   -1.5120 n1        1 07T     -0.025000
     17 NAX        -1.0090    0.0410   -1.4630 n2        1 07T     -0.219000
     18 CAL        -1.8080    0.2080   -2.6760 c3        1 07T      0.030000
     19 CAP        -1.2430   -0.6460   -3.7780 c1        1 07T     -0.078000
     20 CAI        -0.0510   -0.2650   -4.4110 c1        1 07T     -0.164000
     21 CAH        -1.9850   -1.7080   -4.2800 c1        1 07T     -0.150000
     22 CAF        -1.5460   -2.3920   -5.4090 c1        1 07T     -0.139500
     23 CAG        -0.3480   -2.0060   -6.0410 c1        1 07T     -0.139500
     24 CAO         0.3890   -0.9490   -5.5400 c1        1 07T      0.047000
     25 NAC         1.6060   -0.5070   -6.2290 n2        1 07T     -0.325000
     26 H1         -2.6370   -0.0160    3.9330 ha        1 07T      0.111333
     27 H2         -2.0850   -1.4550    3.5130 ha        1 07T      0.111333
     28 H3         -3.1290   -0.7130    2.5820 ha        1 07T      0.111333
     29 H4         -0.2580    0.5840    5.5150 DU        1 07T      0.185000
     30 H5          2.9170    3.4490    6.8310 h1        1 07T      0.124333
     31 H6          4.2040    2.5550    7.0590 h1        1 07T      0.124333
     32 H7          3.8110    3.0270    5.5980 h1        1 07T      0.124333
     33 H9          2.1390    0.4710   -0.3220 ha        1 07T      0.178000
     34 H10        -2.7340   -0.0640   -2.4960 h1        1 07T      0.122000
     35 H11        -1.7910    1.1350   -2.9480 h1        1 07T      0.122000
     36 H12         0.4650    0.4740   -4.0640 ha        1 07T      0.137000
     37 H13        -2.8240   -1.9760   -3.8370 ha        1 07T      0.151000
     38 H14        -2.0650   -3.1370   -5.7610 ha        1 07T      0.131500
     39 H15        -0.0470   -2.4720   -6.8110 ha        1 07T      0.131500
     40 H16         2.1600    0.1130   -5.8310 hn        1 07T      0.182000
     41 H17         1.8400   -0.8820   -7.0390 hn        1 07T      0.182000
@<TRIPOS>BOND
     1    1    2 1   
     2    2   17 1   
     3    3    4 1   
     4    3   14 1   
     5    4    6 1   
     6    5   26 1   
     7    5   27 1   
     8    5   28 1   
     9    6    7 1   
    10    6   13 1   
    11    7    8 1   
    12    8   12 1   
    13    9   10 1   
    14    9   11 1   
    15   10   30 1   
    16   10   31 1   
    17   10   32 1   
    18   12   13 1   
    19   13   14 1   
    20   15   16 1   
    21   15   33 1   
    22   17   18 1   
    23   18   19 1   
    24   18   34 1   
    25   18   35 1   
    26   19   21 1   
    27   20   24 1   
    28   20   36 1   
    29   21   37 1   
    30   22   23 1   
    31   22   38 1   
    32   23   39 1   
    33   25   40 1   
    34   25   41 1   
@<TRIPOS>SUBSTRUCTURE
     1 07T         1 TEMP              0 ****  ****    0 ROOT
