@<TRIPOS>MOLECULE
07T
   41    44     1     0     0
SMALL
bcc


@<TRIPOS>ATOM
      1 OAD         2.0300   -1.6330    1.4930 o         1 07T     -0.650500
      2 CAR         1.4710   -0.5510    1.2230 c         1 07T      0.698100
      3 CAV         0.0640   -0.4180    0.8280 cc        1 07T     -0.114900
      4 NAW        -0.9010   -1.4130    0.6720 na        1 07T     -0.016100
      5 CAA        -0.7550   -2.8100    0.9260 c3        1 07T      0.012600
      6 CAT        -2.0670   -0.7730    0.2640 cc        1 07T     -0.070300
      7 CAK        -3.3960   -1.1230   -0.0760 cc        1 07T     -0.081000
      8 CAQ        -4.1210    0.0130   -0.4290 cd        1 07T     -0.186600
      9 SAY        -5.7150   -0.1380   -0.9780 sx        1 07T      0.380400
     10 CAB        -6.5370   -0.6130    0.4790 c3        1 07T     -0.134800
     11 OAE        -6.2040    1.2350   -1.2720 o         1 07T     -0.513200
     12 SAN        -3.2120    1.4160   -0.3370 ss        1 07T      0.241200
     13 CAU        -1.8420    0.6620    0.1480 cd        1 07T     -0.140100
     14 CAS        -0.4790    0.8630    0.5100 cd        1 07T     -0.137900
     15 CAJ         0.3990    1.9890    0.6160 cd        1 07T      0.396800
     16 NAM         1.6610    1.8740    0.9840 nc        1 07T     -0.443300
     17 NAX         2.1750    0.6830    1.3060 n         1 07T     -0.188800
     18 CAL         3.6140    0.6280    1.6170 c3        1 07T      0.154300
     19 CAP         4.4930    0.5350    0.4040 ca        1 07T     -0.084300
     20 CAI         4.7440   -0.7140   -0.1610 ca        1 07T     -0.170000
     21 CAH         5.0710    1.6870   -0.1340 ca        1 07T     -0.146000
     22 CAF         5.9120    1.5790   -1.2400 ca        1 07T     -0.101000
     23 CAG         6.1800    0.3420   -1.8140 ca        1 07T     -0.179000
     24 CAO         5.6030   -0.8330   -1.2770 ca        1 07T      0.130600
     25 NAC         5.9380   -2.0930   -1.7880 nh        1 07T     -0.817200
     26 H1         -1.0710   -3.3920    0.0180 h1        1 07T      0.068033
     27 H2          0.3190   -3.0400    1.1660 h1        1 07T      0.068033
     28 H3         -1.4030   -3.1110    1.7940 h1        1 07T      0.068033
     29 H4         -3.7860   -2.1430   -0.0590 ha        1 07T      0.156000
     30 H5         -6.7000    0.2230    1.1980 h1        1 07T      0.085033
     31 H6         -7.5430   -1.0060    0.1980 h1        1 07T      0.085033
     32 H7         -5.9830   -1.4180    1.0110 h1        1 07T      0.085033
     33 H9          0.0500    3.0110    0.3890 h4        1 07T      0.051800
     34 H10         3.8880    1.5450    2.2130 h1        1 07T      0.082200
     35 H11         3.7670   -0.2830    2.2670 h1        1 07T      0.082200
     36 H12         4.2640   -1.6060    0.2770 ha        1 07T      0.152000
     37 H13         4.8580    2.6710    0.3080 ha        1 07T      0.138000
     38 H14         6.3700    2.4840   -1.6670 ha        1 07T      0.131000
     39 H15         6.8510    0.2810   -2.6830 ha        1 07T      0.131000
     40 H16         6.2220   -2.0830   -2.7430 hn        1 07T      0.387800
     41 H17         5.2700   -2.8040   -1.5870 hn        1 07T      0.387800
@<TRIPOS>BOND
     1    1    2 2   
     2    2    3 1   
     3    2   17 1   
     4    3    4 1   
     5    3   14 2   
     6    4    5 1   
     7    4    6 1   
     8    5   26 1   
     9    5   27 1   
    10    5   28 1   
    11    6    7 1   
    12    6   13 2   
    13    7    8 2   
    14    7   29 1   
    15    8    9 1   
    16    8   12 1   
    17    9   10 1   
    18    9   11 2   
    19   10   30 1   
    20   10   31 1   
    21   10   32 1   
    22   12   13 1   
    23   13   14 1   
    24   14   15 1   
    25   15   16 2   
    26   15   33 1   
    27   16   17 1   
    28   17   18 1   
    29   18   19 1   
    30   18   34 1   
    31   18   35 1   
    32   19   20 ar  
    33   19   21 ar  
    34   20   24 ar  
    35   20   36 1   
    36   21   22 ar  
    37   21   37 1   
    38   22   23 ar  
    39   22   38 1   
    40   23   24 ar  
    41   23   39 1   
    42   24   25 1   
    43   25   40 1   
    44   25   41 1   
@<TRIPOS>SUBSTRUCTURE
     1 07T         1 TEMP              0 ****  ****    0 ROOT
