@<TRIPOS>MOLECULE
07U
   41    43     1     0     0
SMALL
bcc


@<TRIPOS>ATOM
      1 N1          2.0500   -0.2040   -0.1600 nh        1 07U     -0.835900
      2 C6          3.6870   -2.1090   -0.1260 c3        1 07U      0.160200
      3 C10         3.6370   -3.6470   -0.0880 c3        1 07U     -0.108600
      4 C20        -1.5440    0.2090    0.0540 cp        1 07U      0.489800
      5 C21        -1.7220    1.5840    0.1520 ca        1 07U     -0.261300
      6 C24        -0.6730    3.8440    0.2990 ca        1 07U      0.407200
      7 C3          2.1980   -1.6360   -0.0900 c3        1 07U      0.213800
      8 N7          4.4260   -1.5270    0.9940 n3        1 07U     -0.913800
      9 C14         4.3080   -1.6990   -1.4680 c3        1 07U     -0.108600
     10 C18         0.7940    0.3830    0.0090 ca        1 07U      0.674200
     11 N19        -0.3120   -0.3920   -0.0010 nb        1 07U     -0.737000
     12 C23        -0.5780    2.4160    0.1890 ca        1 07U     -0.105300
     13 N26         0.3750    4.6520    0.3300 nb        1 07U     -0.646000
     14 C27         1.6150    4.0810    0.2510 ca        1 07U      0.367200
     15 C29         1.8310    2.7150    0.1440 ca        1 07U     -0.205300
     16 C31         0.7150    1.8410    0.1150 ca        1 07U     -0.156300
     17 C32        -2.7300   -0.6680    0.0180 cp        1 07U     -0.102500
     18 C33        -2.7650   -1.8800    0.7210 ca        1 07U     -0.222300
     19 C35        -3.9360   -2.6570    0.6580 ca        1 07U      0.386700
     20 N37        -5.0300   -2.3060   -0.0450 nb        1 07U     -0.660000
     21 C38        -4.9780   -1.1410   -0.7200 ca        1 07U      0.386700
     22 C40        -3.8590   -0.2910   -0.7220 ca        1 07U     -0.222300
     23 H1          2.8110    0.3210    0.2170 hn        1 07U      0.433800
     24 H2          3.0610   -4.0290   -0.9640 hc        1 07U      0.043367
     25 H3          4.6690   -4.0690   -0.1320 hc        1 07U      0.043367
     26 H4          3.1410   -4.0060    0.8450 hc        1 07U      0.043367
     27 H5         -2.7240    2.0280    0.2100 ha        1 07U      0.149000
     28 H6         -1.6710    4.3150    0.3620 h4        1 07U      0.027100
     29 H7          1.7170   -2.0530    0.8430 h1        1 07U      0.053200
     30 H8          1.6710   -2.0870   -0.9780 h1        1 07U      0.053200
     31 H9          4.1130   -1.9290    1.8550 hn        1 07U      0.353300
     32 H10         5.4050   -1.7020    0.8850 hn        1 07U      0.353300
     33 H12         4.4150   -0.5910   -1.5430 hc        1 07U      0.043367
     34 H13         5.3170   -2.1630   -1.5870 hc        1 07U      0.043367
     35 H14         3.6530   -2.0510   -2.3000 hc        1 07U      0.043367
     36 H15         2.4570    4.7950    0.2770 h4        1 07U      0.025100
     37 H16         2.8610    2.3400    0.0770 ha        1 07U      0.144000
     38 H17        -1.9020   -2.2220    1.3060 ha        1 07U      0.151500
     39 H18        -4.0020   -3.6170    1.2010 h4        1 07U      0.022100
     40 H19        -5.8860   -0.8780   -1.2930 h4        1 07U      0.022100
     41 H20        -3.8710    0.6430   -1.3000 ha        1 07U      0.151500
@<TRIPOS>BOND
     1    1    7 1   
     2    1   10 1   
     3    1   23 1   
     4    2    3 1   
     5    2    7 1   
     6    2    8 1   
     7    2    9 1   
     8    3   24 1   
     9    3   25 1   
    10    3   26 1   
    11    4    5 ar  
    12    4   11 ar  
    13    4   17 1   
    14    5   12 ar  
    15    5   27 1   
    16    6   12 ar  
    17    6   13 ar  
    18    6   28 1   
    19    7   29 1   
    20    7   30 1   
    21    8   31 1   
    22    8   32 1   
    23    9   33 1   
    24    9   34 1   
    25    9   35 1   
    26   10   11 ar  
    27   10   16 ar  
    28   12   16 ar  
    29   13   14 ar  
    30   14   15 ar  
    31   14   36 1   
    32   15   16 ar  
    33   15   37 1   
    34   17   18 ar  
    35   17   22 ar  
    36   18   19 ar  
    37   18   38 1   
    38   19   20 ar  
    39   19   39 1   
    40   20   21 ar  
    41   21   22 ar  
    42   21   40 1   
    43   22   41 1   
@<TRIPOS>SUBSTRUCTURE
     1 07U         1 TEMP              0 ****  ****    0 ROOT
