@<TRIPOS>MOLECULE
07U
   42    44     1     0     0
SMALL
bcc


@<TRIPOS>ATOM
      1 N1         -0.4320   -0.5040   -0.4820 nh        1 07U     -0.868900
      2 C6          2.0510   -0.3720   -0.8630 c3        1 07U      0.133200
      3 C10         3.2760   -1.2880   -0.8250 c3        1 07U     -0.131100
      4 C20        -0.6510    0.2690    3.0580 cp        1 07U      0.462800
      5 C21        -2.0130    0.2810    3.3290 ca        1 07U     -0.191300
      6 C24        -4.3450    0.0300    2.4730 ca        1 07U      0.431200
      7 C3          0.7880   -1.2560   -0.6010 c3        1 07U      0.185800
      8 N7          2.1760    0.6850    0.2140 n4        1 07U     -0.831600
      9 C14         1.9550    0.2990   -2.2320 c3        1 07U     -0.131100
     10 C18        -0.9870   -0.2750    0.8020 ca        1 07U      0.635200
     11 N19        -0.1410   -0.0030    1.8120 nb        1 07U     -0.785000
     12 C23        -2.9210    0.0190    2.2750 ca        1 07U     -0.120300
     13 N26        -5.2190   -0.2130    1.5110 nb        1 07U     -0.624000
     14 C27        -4.7320   -0.4890    0.2630 ca        1 07U      0.412200
     15 C29        -3.3810   -0.5270   -0.0490 ca        1 07U     -0.234300
     16 C31        -2.4330   -0.2690    0.9740 ca        1 07U     -0.134300
     17 C32         0.3130    0.5560    4.1370 cp        1 07U     -0.114500
     18 C33         1.3230    1.5120    3.9690 ca        1 07U     -0.239800
     19 C35         2.1990    1.7560    5.0420 ca        1 07U      0.406200
     20 N37         2.1280    1.1100    6.2220 nb        1 07U     -0.638000
     21 C38         1.1520    0.1930    6.3680 ca        1 07U      0.406200
     22 C40         0.2210   -0.1200    5.3600 ca        1 07U     -0.239800
     23 H1         -1.1160   -0.7400   -1.1710 hn        1 07U      0.434800
     24 H2          3.3860   -1.7880    0.1690 hc        1 07U      0.077367
     25 H3          3.1520   -2.0830   -1.6030 hc        1 07U      0.077367
     26 H4          4.2110   -0.7210   -1.0580 hc        1 07U      0.077367
     27 H5         -2.3880    0.4950    4.3400 ha        1 07U      0.171000
     28 H6         -4.7520    0.2530    3.4780 h4        1 07U      0.046100
     29 H7          0.7180   -1.9500   -1.4900 h1        1 07U      0.084700
     30 H8          0.9900   -1.8890    0.3120 h1        1 07U      0.084700
     31 H9          2.1330    0.2400    1.1400 hn        1 07U      0.462800
     32 H10         3.0630    1.1790    0.1090 hn        1 07U      0.462800
     33 H12         1.8590   -0.4960   -3.0130 hc        1 07U      0.077367
     34 H13         1.0620    0.9670   -2.3020 hc        1 07U      0.077367
     35 H14         2.8750    0.8930   -2.4560 hc        1 07U      0.077367
     36 H15        -5.5070   -0.6860   -0.5030 h4        1 07U      0.045100
     37 H16        -3.0820   -0.7540   -1.0800 ha        1 07U      0.142000
     38 H17         1.4120    2.0850    3.0390 ha        1 07U      0.139500
     39 H18         2.9990    2.5140    4.9600 h4        1 07U      0.037600
     40 H19         1.1150   -0.3170    7.3490 h4        1 07U      0.037600
     41 H20        -0.5550   -0.8770    5.5350 ha        1 07U      0.139500
     42 H73         1.4010    1.3500    0.1300 hn        1 07U      0.462800
@<TRIPOS>BOND
     1    1    7 1   
     2    1   10 1   
     3    1   23 1   
     4    2    3 1   
     5    2    7 1   
     6    2    8 1   
     7    2    9 1   
     8    3   24 1   
     9    3   25 1   
    10    3   26 1   
    11    4    5 ar  
    12    4   11 ar  
    13    4   17 1   
    14    5   12 ar  
    15    5   27 1   
    16    6   12 ar  
    17    6   13 ar  
    18    6   28 1   
    19    7   29 1   
    20    7   30 1   
    21    8   31 1   
    22    8   32 1   
    23    8   42 1   
    24    9   33 1   
    25    9   34 1   
    26    9   35 1   
    27   10   11 ar  
    28   10   16 ar  
    29   12   16 ar  
    30   13   14 ar  
    31   14   15 ar  
    32   14   36 1   
    33   15   16 ar  
    34   15   37 1   
    35   17   18 ar  
    36   17   22 ar  
    37   18   19 ar  
    38   18   38 1   
    39   19   20 ar  
    40   19   39 1   
    41   20   21 ar  
    42   21   22 ar  
    43   21   40 1   
    44   22   41 1   
@<TRIPOS>SUBSTRUCTURE
     1 07U         1 TEMP              0 ****  ****    0 ROOT
