@<TRIPOS>MOLECULE
07U
   41    37     1     0     0
SMALL
bcc


@<TRIPOS>ATOM
      1 N1          0.1120   -0.2670   -1.5000 n3        1 07U     -0.262000
      2 C6          1.4860    0.6820   -3.2230 c3        1 07U      0.021000
      3 C10         1.9700    2.0130   -3.7560 c3        1 07U     -0.208500
      4 C20        -0.3410   -0.3630    2.0630 c1        1 07U      0.029000
      5 C21        -1.7150   -0.4470    2.2250 c2        1 07U     -0.151000
      6 C24        -3.9470   -0.5170    1.2740 c1        1 07U     -0.052000
      7 C3          0.8830    0.8780   -1.8470 c3        1 07U     -0.116000
      8 N7          0.5010    0.1490   -4.1020 n3        1 07U     -0.324000
      9 C14         2.6520   -0.2790   -3.1310 c3        1 07U     -0.208500
     10 C18        -0.6190   -0.2870   -0.2810 c2        1 07U      0.100000
     11 N19         0.1950   -0.2840    0.8120 n2        1 07U     -0.175000
     12 C23        -2.5470   -0.4510    1.1120 c1        1 07U     -0.065000
     13 N26        -4.7620   -0.5020    0.1820 n1        1 07U     -0.126000
     14 C27        -4.2260   -0.4230   -1.0690 c1        1 07U     -0.084500
     15 C29        -2.8500   -0.3580   -1.2320 c1        1 07U     -0.135000
     16 C31        -2.0180   -0.3730   -0.1200 c1        1 07U     -0.052000
     17 C32         0.4020   -0.3750    3.3830 c1        1 07U      0.002000
     18 C33         0.7380    0.8020    3.9880 c2        1 07U     -0.171000
     19 C35         1.4830    0.7920    5.1570 c1        1 07U     -0.075000
     20 N37         1.8810   -0.3920    5.7020 n1        1 07U     -0.126000
     21 C38         1.5460   -1.5670    5.0990 c1        1 07U     -0.084500
     22 C40         0.8010   -1.5600    3.9300 c1        1 07U     -0.144000
     23 H1          0.1100   -0.9980   -2.0450 hn        1 07U      0.188000
     24 H2          1.2110    2.6290   -3.8350 hc        1 07U      0.081833
     25 H3          2.6340    2.3890   -3.1410 hc        1 07U      0.081833
     26 H4          2.3780    1.8830   -4.6380 hc        1 07U      0.081833
     27 H5         -2.0990   -0.5040    3.1200 ha        1 07U      0.153000
     28 H6         -4.3320   -0.5740    2.1700 ha        1 07U      0.165000
     29 H7          1.6000    1.0000   -1.1910 h1        1 07U      0.086000
     30 H8          0.3070    1.6700   -1.8530 h1        1 07U      0.086000
     31 H9          0.8210   -0.6160   -4.4920 hn        1 07U      0.147000
     32 H10        -0.2580   -0.0450   -3.6280 hn        1 07U      0.147000
     33 H12         2.3300   -1.1560   -2.8350 hc        1 07U      0.081833
     34 H13         3.3070    0.0640   -2.4870 hc        1 07U      0.081833
     35 H14         3.0740   -0.3660   -4.0120 hc        1 07U      0.081833
     36 H15        -4.8100   -0.4130   -1.8500 ha        1 07U      0.163500
     37 H16        -2.4670   -0.3020   -2.1280 ha        1 07U      0.154000
     38 H17         0.4530    1.6500    3.5980 ha        1 07U      0.145000
     39 H18         1.7230    1.6340    5.5900 ha        1 07U      0.161000
     40 H19         1.8320   -2.4150    5.4910 ha        1 07U      0.163500
     41 H20         0.5620   -2.4020    3.4990 ha        1 07U      0.157000
@<TRIPOS>BOND
     1    1    7 1   
     2    1   10 1   
     3    1   23 1   
     4    2    3 1   
     5    2    7 1   
     6    2    8 1   
     7    2    9 1   
     8    3   24 1   
     9    3   25 1   
    10    3   26 1   
    11    4    5 1   
    12    4   11 1   
    13    5   12 1   
    14    5   27 1   
    15    6   12 1   
    16    6   28 1   
    17    7   29 1   
    18    7   30 1   
    19    8   31 1   
    20    8   32 1   
    21    9   33 1   
    22    9   34 1   
    23    9   35 1   
    24   10   11 1   
    25   10   16 1   
    26   13   14 1   
    27   14   36 1   
    28   15   16 1   
    29   15   37 1   
    30   17   18 1   
    31   17   22 1   
    32   18   19 1   
    33   18   38 1   
    34   19   39 1   
    35   20   21 1   
    36   21   40 1   
    37   22   41 1   
@<TRIPOS>SUBSTRUCTURE
     1 07U         1 TEMP              0 ****  ****    0 ROOT
