@<TRIPOS>MOLECULE
07U
   43    45     1     0     0
SMALL
bcc


@<TRIPOS>ATOM
      1 N1         -0.5900   -0.6480   -0.5980 n4        1 07U     -0.746700
      2 C6          1.8880    0.1420   -0.8080 c3        1 07U      0.146200
      3 C10         3.0530   -0.3350   -1.6950 c3        1 07U     -0.151600
      4 C20        -0.5360    0.1270    2.9920 cp        1 07U      0.463800
      5 C21        -1.8410   -0.1800    3.4250 ca        1 07U     -0.087300
      6 C24        -4.1300   -1.0130    2.8700 ca        1 07U      0.478200
      7 C3          0.8420   -1.0100   -0.8060 c3        1 07U      0.091800
      8 N7          2.4140    0.4080    0.5870 n4        1 07U     -0.865600
      9 C14         1.3210    1.4330   -1.4020 c3        1 07U     -0.151600
     10 C18        -1.0450   -0.5070    0.8090 ca        1 07U      0.437200
     11 N19        -0.1540   -0.0400    1.6980 nb        1 07U     -0.723000
     12 C23        -2.7730   -0.6700    2.4990 ca        1 07U     -0.145300
     13 N26        -5.0240   -1.4680    2.0160 nb        1 07U     -0.605000
     14 C27        -4.6510   -1.6230    0.7050 ca        1 07U      0.498200
     15 C29        -3.3810   -1.3320    0.2240 ca        1 07U     -0.304300
     16 C31        -2.4010   -0.8490    1.1280 ca        1 07U     -0.065300
     17 C32         0.4610    0.6380    3.9480 cp        1 07U     -0.157500
     18 C33         1.7290    0.0460    4.0460 ca        1 07U     -0.248300
     19 C35         2.6280    0.5550    5.0000 ca        1 07U      0.425200
     20 N37         2.3420    1.5940    5.8100 nb        1 07U     -0.609000
     21 C38         1.1230    2.1520    5.7030 ca        1 07U      0.425200
     22 C40         0.1440    1.7120    4.7870 ca        1 07U     -0.248300
     23 H1         -1.1610   -1.4030   -1.0150 hn        1 07U      0.477800
     24 H2          3.4290   -1.3370   -1.3730 hc        1 07U      0.096367
     25 H3          3.9000    0.3970   -1.6730 hc        1 07U      0.096367
     26 H4          2.7050   -0.4080   -2.7560 hc        1 07U      0.096367
     27 H5         -2.1170   -0.0400    4.4860 ha        1 07U      0.204000
     28 H6         -4.4520   -0.8930    3.9270 h4        1 07U      0.074100
     29 H7          0.8920   -1.4870   -1.8360 hx        1 07U      0.136700
     30 H8          1.1180   -1.8030   -0.0490 hx        1 07U      0.136700
     31 H9          2.9510    1.2830    0.5800 hn        1 07U      0.478467
     32 H10         3.0310   -0.3560    0.8770 hn        1 07U      0.478467
     33 H12         2.1460    2.1670   -1.6010 hc        1 07U      0.096367
     34 H13         0.5790    1.9280   -0.7290 hc        1 07U      0.096367
     35 H14         0.8440    1.2100   -2.3890 hc        1 07U      0.096367
     36 H15        -5.4530   -2.0050    0.0380 h4        1 07U      0.075100
     37 H16        -3.1790   -1.4770   -0.8450 ha        1 07U      0.143000
     38 H17         1.9980   -0.8330    3.4470 ha        1 07U      0.145000
     39 H18         3.6300    0.1030    5.1390 h4        1 07U      0.058100
     40 H19         0.9150    2.9960    6.3920 h4        1 07U      0.058100
     41 H20        -0.8370    2.2060    4.7490 ha        1 07U      0.145000
     42 H121       -0.8090    0.2330   -1.0890 hn        1 07U      0.477800
     43 H73         1.6290    0.4900    1.2690 hn        1 07U      0.478467
@<TRIPOS>BOND
     1    1    7 1   
     2    1   10 1   
     3    1   23 1   
     4    1   42 1   
     5    2    3 1   
     6    2    7 1   
     7    2    8 1   
     8    2    9 1   
     9    3   24 1   
    10    3   25 1   
    11    3   26 1   
    12    4    5 ar  
    13    4   11 ar  
    14    4   17 1   
    15    5   12 ar  
    16    5   27 1   
    17    6   12 ar  
    18    6   13 ar  
    19    6   28 1   
    20    7   29 1   
    21    7   30 1   
    22    8   31 1   
    23    8   32 1   
    24    8   43 1   
    25    9   33 1   
    26    9   34 1   
    27    9   35 1   
    28   10   11 ar  
    29   10   16 ar  
    30   12   16 ar  
    31   13   14 ar  
    32   14   15 ar  
    33   14   36 1   
    34   15   16 ar  
    35   15   37 1   
    36   17   18 ar  
    37   17   22 ar  
    38   18   19 ar  
    39   18   38 1   
    40   19   20 ar  
    41   19   39 1   
    42   20   21 ar  
    43   21   22 ar  
    44   21   40 1   
    45   22   41 1   
@<TRIPOS>SUBSTRUCTURE
     1 07U         1 TEMP              0 ****  ****    0 ROOT
