@<TRIPOS>MOLECULE
07U
   42    44     1     0     0
SMALL
bcc


@<TRIPOS>ATOM
      1 N1         -0.3680   -0.5650   -0.4860 nu        1 07U     -0.869900
      2 C6          2.0390    0.0400   -0.8930 c3        1 07U      0.132200
      3 C10         3.4120   -0.6360   -0.9180 c3        1 07U     -0.130600
      4 C20        -0.6510    0.0740    3.0770 cp        1 07U      0.464800
      5 C21        -2.0100   -0.0390    3.3410 ca        1 07U     -0.194300
      6 C24        -4.3030   -0.5210    2.4800 ca        1 07U      0.431200
      7 C3          0.9660   -1.0730   -0.6470 c3        1 07U      0.187800
      8 N7          1.9960    1.0570    0.2280 nz        1 07U     -0.830600
      9 C14         1.7860    0.7360   -2.2290 c3        1 07U     -0.130600
     10 C18        -0.9320   -0.4490    0.8080 ca        1 07U      0.637200
     11 N19        -0.1160   -0.1260    1.8270 nb        1 07U     -0.790000
     12 C23        -2.8860   -0.3800    2.2830 ca        1 07U     -0.119300
     13 N26        -5.1480   -0.8410    1.5140 nb        1 07U     -0.624000
     14 C27        -4.6360   -1.0470    0.2630 ca        1 07U      0.411200
     15 C29        -3.2870   -0.9390   -0.0480 ca        1 07U     -0.233300
     16 C31        -2.3710   -0.5960    0.9790 ca        1 07U     -0.135300
     17 C32         0.2790    0.4250    4.1660 cp        1 07U     -0.126500
     18 C33         1.4540   -0.3060    4.3790 ca        1 07U     -0.237800
     19 C35         2.2900    0.0680    5.4480 ca        1 07U      0.401700
     20 N37         2.0260    1.0980    6.2740 nb        1 07U     -0.639000
     21 C38         0.8900    1.7900    6.0580 ca        1 07U      0.401700
     22 C40        -0.0150    1.4950    5.0220 ca        1 07U     -0.237800
     23 H1         -1.0120   -0.9050   -1.1690 hn        1 07U      0.435800
     24 H2          3.6350   -1.1490    0.0490 hc        1 07U      0.077033
     25 H3          3.4160   -1.4050   -1.7300 hc        1 07U      0.077033
     26 H4          4.2200    0.1040   -1.1380 hc        1 07U      0.077033
     27 H5         -2.4060    0.1220    4.3550 ha        1 07U      0.171000
     28 H6         -4.7300   -0.3590    3.4890 h4        1 07U      0.046100
     29 H7          1.0070   -1.7350   -1.5600 h1        1 07U      0.084700
     30 H8          1.3000   -1.6880    0.2390 h1        1 07U      0.084700
     31 H9          1.1080    1.5690    0.1910 hn        1 07U      0.462800
     32 H10         2.0660    0.5750    1.1320 hn        1 07U      0.462800
     33 H12         2.5780    1.4950   -2.4440 hc        1 07U      0.077033
     34 H13         0.7850    1.2330   -2.2520 hc        1 07U      0.077033
     35 H14         1.8130   -0.0320   -3.0420 hc        1 07U      0.077033
     36 H15        -5.3850   -1.3140   -0.5070 h4        1 07U      0.045100
     37 H16        -2.9670   -1.1210   -1.0820 ha        1 07U      0.142000
     38 H17         1.7100   -1.1700    3.7520 ha        1 07U      0.148500
     39 H18         3.2190   -0.4920    5.6610 h4        1 07U      0.038100
     40 H19         0.6950    2.6240    6.7580 h4        1 07U      0.038100
     41 H20        -0.9290    2.0900    4.8960 ha        1 07U      0.148500
     42 H73         2.7710    1.7140    0.1260 hn        1 07U      0.462800
@<TRIPOS>BOND
     1    1    7 1   
     2    1   10 1   
     3    1   23 1   
     4    2    3 1   
     5    2    7 1   
     6    2    8 1   
     7    2    9 1   
     8    3   24 1   
     9    3   25 1   
    10    3   26 1   
    11    4    5 ar  
    12    4   11 ar  
    13    4   17 1   
    14    5   12 ar  
    15    5   27 1   
    16    6   12 ar  
    17    6   13 ar  
    18    6   28 1   
    19    7   29 1   
    20    7   30 1   
    21    8   31 1   
    22    8   32 1   
    23    8   42 1   
    24    9   33 1   
    25    9   34 1   
    26    9   35 1   
    27   10   11 ar  
    28   10   16 ar  
    29   12   16 ar  
    30   13   14 ar  
    31   14   15 ar  
    32   14   36 1   
    33   15   16 ar  
    34   15   37 1   
    35   17   18 ar  
    36   17   22 ar  
    37   18   19 ar  
    38   18   38 1   
    39   19   20 ar  
    40   19   39 1   
    41   20   21 ar  
    42   21   22 ar  
    43   21   40 1   
    44   22   41 1   
@<TRIPOS>SUBSTRUCTURE
     1 07U         1 TEMP              0 ****  ****    0 ROOT
