@<TRIPOS>MOLECULE
07V
   25    25     1     0     0
SMALL
bcc


@<TRIPOS>ATOM
      1 CAG         0.1310   -0.9300    0.4970 c3        1 07V     -0.176400
      2 CAJ        -1.3510   -0.8490    0.2480 c         1 07V      0.569300
      3 OAD        -2.0660   -1.8570    0.2820 o         1 07V     -0.531100
      4 CAI        -1.8940    0.5040   -0.0090 ce        1 07V     -0.196400
      5 CAC        -3.3700    0.6220   -0.0460 c3        1 07V     -0.052900
      6 CAE        -1.0770    1.5540   -0.1970 c2        1 07V     -0.110200
      7 CAF         0.4010    1.4680   -0.1560 c3        1 07V     -0.056200
      8 CAK         0.9000    0.0440   -0.3820 c3        1 07V     -0.021500
      9 CAH         2.3770   -0.0470   -0.1500 c2        1 07V     -0.116400
     10 CAB         2.8430   -0.0880    1.2580 c3        1 07V     -0.061900
     11 CAA         3.2330   -0.0940   -1.1760 c2        1 07V     -0.217000
     12 H1          0.3060   -0.6950    1.5820 hc        1 07V      0.074700
     13 H2          0.4890   -1.9770    0.3140 hc        1 07V      0.074700
     14 H3         -3.7910    0.4390    0.9750 hc        1 07V      0.049700
     15 H4         -3.6930    1.6350   -0.3900 hc        1 07V      0.049700
     16 H5         -3.7960   -0.1490   -0.7350 hc        1 07V      0.049700
     17 H6         -1.4880    2.5610   -0.3840 ha        1 07V      0.130000
     18 H7          0.8440    2.1420   -0.9370 hc        1 07V      0.060700
     19 H8          0.7540    1.8430    0.8440 hc        1 07V      0.060700
     20 H9          0.6870   -0.2260   -1.4580 hc        1 07V      0.060700
     21 H10         2.6040   -1.0850    1.7090 hc        1 07V      0.043367
     22 H11         3.9470    0.0700    1.3250 hc        1 07V      0.043367
     23 H12         2.3360    0.7010    1.8660 hc        1 07V      0.043367
     24 H13         2.9040   -0.0780   -2.2230 ha        1 07V      0.114500
     25 H14         4.3200   -0.1530   -1.0310 ha        1 07V      0.114500
@<TRIPOS>BOND
     1    1    2 1   
     2    1    8 1   
     3    1   12 1   
     4    1   13 1   
     5    2    3 2   
     6    2    4 1   
     7    4    5 1   
     8    4    6 2   
     9    5   14 1   
    10    5   15 1   
    11    5   16 1   
    12    6    7 1   
    13    6   17 1   
    14    7    8 1   
    15    7   18 1   
    16    7   19 1   
    17    8    9 1   
    18    8   20 1   
    19    9   10 1   
    20    9   11 2   
    21   10   21 1   
    22   10   22 1   
    23   10   23 1   
    24   11   24 1   
    25   11   25 1   
@<TRIPOS>SUBSTRUCTURE
     1 07V         1 TEMP              0 ****  ****    0 ROOT
