@<TRIPOS>MOLECULE
07V
   25    25     1     0     0
SMALL
bcc


@<TRIPOS>ATOM
      1 CAG         0.0670   -0.1230   -0.0160 c3        1 07V     -0.175400
      2 CAJ         1.5710   -0.0600    0.0090 c         1 07V      0.569300
      3 OAD         2.2290   -0.0240   -1.0370 o         1 07V     -0.532100
      4 CAI         2.2040   -0.0160    1.3470 ce        1 07V     -0.196400
      5 CAC         3.6660    0.2160    1.3710 c3        1 07V     -0.051900
      6 CAE         1.4760   -0.1800    2.4650 c2        1 07V     -0.110200
      7 CAF         0.0110   -0.3990    2.4670 c3        1 07V     -0.057200
      8 CAK        -0.4820   -0.9540    1.1350 c3        1 07V     -0.021500
      9 CAH        -1.9770   -1.0260    1.0780 c2        1 07V     -0.117400
     10 CAB        -2.7360    0.1920    1.4520 c3        1 07V     -0.060900
     11 CAA        -2.5970   -2.1510    0.7050 c2        1 07V     -0.215000
     12 H1         -0.3200    0.9300    0.0450 hc        1 07V      0.074700
     13 H2         -0.2750   -0.5530   -0.9940 hc        1 07V      0.074700
     14 H3          4.0810    0.1180    2.4030 hc        1 07V      0.049367
     15 H4          4.1790   -0.5190    0.7010 hc        1 07V      0.049367
     16 H5          3.8940    1.2430    0.9880 hc        1 07V      0.049367
     17 H6          1.9530   -0.1420    3.4580 ha        1 07V      0.130000
     18 H7         -0.4940    0.5820    2.6860 hc        1 07V      0.060700
     19 H8         -0.2700   -1.1090    3.2910 hc        1 07V      0.060700
     20 H9         -0.0670   -1.9990    1.0280 hc        1 07V      0.059700
     21 H10        -2.7430    0.3110    2.5660 hc        1 07V      0.043367
     22 H11        -3.7960    0.1310    1.1030 hc        1 07V      0.043367
     23 H12        -2.2700    1.1050    1.0050 hc        1 07V      0.043367
     24 H13        -2.0530   -3.0650    0.4340 ha        1 07V      0.115000
     25 H14        -3.6900   -2.2260    0.6470 ha        1 07V      0.115000
@<TRIPOS>BOND
     1    1    2 1   
     2    1    8 1   
     3    1   12 1   
     4    1   13 1   
     5    2    3 2   
     6    2    4 1   
     7    4    5 1   
     8    4    6 2   
     9    5   14 1   
    10    5   15 1   
    11    5   16 1   
    12    6    7 1   
    13    6   17 1   
    14    7    8 1   
    15    7   18 1   
    16    7   19 1   
    17    8    9 1   
    18    8   20 1   
    19    9   10 1   
    20    9   11 2   
    21   10   21 1   
    22   10   22 1   
    23   10   23 1   
    24   11   24 1   
    25   11   25 1   
@<TRIPOS>SUBSTRUCTURE
     1 07V         1 TEMP              0 ****  ****    0 ROOT
