@<TRIPOS>MOLECULE
07V
   25    25     1     0     0
SMALL
bcc


@<TRIPOS>ATOM
      1 CAG         0.0690   -0.1050   -0.0120 c3        1 07V     -0.175400
      2 CAJ         1.5730   -0.0510    0.0150 c         1 07V      0.569300
      3 OAD         2.2320   -0.0040   -1.0300 o         1 07V     -0.532100
      4 CAI         2.2060   -0.0310    1.3540 ce        1 07V     -0.196400
      5 CAC         3.6700    0.1910    1.3820 c3        1 07V     -0.051900
      6 CAE         1.4760   -0.2070    2.4690 c2        1 07V     -0.110200
      7 CAF         0.0100   -0.4170    2.4670 c3        1 07V     -0.057200
      8 CAK        -0.4850   -0.9490    1.1270 c3        1 07V     -0.021500
      9 CAH        -1.9810   -1.0120    1.0680 c2        1 07V     -0.117400
     10 CAB        -2.7330    0.2050    1.4590 c3        1 07V     -0.060900
     11 CAA        -2.6070   -2.1280    0.6790 c2        1 07V     -0.215000
     12 H1         -0.2740   -0.5190   -0.9960 hc        1 07V      0.074700
     13 H2         -0.3110    0.9490    0.0640 hc        1 07V      0.074700
     14 H3          4.1780   -0.5390    0.7040 hc        1 07V      0.049367
     15 H4          4.0830    0.0780    2.4130 hc        1 07V      0.049367
     16 H5          3.9050    1.2210    1.0110 hc        1 07V      0.049367
     17 H6          1.9530   -0.1860    3.4630 ha        1 07V      0.130000
     18 H7         -0.2760   -1.1360    3.2800 hc        1 07V      0.060700
     19 H8         -0.4890    0.5650    2.6990 hc        1 07V      0.060700
     20 H9         -0.0770   -1.9960    1.0050 hc        1 07V      0.059700
     21 H10        -3.7930    0.1560    1.1080 hc        1 07V      0.043367
     22 H11        -2.7390    0.3090    2.5740 hc        1 07V      0.043367
     23 H12        -2.2610    1.1210    1.0250 hc        1 07V      0.043367
     24 H13        -2.0680   -3.0410    0.3940 ha        1 07V      0.115000
     25 H14        -3.7010   -2.1950    0.6190 ha        1 07V      0.115000
@<TRIPOS>BOND
     1    1    2 1   
     2    1    8 1   
     3    1   12 1   
     4    1   13 1   
     5    2    3 2   
     6    2    4 1   
     7    4    5 1   
     8    4    6 2   
     9    5   14 1   
    10    5   15 1   
    11    5   16 1   
    12    6    7 1   
    13    6   17 1   
    14    7    8 1   
    15    7   18 1   
    16    7   19 1   
    17    8    9 1   
    18    8   20 1   
    19    9   10 1   
    20    9   11 2   
    21   10   21 1   
    22   10   22 1   
    23   10   23 1   
    24   11   24 1   
    25   11   25 1   
@<TRIPOS>SUBSTRUCTURE
     1 07V         1 TEMP              0 ****  ****    0 ROOT
