@<TRIPOS>MOLECULE
07V
   25    21     1     0     0
SMALL
bcc


@<TRIPOS>ATOM
      1 CAG        -0.7250   -0.9900   -1.3540 c3        1 07V     -0.205000
      2 CAJ         0.7840   -0.9900   -1.3540 c1        1 07V      0.264000
      3 OAD         1.3910   -1.2100   -2.3830 o         1 07V     -0.298000
      4 CAI         1.5290   -0.9900   -0.0030 c1        1 07V     -0.172000
      5 CAC         3.0100   -0.6830    0.0440 c2        1 07V     -0.174000
      6 CAE         0.6980   -0.9900    1.3010 c1        1 07V     -0.100000
      7 CAF        -0.8130   -0.9900    1.1960 c2        1 07V     -0.136000
      8 CAK        -1.3250   -0.3650   -0.0990 c3        1 07V     -0.059000
      9 CAH        -1.1260    1.2190   -0.0930 c2        1 07V     -0.117000
     10 CAB        -1.5260    2.0270    1.1220 c3        1 07V     -0.183000
     11 CAA        -0.6010    1.8360   -1.1700 c1        1 07V     -0.210000
     12 H1         -1.0400   -0.6030   -2.1930 hc        1 07V      0.113500
     13 H2         -1.0780   -1.8970   -1.4330 hc        1 07V      0.113500
     14 H3          3.1940    0.1130   -0.4890 ha        1 07V      0.088333
     15 H4          3.2800   -0.5260    0.9690 ha        1 07V      0.088333
     16 H5          3.5100   -1.4400   -0.3170 ha        1 07V      0.088333
     17 H6          1.1280   -1.1920    2.1540 ha        1 07V      0.129000
     18 H7         -1.1900   -0.7190    2.0540 ha        1 07V      0.098000
     19 H8         -1.1440   -1.9070    1.1520 ha        1 07V      0.098000
     20 H9         -2.2980   -0.4250   -0.1330 hc        1 07V      0.095000
     21 H10        -0.7920    2.0310    1.7660 hc        1 07V      0.080667
     22 H11        -1.7260    2.9430    0.8520 hc        1 07V      0.080667
     23 H12        -2.3170    1.6280    1.5320 hc        1 07V      0.080667
     24 H13        -0.3430    1.3150   -1.9540 DU        1 07V      0.124000
     25 H14        -0.4800    2.8050   -1.1660 ha        1 07V      0.115000
@<TRIPOS>BOND
     1    1    2 1   
     2    1    8 1   
     3    1   12 1   
     4    1   13 1   
     5    2    3 1   
     6    4    6 1   
     7    5   14 1   
     8    5   15 1   
     9    5   16 1   
    10    6   17 1   
    11    7    8 1   
    12    7   18 1   
    13    7   19 1   
    14    8    9 1   
    15    8   20 1   
    16    9   10 1   
    17    9   11 1   
    18   10   21 1   
    19   10   22 1   
    20   10   23 1   
    21   11   25 1   
@<TRIPOS>SUBSTRUCTURE
     1 07V         1 TEMP              0 ****  ****    0 ROOT
