@<TRIPOS>MOLECULE
07V
   25    25     1     0     0
SMALL
bcc


@<TRIPOS>ATOM
      1 CAG         0.0600   -0.1180   -0.0140 c3        1 07V     -0.175400
      2 CAJ         1.5630   -0.0450    0.0180 c         1 07V      0.569300
      3 OAD         2.2250   -0.0000   -1.0260 o         1 07V     -0.532100
      4 CAI         2.1900   -0.0030    1.3580 ce        1 07V     -0.196400
      5 CAC         3.6510    0.2380    1.3890 c3        1 07V     -0.051900
      6 CAE         1.4590   -0.1770    2.4720 c2        1 07V     -0.110200
      7 CAF        -0.0040   -0.4060    2.4680 c3        1 07V     -0.057200
      8 CAK        -0.4880   -0.9570    1.1320 c3        1 07V     -0.021500
      9 CAH        -1.9820   -1.0400    1.0680 c2        1 07V     -0.117400
     10 CAB        -2.7520    0.1720    1.4440 c3        1 07V     -0.060900
     11 CAA        -2.5930   -2.1670    0.6880 c2        1 07V     -0.215000
     12 H1         -0.3350    0.9320    0.0500 hc        1 07V      0.074700
     13 H2         -0.2750   -0.5460   -0.9950 hc        1 07V      0.074700
     14 H3          3.8740    1.2680    1.0120 hc        1 07V      0.049367
     15 H4          4.0620    0.1370    2.4220 hc        1 07V      0.049367
     16 H5          4.1710   -0.4900    0.7180 hc        1 07V      0.049367
     17 H6          1.9320   -0.1400    3.4680 ha        1 07V      0.130000
     18 H7         -0.5170    0.5720    2.6890 hc        1 07V      0.060700
     19 H8         -0.2840   -1.1210    3.2870 hc        1 07V      0.060700
     20 H9         -0.0660   -2.0000    1.0220 hc        1 07V      0.059700
     21 H10        -2.2900    1.0890    1.0020 hc        1 07V      0.043367
     22 H11        -2.7630    0.2870    2.5580 hc        1 07V      0.043367
     23 H12        -3.8100    0.1050    1.0900 hc        1 07V      0.043367
     24 H13        -2.0420   -3.0760    0.4150 ha        1 07V      0.115000
     25 H14        -3.6860   -2.2490    0.6250 ha        1 07V      0.115000
@<TRIPOS>BOND
     1    1    2 1   
     2    1    8 1   
     3    1   12 1   
     4    1   13 1   
     5    2    3 2   
     6    2    4 1   
     7    4    5 1   
     8    4    6 2   
     9    5   14 1   
    10    5   15 1   
    11    5   16 1   
    12    6    7 1   
    13    6   17 1   
    14    7    8 1   
    15    7   18 1   
    16    7   19 1   
    17    8    9 1   
    18    8   20 1   
    19    9   10 1   
    20    9   11 2   
    21   10   21 1   
    22   10   22 1   
    23   10   23 1   
    24   11   24 1   
    25   11   25 1   
@<TRIPOS>SUBSTRUCTURE
     1 07V         1 TEMP              0 ****  ****    0 ROOT
