@<TRIPOS>MOLECULE
07Z
   37    39     1     0     0
SMALL
bcc


@<TRIPOS>ATOM
      1 C1         -0.1390    0.8100    0.2430 ca        1 07Z     -0.169400
      2 N2         -0.7150    2.1630    0.2220 n4        1 07Z     -0.562100
      3 C3         -0.6960    2.5540   -1.1900 cc        1 07Z      0.326300
      4 N4         -1.3830    3.6090   -1.7000 nd        1 07Z     -0.583000
      5 C5         -1.1460    3.6160   -3.0620 cd        1 07Z      0.400200
      6 C6         -0.2980    2.5730   -3.5400 cc        1 07Z     -0.331000
      7 S7          0.1810    1.6120   -2.3120 ss        1 07Z      0.496700
      8 N8         -1.7520    4.6290   -3.9150 n4        1 07Z     -0.796300
      9 C9          0.1140    2.4320   -4.9610 c         1 07Z      0.650300
     10 C10         0.9170    1.2840   -5.3450 ca        1 07Z     -0.353900
     11 C11         0.9340    0.0510   -4.6640 ca        1 07Z     -0.065000
     12 C12         1.7410   -0.9780   -5.1390 ca        1 07Z     -0.207300
     13 C13         2.5110   -0.7490   -6.3010 ca        1 07Z      0.459200
     14 N14         2.5020    0.4170   -6.9770 nb        1 07Z     -0.656000
     15 C15         1.7180    1.4020   -6.5130 ca        1 07Z      0.478200
     16 O16        -0.2090    3.3330   -5.7580 o         1 07Z     -0.570100
     17 C17        -0.9620   -0.3120    0.4400 ca        1 07Z     -0.126500
     18 C18        -0.4760   -1.5590    0.0580 ca        1 07Z     -0.096000
     19 C19         0.7870   -1.6740   -0.5340 ca        1 07Z     -0.043600
     20 C20         1.6790   -0.5830   -0.4890 ca        1 07Z     -0.096000
     21 C21         1.2250    0.6740   -0.1270 ca        1 07Z     -0.126500
     22 C22         1.0880   -2.8090   -1.5360 c         1 07Z      0.927200
     23 O23         0.8840   -2.3860   -2.7130 o         1 07Z     -0.764300
     24 O24         1.4600   -3.9250   -1.1500 o         1 07Z     -0.764300
     25 HN2        -1.6760    2.1590    0.5900 hn        1 07Z      0.472300
     26 HN8        -1.1420    4.7650   -4.7490 hn        1 07Z      0.487467
     27 HN8A       -2.6730    4.2950   -4.2290 hn        1 07Z      0.487467
     28 H11         0.2930   -0.1680   -3.7890 ha        1 07Z      0.150000
     29 H12         1.7630   -1.9560   -4.6160 ha        1 07Z      0.234000
     30 H13         3.1630   -1.5440   -6.7150 h4        1 07Z      0.056100
     31 H15         1.7200    2.3460   -7.0930 h4        1 07Z      0.046100
     32 H17        -1.9840   -0.2130    0.8390 ha        1 07Z      0.151000
     33 H18        -1.1030   -2.4610    0.1710 ha        1 07Z      0.187500
     34 H20         2.7300   -0.7390   -0.7880 ha        1 07Z      0.187500
     35 H21         1.9210    1.5270   -0.0770 ha        1 07Z      0.151000
     36 H22        -0.1430    2.8190    0.7730 hn        1 07Z      0.472300
     37 H83        -1.8630    5.5170   -3.4110 hn        1 07Z      0.487467
@<TRIPOS>BOND
     1    1    2 1   
     2    1   17 ar  
     3    1   21 ar  
     4    2    3 1   
     5    2   25 1   
     6    2   36 1   
     7    3    4 2   
     8    3    7 1   
     9    4    5 1   
    10    5    6 2   
    11    5    8 1   
    12    6    7 1   
    13    6    9 1   
    14    8   26 1   
    15    8   27 1   
    16    8   37 1   
    17    9   10 1   
    18    9   16 2   
    19   10   11 ar  
    20   10   15 ar  
    21   11   12 ar  
    22   11   28 1   
    23   12   13 ar  
    24   12   29 1   
    25   13   14 ar  
    26   13   30 1   
    27   14   15 ar  
    28   15   31 1   
    29   17   18 ar  
    30   17   32 1   
    31   18   19 ar  
    32   18   33 1   
    33   19   20 ar  
    34   19   22 1   
    35   20   21 ar  
    36   20   34 1   
    37   21   35 1   
    38   22   23 1   
    39   22   24 1   
@<TRIPOS>SUBSTRUCTURE
     1 07Z         1 TEMP              0 ****  ****    0 ROOT
