@<TRIPOS>MOLECULE
07Z
   35    37     1     0     0
SMALL
bcc


@<TRIPOS>ATOM
      1 C1          0.3510   -0.1050   -0.0680 ca        1 07Z      0.066600
      2 N2         -0.1130   -0.1790   -1.4110 nh        1 07Z     -0.683300
      3 C3          0.3580    0.5990   -2.4350 cc        1 07Z      0.758300
      4 N4          1.4930    1.3330   -2.4380 nd        1 07Z     -0.765000
      5 C5          1.6790    1.9090   -3.7080 cd        1 07Z      0.749200
      6 C6          0.6640    1.6100   -4.6690 cc        1 07Z     -0.426000
      7 S7         -0.5190    0.6150   -3.9640 ss        1 07Z     -0.244300
      8 N8          2.7560    2.6990   -3.9640 nh        1 07Z     -0.944500
      9 C9          0.6590    2.0460   -6.0300 c         1 07Z      0.648300
     10 C10        -0.4860    1.6270   -6.8800 ca        1 07Z     -0.255900
     11 C11        -1.8060    1.5990   -6.4180 ca        1 07Z     -0.068000
     12 C12        -2.8190    1.2020   -7.2930 ca        1 07Z     -0.257300
     13 C13        -2.4720    0.8460   -8.6080 ca        1 07Z      0.399200
     14 N14        -1.2080    0.8750   -9.0770 nb        1 07Z     -0.678000
     15 C15        -0.2430    1.2650   -8.2260 ca        1 07Z      0.435200
     16 O16         1.5690    2.7350   -6.5400 o         1 07Z     -0.618100
     17 C17         1.7170   -0.2110    0.2490 ca        1 07Z     -0.156000
     18 C18         2.1170   -0.2070    1.5840 ca        1 07Z     -0.099500
     19 C19         1.1840   -0.1050    2.6180 ca        1 07Z     -0.117600
     20 C20        -0.1740    0.0020    2.2980 ca        1 07Z     -0.099500
     21 C21        -0.5970    0.0070    0.9750 ca        1 07Z     -0.156000
     22 C22         1.6320   -0.1140    4.0740 c         1 07Z      0.908200
     23 O23         2.8680   -0.2130    4.3090 o         1 07Z     -0.824800
     24 O24         0.7380   -0.0230    4.9620 o         1 07Z     -0.824800
     25 HN2        -1.0670   -0.4590   -1.5030 hn        1 07Z      0.429800
     26 HN8         3.4400    2.8610   -3.2680 hn        1 07Z      0.457800
     27 HN8A        2.8650    3.0720   -4.8790 hn        1 07Z      0.457800
     28 H11        -2.0460    1.8950   -5.3830 ha        1 07Z      0.157000
     29 H12        -3.8660    1.1690   -6.9650 ha        1 07Z      0.141000
     30 H13        -3.2430    0.5230   -9.3290 h4        1 07Z      0.015100
     31 H15         0.7880    1.3000   -8.6270 h4        1 07Z      0.037100
     32 H17         2.4730   -0.2960   -0.5440 ha        1 07Z      0.119500
     33 H18         3.1840   -0.2880    1.8510 ha        1 07Z      0.158500
     34 H20        -0.8980    0.0830    3.1260 ha        1 07Z      0.158500
     35 H21        -1.6690    0.0940    0.7490 ha        1 07Z      0.119500
@<TRIPOS>BOND
     1    1    2 1   
     2    1   17 ar  
     3    1   21 ar  
     4    2    3 1   
     5    2   25 1   
     6    3    4 2   
     7    3    7 1   
     8    4    5 1   
     9    5    6 2   
    10    5    8 1   
    11    6    7 1   
    12    6    9 1   
    13    8   26 1   
    14    8   27 1   
    15    9   10 1   
    16    9   16 2   
    17   10   11 ar  
    18   10   15 ar  
    19   11   12 ar  
    20   11   28 1   
    21   12   13 ar  
    22   12   29 1   
    23   13   14 ar  
    24   13   30 1   
    25   14   15 ar  
    26   15   31 1   
    27   17   18 ar  
    28   17   32 1   
    29   18   19 ar  
    30   18   33 1   
    31   19   20 ar  
    32   19   22 1   
    33   20   21 ar  
    34   20   34 1   
    35   21   35 1   
    36   22   23 1   
    37   22   24 1   
@<TRIPOS>SUBSTRUCTURE
     1 07Z         1 TEMP              0 ****  ****    0 ROOT
