@<TRIPOS>MOLECULE
07Z
   35    37     1     0     0
SMALL
bcc


@<TRIPOS>ATOM
      1 C1          0.3490   -0.1050   -0.0740 ca        1 07Z      0.066600
      2 N2         -0.1170   -0.1720   -1.4160 nu        1 07Z     -0.683300
      3 C3          0.3560    0.6080   -2.4380 cc        1 07Z      0.758300
      4 N4          1.4950    1.3340   -2.4410 nd        1 07Z     -0.765000
      5 C5          1.6810    1.9150   -3.7090 cd        1 07Z      0.749200
      6 C6          0.6630    1.6260   -4.6690 cc        1 07Z     -0.426000
      7 S7         -0.5250    0.6340   -3.9650 ss        1 07Z     -0.244300
      8 N8          2.7630    2.6990   -3.9650 nv        1 07Z     -0.944500
      9 C9          0.6570    2.0670   -6.0290 c         1 07Z      0.648300
     10 C10        -0.4920    1.6580   -6.8780 ca        1 07Z     -0.255900
     11 C11        -1.8110    1.6360   -6.4130 ca        1 07Z     -0.068000
     12 C12        -2.8290    1.2480   -7.2870 ca        1 07Z     -0.257300
     13 C13        -2.4860    0.8960   -8.6040 ca        1 07Z      0.399200
     14 N14        -1.2230    0.9200   -9.0760 nb        1 07Z     -0.678000
     15 C15        -0.2540    1.3000   -8.2250 ca        1 07Z      0.435200
     16 O16         1.5700    2.7520   -6.5370 o         1 07Z     -0.618100
     17 C17         1.7160   -0.2210    0.2400 ca        1 07Z     -0.156000
     18 C18         2.1180   -0.2240    1.5740 ca        1 07Z     -0.099500
     19 C19         1.1880   -0.1200    2.6100 ca        1 07Z     -0.117600
     20 C20        -0.1690   -0.0040    2.2930 ca        1 07Z     -0.099500
     21 C21        -0.5950    0.0090    0.9710 ca        1 07Z     -0.156000
     22 C22         1.6390   -0.1370    4.0650 c         1 07Z      0.908200
     23 O23         2.8750   -0.2440    4.2970 o         1 07Z     -0.824800
     24 O24         0.7480   -0.0440    4.9550 o         1 07Z     -0.824800
     25 HN2        -1.0730   -0.4460   -1.5080 hn        1 07Z      0.429800
     26 HN8         3.4490    2.8560   -3.2690 hn        1 07Z      0.457800
     27 HN8A        2.8720    3.0760   -4.8780 hn        1 07Z      0.457800
     28 H11        -2.0470    1.9290   -5.3760 ha        1 07Z      0.157000
     29 H12        -3.8740    1.2200   -6.9560 ha        1 07Z      0.141000
     30 H13        -3.2610    0.5800   -9.3250 h4        1 07Z      0.015100
     31 H15         0.7760    1.3310   -8.6290 h4        1 07Z      0.037100
     32 H17         2.4700   -0.3070   -0.5560 ha        1 07Z      0.119500
     33 H18         3.1860   -0.3120    1.8380 ha        1 07Z      0.158500
     34 H20        -0.8910    0.0790    3.1230 ha        1 07Z      0.158500
     35 H21        -1.6680    0.1020    0.7480 ha        1 07Z      0.119500
@<TRIPOS>BOND
     1    1    2 1   
     2    1   17 ar  
     3    1   21 ar  
     4    2    3 1   
     5    2   25 1   
     6    3    4 2   
     7    3    7 1   
     8    4    5 1   
     9    5    6 2   
    10    5    8 1   
    11    6    7 1   
    12    6    9 1   
    13    8   26 1   
    14    8   27 1   
    15    9   10 1   
    16    9   16 2   
    17   10   11 ar  
    18   10   15 ar  
    19   11   12 ar  
    20   11   28 1   
    21   12   13 ar  
    22   12   29 1   
    23   13   14 ar  
    24   13   30 1   
    25   14   15 ar  
    26   15   31 1   
    27   17   18 ar  
    28   17   32 1   
    29   18   19 ar  
    30   18   33 1   
    31   19   20 ar  
    32   19   22 1   
    33   20   21 ar  
    34   20   34 1   
    35   21   35 1   
    36   22   23 1   
    37   22   24 1   
@<TRIPOS>SUBSTRUCTURE
     1 07Z         1 TEMP              0 ****  ****    0 ROOT
