@<TRIPOS>MOLECULE
07Z
   35    30     1     0     0
SMALL
bcc


@<TRIPOS>ATOM
      1 C1          1.2780   -1.9580    1.9860 c1        1 07Z     -0.014000
      2 N2          0.7480   -0.7060    2.3910 n2        1 07Z     -0.204000
      3 C3          0.6770    0.3660    1.4650 c2        1 07Z     -0.013000
      4 N4          1.6910    0.7370    0.5300 n2        1 07Z     -0.240000
      5 C5          1.1470    1.9180   -0.3490 c1        1 07Z      0.228000
      6 C6         -0.1930    2.2280    0.0860 c1        1 07Z     -0.613000
      7 S7         -0.5440    1.2810    1.2290 ss        1 07Z      0.350000
      8 N8          1.8530    2.5690   -1.3940 n2        1 07Z     -0.343000
      9 C9         -1.0620    3.3490   -0.4380 c1        1 07Z      0.368000
     10 C10        -2.2830    3.0320   -1.2720 c2        1 07Z     -0.170000
     11 C11        -3.0480    4.0450   -1.7760 c2        1 07Z     -0.052000
     12 C12        -4.1420    3.7570   -2.5380 c1        1 07Z     -0.195000
     13 C13        -4.4760    2.4380   -2.8010 c1        1 07Z     -0.067000
     14 N14        -3.7130    1.4280   -2.2980 n1        1 07Z     -0.147000
     15 C15        -2.6190    1.7140   -1.5360 c1        1 07Z     -0.048000
     16 O16        -0.7610    4.5050   -0.2170 o         1 07Z     -0.381000
     17 C17         0.5030   -2.8300    1.2370 c2        1 07Z     -0.182000
     18 C18         1.0100   -4.0650    0.8670 c1        1 07Z     -0.096000
     19 C19         2.2930   -4.4290    1.2450 c1        1 07Z     -0.097000
     20 C20         3.0690   -3.5580    1.9930 c1        1 07Z     -0.103000
     21 C21         2.5610   -2.3220    2.3640 c1        1 07Z     -0.129000
     22 C22         2.8660   -5.7550    0.7950 c2        1 07Z      0.357000
     23 O23         2.7490   -6.7720    1.5280 o         1 07Z     -0.560000
     24 O24         3.4760   -5.8380   -0.3030 o         1 07Z     -0.560000
     25 HN2         0.4330   -0.5980    3.2400 hn        1 07Z      0.227000
     26 HN8         1.4460    3.2280   -1.8790 hn        1 07Z      0.252500
     27 HN8A        2.7160    2.3310   -1.5810 hn        1 07Z      0.252500
     28 H11        -2.8110    4.9730   -1.5900 ha        1 07Z      0.153000
     29 H12        -4.6710    4.4810   -2.9240 ha        1 07Z      0.139000
     30 H13        -5.2590    2.2320   -3.3460 ha        1 07Z      0.153000
     31 H15        -2.0730    0.9900   -1.1760 ha        1 07Z      0.177000
     32 H17        -0.4070   -2.5810    0.9860 ha        1 07Z      0.107000
     33 H18         0.4640   -4.6780    0.3390 ha        1 07Z      0.158000
     34 H20         3.9720   -3.8140    2.2600 ha        1 07Z      0.159000
     35 H21         3.1130   -1.7010    2.8770 ha        1 07Z      0.133000
@<TRIPOS>BOND
     1    1   17 1   
     2    1   21 1   
     3    2    3 1   
     4    2   25 1   
     5    3    4 1   
     6    3    7 1   
     7    4    5 1   
     8    5    6 1   
     9    6    7 1   
    10    8   26 1   
    11    8   27 1   
    12    9   10 1   
    13    9   16 1   
    14   10   11 1   
    15   10   15 1   
    16   11   12 1   
    17   11   28 1   
    18   12   29 1   
    19   13   14 1   
    20   13   30 1   
    21   15   31 1   
    22   17   18 1   
    23   17   32 1   
    24   18   33 1   
    25   19   20 1   
    26   19   22 1   
    27   20   34 1   
    28   21   35 1   
    29   22   23 1   
    30   22   24 1   
@<TRIPOS>SUBSTRUCTURE
     1 07Z         1 TEMP              0 ****  ****    0 ROOT
