@<TRIPOS>MOLECULE
07Z
   35    37     1     0     0
SMALL
bcc


@<TRIPOS>ATOM
      1 C1         -2.5020   -0.7410    0.3460 ca        1 07Z      0.066600
      2 N2         -1.1130   -0.9880    0.5310 nh        1 07Z     -0.683300
      3 C3         -0.1180   -0.1190    0.1690 cc        1 07Z      0.758300
      4 N4         -0.2590    1.1890   -0.1380 nd        1 07Z     -0.765000
      5 C5          1.0090    1.7610   -0.3570 cd        1 07Z      0.749200
      6 C6          2.1150    0.8660   -0.2210 cc        1 07Z     -0.426000
      7 S7          1.5500   -0.6880    0.1720 ss        1 07Z     -0.244300
      8 N8          1.1320    3.0750   -0.6840 nh        1 07Z     -0.944500
      9 C9          3.4910    1.2260   -0.3540 c         1 07Z      0.648300
     10 C10         4.5020    0.1510   -0.1720 ca        1 07Z     -0.255900
     11 C11         4.3310   -1.1450   -0.6680 ca        1 07Z     -0.068000
     12 C12         5.3410   -2.0870   -0.4590 ca        1 07Z     -0.257300
     13 C13         6.4920   -1.6940    0.2450 ca        1 07Z      0.399200
     14 N14         6.6810   -0.4470    0.7240 nb        1 07Z     -0.678000
     15 C15         5.7040    0.4510    0.5100 ca        1 07Z      0.435200
     16 O16         3.8830    2.3890   -0.5920 o         1 07Z     -0.618100
     17 C17        -3.1130    0.4310    0.8260 ca        1 07Z     -0.156000
     18 C18        -4.4900    0.5970    0.6870 ca        1 07Z     -0.099500
     19 C19        -5.2790   -0.3840    0.0830 ca        1 07Z     -0.117600
     20 C20        -4.6660   -1.5470   -0.3950 ca        1 07Z     -0.099500
     21 C21        -3.2950   -1.7330   -0.2750 ca        1 07Z     -0.156000
     22 C22        -6.7850   -0.1980   -0.0530 c         1 07Z      0.908200
     23 O23        -7.2880    0.8700    0.3950 o         1 07Z     -0.824800
     24 O24        -7.4420   -1.1240   -0.6050 o         1 07Z     -0.824800
     25 HN2        -0.8580   -1.9540    0.4960 hn        1 07Z      0.429800
     26 HN8         0.3350    3.6570   -0.7500 hn        1 07Z      0.457800
     27 HN8A        2.0440    3.4490   -0.8120 hn        1 07Z      0.457800
     28 H11         3.4190   -1.4180   -1.2260 ha        1 07Z      0.157000
     29 H12         5.2410   -3.1130   -0.8340 ha        1 07Z      0.141000
     30 H13         7.3110   -2.4090    0.4360 h4        1 07Z      0.015100
     31 H15         5.8780    1.4740    0.8940 h4        1 07Z      0.037100
     32 H17        -2.5170    1.2190    1.3090 ha        1 07Z      0.119500
     33 H18        -4.9860    1.5100    1.0570 ha        1 07Z      0.158500
     34 H20        -5.3020   -2.3120   -0.8720 ha        1 07Z      0.158500
     35 H21        -2.8360   -2.6550   -0.6600 ha        1 07Z      0.119500
@<TRIPOS>BOND
     1    1    2 1   
     2    1   17 ar  
     3    1   21 ar  
     4    2    3 1   
     5    2   25 1   
     6    3    4 2   
     7    3    7 1   
     8    4    5 1   
     9    5    6 2   
    10    5    8 1   
    11    6    7 1   
    12    6    9 1   
    13    8   26 1   
    14    8   27 1   
    15    9   10 1   
    16    9   16 2   
    17   10   11 ar  
    18   10   15 ar  
    19   11   12 ar  
    20   11   28 1   
    21   12   13 ar  
    22   12   29 1   
    23   13   14 ar  
    24   13   30 1   
    25   14   15 ar  
    26   15   31 1   
    27   17   18 ar  
    28   17   32 1   
    29   18   19 ar  
    30   18   33 1   
    31   19   20 ar  
    32   19   22 1   
    33   20   21 ar  
    34   20   34 1   
    35   21   35 1   
    36   22   23 1   
    37   22   24 1   
@<TRIPOS>SUBSTRUCTURE
     1 07Z         1 TEMP              0 ****  ****    0 ROOT
