@<TRIPOS>MOLECULE
082
   56    59     1     0     0
SMALL
bcc


@<TRIPOS>ATOM
      1 C11        -0.2390    0.2670   -0.5220 c2        1 082     -0.523000
      2 C10        -0.1110    0.5870   -1.8070 c1        1 082      0.396000
      3 C21         5.0790   -1.1940    6.5730 c2        1 082     -0.214000
      4 C2         -1.8240   -1.5870    5.2330 c3        1 082     -0.198000
      5 C20         4.6830   -2.5690    6.6680 c2        1 082      0.059000
      6 C22         4.7060   -0.4330    5.5160 c2        1 082     -0.025000
      7 C12         0.4610   -0.7930    0.0760 c1        1 082     -0.016000
      8 C13         2.7010   -2.0190    1.5660 c2        1 082     -0.154000
      9 C3         -2.8280   -2.0180    6.1920 c1        1 082     -0.047000
     10 C18         3.6790   -2.4600    4.4560 c1        1 082     -0.133000
     11 C5         -4.7740   -1.7190    4.5090 c1        1 082      0.098000
     12 C1         -2.3540   -1.2190    3.9120 c2        1 082     -0.096000
     13 C19         3.9720   -3.1560    5.6520 c2        1 082     -0.209000
     14 C17         3.9510   -1.0220    4.3770 c3        1 082     -0.192000
     15 C8          0.3220   -1.2000    1.4770 c3        1 082      0.004000
     16 C7          1.7200   -1.2990    2.1170 c2        1 082     -0.084000
     17 C6         -3.7190   -1.3380    3.6340 c2        1 082     -0.156000
     18 C4         -4.2200   -2.2910    5.7780 c3        1 082     -0.102000
     19 C14        -1.7830   -0.6810    2.6770 c2        1 082     -0.025000
     20 C24         3.4890   -5.2360    4.3600 c2        1 082      0.325000
     21 C25         1.2820   -4.7280    4.7760 c2        1 082      0.411000
     22 C9          0.3940    0.0810    3.4850 c2        1 082      0.398000
     23 C23         3.3960   -4.5360    5.7420 c3        1 082      0.124000
     24 C26         3.9220   -5.4100    6.8550 c3        1 082     -0.218000
     25 C15        -4.9060   -2.7100    8.0150 c3        1 082     -0.085000
     26 N3         -2.8030   -0.5330    1.7690 n2        1 082      0.017000
     27 N4          2.1690   -5.3310    3.8750 ns        1 082     -0.383000
     28 N1         -0.4480   -0.3360    2.4070 n         1 082     -0.245000
     29 N2          1.7310   -0.5110    3.3200 n         1 082     -0.142000
     30 O5          0.0740   -4.4960    4.6940 o         1 082     -0.342000
     31 O1          0.0760    0.8590    4.3850 o         1 082     -0.246000
     32 O2         -3.9280   -0.9080    2.3000 os        1 082      0.018000
     33 O4          1.9410   -4.3720    5.9420 os        1 082     -0.229000
     34 O3         -5.1480   -1.9820    6.8190 os        1 082     -0.217000
     35 H1         -0.9550    0.8970    0.0640 ha        1 082      0.207000
     36 H2          2.5260   -2.5290    0.6060 ha        1 082      0.150500
     37 H3          5.6630   -0.7700    7.4050 ha        1 082      0.149000
     38 H4         -1.2530   -0.7160    5.6850 hc        1 082      0.196000
     39 H5          4.9600   -3.1230    7.5820 ha        1 082      0.143000
     40 H6          4.9270    0.6450    5.4670 ha        1 082      0.151000
     41 H7         -0.1370   -2.2400    1.4340 h1        1 082      0.157000
     42 H8          3.6900   -2.1610    2.0210 ha        1 082      0.150500
     43 H9         -1.0710   -2.4400    5.1600 hc        1 082      0.196000
     44 H10         4.5620   -0.8510    3.4330 hc        1 082      0.180000
     45 H11        -4.2310   -3.4250    5.5910 h1        1 082      0.165000
     46 H12         3.6730   -4.9600    7.8460 hc        1 082      0.103667
     47 H13         3.4550   -6.4230    6.8030 hc        1 082      0.103667
     48 H14         5.0300   -5.5130    6.7540 hc        1 082      0.103667
     49 H15        -5.6540   -2.2900    8.7340 h1        1 082      0.083667
     50 H16        -3.8630   -2.5470    8.3800 h1        1 082      0.083667
     51 H17        -5.0920   -3.8000    7.8470 h1        1 082      0.083667
     52 H18        -0.1030   -3.4040    6.9250 ha        1 082      0.002000
     53 H19         0.0670   -3.8920    7.3630 ha        1 082      0.002000
     54 H20         1.9200   -5.5890    2.9540 hn        1 082      0.274000
     55 C16         2.6210   -0.3050    4.2730 c1        1 082      0.033000
     56 O6          4.4860   -5.6710    3.7880 o         1 082     -0.284000
@<TRIPOS>BOND
     1    1    2 1   
     2    1    7 1   
     3    1   35 1   
     4    3    5 1   
     5    3    6 1   
     6    3   37 1   
     7    4    9 1   
     8    4   12 1   
     9    4   38 1   
    10    4   43 1   
    11    5   13 1   
    12    5   39 1   
    13    6   14 1   
    14    6   40 1   
    15    7   15 1   
    16    8   16 1   
    17    8   36 1   
    18    8   42 1   
    19    9   18 1   
    20   10   13 1   
    21   10   14 1   
    22   11   17 1   
    23   11   18 1   
    24   12   17 1   
    25   12   19 1   
    26   13   23 1   
    27   14   44 1   
    28   14   55 1   
    29   15   16 1   
    30   15   28 1   
    31   15   41 1   
    32   16   29 1   
    33   17   32 1   
    34   18   34 1   
    35   18   45 1   
    36   19   26 1   
    37   19   28 1   
    38   20   23 1   
    39   20   27 1   
    40   20   56 1   
    41   21   27 1   
    42   21   30 1   
    43   21   33 1   
    44   22   28 1   
    45   22   29 1   
    46   22   31 1   
    47   23   24 1   
    48   23   33 1   
    49   24   46 1   
    50   24   47 1   
    51   24   48 1   
    52   25   34 1   
    53   25   49 1   
    54   25   50 1   
    55   25   51 1   
    56   26   32 1   
    57   27   54 1   
    58   29   55 1   
    59   52   53 1   
@<TRIPOS>SUBSTRUCTURE
     1 082         1 TEMP              0 ****  ****    0 ROOT
