@<TRIPOS>MOLECULE
082
   56    43     1     0     0
SMALL
bcc


@<TRIPOS>ATOM
      1 C11        -1.3100    0.3940   -4.7720 c1        1 082     -0.110500
      2 C10         0.0810    0.5340   -4.8020 c1        1 082     -0.110500
      3 C21         2.5720   -2.4680    1.2560 c1        1 082     -0.110500
      4 C2         -4.8900    2.0500    0.0840 c1        1 082     -0.110500
      5 C20         3.8480   -2.1940    1.8080 c1        1 082     -0.083000
      6 C22         1.9150   -1.4910    0.4790 c1        1 082     -0.110500
      7 C12        -1.9770    0.2890   -3.5500 c1        1 082     -0.110500
      8 C13         0.8140    0.5690   -3.5980 c1        1 082     -0.110500
      9 C3         -6.2060    2.1390    0.5500 c1        1 082     -0.110500
     10 C18         3.7760    0.0090    0.8000 c1        1 082     -0.094000
     11 C5         -6.3290   -0.2400    0.6620 c1        1 082     -0.213000
     12 C1         -4.2990    0.8120   -0.0900 c1        1 082     -0.031250
     13 C19         4.4430   -0.9820    1.5880 c1        1 082     -0.113000
     14 C17         2.5190   -0.2610    0.2560 c1        1 082     -0.127000
     15 C8         -1.2500    0.3240   -2.3490 c1        1 082     -0.031250
     16 C7          0.1540    0.4650   -2.3800 c1        1 082     -0.031250
     17 C6         -4.9990   -0.3280    0.1910 c1        1 082     -0.031250
     18 C4         -6.9160    0.9930    0.8350 c1        1 082      0.123000
     19 C14        -3.0200    0.4430   -0.4910 c1        1 082      0.055000
     20 C24         6.6420   -0.6680    0.9490 c1        1 082      0.299000
     21 C25         7.3510   -2.2880    2.2770 c1        1 082      0.397000
     22 C9         -0.5260    0.5220   -0.1470 c1        1 082      0.377000
     23 C23         5.7610   -0.7080    2.1310 c2        1 082      0.108000
     24 C26         5.5540    0.5540    2.9290 c3        1 082     -0.213000
     25 C15        -9.3470    1.0330    0.9350 c3        1 082     -0.080000
     26 C16         2.0360    0.8400   -0.6010 c3        1 082      0.019000
     27 N3         -2.9430   -0.9020   -0.4540 n2        1 082     -0.048000
     28 N4          7.5550   -1.6640    1.0680 n1        1 082     -0.394000
     29 N1         -1.6800    0.3940   -0.9510 n1        1 082     -0.160000
     30 N2          0.6240    0.5680   -1.0220 n1        1 082     -0.229000
     31 O6          6.5330    0.1030   -0.0100 o         1 082     -0.293000
     32 O5          8.1200   -3.1130    2.8140 o         1 082     -0.288000
     33 O1         -0.4990    0.5150    1.0870 o         1 082     -0.334000
     34 O2         -4.1730   -1.3930   -0.0300 o         1 082     -0.059000
     35 O4          6.1080   -1.8560    2.7850 os        1 082     -0.232000
     36 O3         -8.1280    0.9850    1.6750 os        1 082     -0.204000
     37 H1         -1.7980    0.3690   -5.5770 ha        1 082      0.152500
     38 H2          0.5420    0.6070   -5.6510 ha        1 082      0.152500
     39 H3          2.1390   -3.3530    1.4160 ha        1 082      0.152500
     40 H4         -4.3790    2.8760   -0.1190 ha        1 082      0.152500
     41 H5          4.3050   -2.8750    2.3470 ha        1 082      0.157000
     42 H6          1.0440   -1.6790    0.1010 ha        1 082      0.152500
     43 H7         -2.9910    0.1900   -3.5290 ha        1 082      0.152500
     44 H8          1.8190    0.6700   -3.6210 ha        1 082      0.152500
     45 H9         -6.5970    2.9600    0.6650 ha        1 082      0.152500
     46 H10         4.2110    0.8910    0.6380 ha        1 082      0.152000
     47 H11        -6.8220   -1.0380    0.8610 ha        1 082      0.162000
     48 H12         5.0900    1.1640    2.4210 hc        1 082      0.104667
     49 H13         6.4160    0.9270    3.1770 hc        1 082      0.104667
     50 H14         5.0520    0.3540    3.7240 hc        1 082      0.104667
     51 H15       -10.0710    1.4440    1.5060 h1        1 082      0.089000
     52 H16        -9.2150    1.5960    0.0960 h1        1 082      0.089000
     53 H17        -9.5970    0.1680    0.6910 h1        1 082      0.089000
     54 H18         2.0680    1.7000   -0.0880 h1        1 082      0.120000
     55 H19         2.6330    0.9150   -1.4280 h1        1 082      0.120000
     56 H20         8.2340   -1.8630    0.4540 hn        1 082      0.281000
@<TRIPOS>BOND
     1    1    7 1   
     2    1   37 1   
     3    2    8 1   
     4    2   38 1   
     5    3    6 1   
     6    3   39 1   
     7    4    9 1   
     8    4   40 1   
     9    5   13 1   
    10    5   41 1   
    11    6   42 1   
    12    7   43 1   
    13    8   44 1   
    14    9   45 1   
    15   10   14 1   
    16   10   46 1   
    17   11   18 1   
    18   11   47 1   
    19   12   17 1   
    20   14   26 1   
    21   15   16 1   
    22   18   36 1   
    23   19   27 1   
    24   20   23 1   
    25   20   31 1   
    26   21   32 1   
    27   21   35 1   
    28   22   29 1   
    29   22   33 1   
    30   23   24 1   
    31   23   35 1   
    32   24   48 1   
    33   24   49 1   
    34   24   50 1   
    35   25   36 1   
    36   25   51 1   
    37   25   52 1   
    38   25   53 1   
    39   26   30 1   
    40   26   54 1   
    41   26   55 1   
    42   27   34 1   
    43   28   56 1   
@<TRIPOS>SUBSTRUCTURE
     1 082         1 TEMP              0 ****  ****    0 ROOT
