@<TRIPOS>MOLECULE
082
   56    61     1     0     0
SMALL
bcc


@<TRIPOS>ATOM
      1 C11         0.1930    1.9000    1.7380 c2        1 082     -0.535000
      2 C10        -0.2900    3.0440    2.2300 c1        1 082      0.439000
      3 C21         5.6330   -1.4770    5.3040 c2        1 082     -0.180000
      4 C2         -1.7960   -2.6040    5.1970 c2        1 082     -0.137000
      5 C20         4.8020   -2.3660    5.8290 cu        1 082     -0.159000
      6 C22         5.2110   -1.2410    3.8580 c3        1 082     -0.113000
      7 C12        -0.4780    0.6910    1.9730 c1        1 082     -0.031000
      8 C13         2.2010   -0.1980    0.3020 c2        1 082     -0.162000
      9 C3         -2.6380   -2.8700    6.2230 c2        1 082     -0.084000
     10 C18         3.7610   -2.8370    4.8530 cu        1 082     -0.079000
     11 C5         -4.7100   -2.2810    4.8190 c1        1 082     -0.017000
     12 C1         -2.3530   -2.2150    3.9430 c2        1 082     -0.017000
     13 C19         3.7710   -3.3260    6.0920 cu        1 082     -0.042000
     14 C17         3.9690   -2.1800    3.5460 c3        1 082      0.096000
     15 C8         -0.0660   -0.5970    1.3910 c3        1 082      0.042000
     16 C7          1.4310   -0.8260    1.1940 c2        1 082     -0.109000
     17 C6         -3.7520   -2.1110    3.8020 c2        1 082     -0.138000
     18 C4         -4.1260   -2.8730    6.0500 c3        1 082     -0.019000
     19 C14        -1.8380   -1.8140    2.6300 c2        1 082      0.026000
     20 C24         2.9190   -5.6200    6.5450 c2        1 082      0.298000
     21 C25         0.9340   -4.6570    7.2130 c2        1 082      0.403000
     22 C9          0.5790   -2.4600    2.7060 c2        1 082      0.233000
     23 C23         3.2230   -4.2040    7.1130 c3        1 082      0.157000
     24 C26         4.0920   -4.2850    8.3540 c3        1 082     -0.210000
     25 C15        -6.1160   -2.3440    7.2450 c3        1 082     -0.076000
     26 N3         -2.9110   -1.5130    1.8280 n2        1 082      0.001000
     27 N4          1.5310   -5.8000    6.6590 n         1 082     -0.392000
     28 N1         -0.5110   -1.7430    2.2030 n         1 082     -0.234000
     29 N2          1.9320   -1.8650    2.1240 n4        1 082      0.201000
     30 O5         -0.2410   -4.4050    7.4680 o         1 082     -0.314000
     31 O1          0.5630   -3.4430    3.4480 o         1 082     -0.285000
     32 O2         -4.0250   -1.6680    2.4860 os        1 082      0.005000
     33 O4          1.8960   -3.7070    7.5200 os        1 082     -0.223000
     34 O3         -4.6950   -2.3520    7.2500 os        1 082     -0.246000
     35 H1          1.1550    1.9480    1.1750 ha        1 082      0.173000
     36 H2          1.7750    0.5290   -0.4030 ha        1 082      0.148000
     37 H3          4.9300   -0.1710    3.7090 hc        1 082      0.089500
     38 H4         -0.7020   -2.6800    5.3070 ha        1 082      0.170000
     39 H5          6.4790   -0.9530    5.7420 ha        1 082      0.153000
     40 H6          6.0450   -1.4960    3.1620 hc        1 082      0.089500
     41 H7         -0.5950   -0.6520    0.3810 h1        1 082      0.165000
     42 H8          3.2850   -0.3680    0.2230 ha        1 082      0.148000
     43 H9         -2.2590   -3.1430    7.2230 ha        1 082      0.180000
     44 H10         4.2900   -2.9700    2.8090 hc        1 082      0.090000
     45 H11        -4.4340   -3.9750    5.9480 h1        1 082      0.144000
     46 H12         4.2730   -3.2580    8.7520 hc        1 082      0.108333
     47 H13         3.5830   -4.8930    9.1390 hc        1 082      0.108333
     48 H14         5.0680   -4.7580    8.0880 hc        1 082      0.108333
     49 H15        -6.5090   -1.7390    6.3920 h1        1 082      0.084000
     50 H16        -6.5080   -3.3900    7.1870 h1        1 082      0.084000
     51 H17        -6.3800   -1.8770    8.2270 h1        1 082      0.084000
     52 H18         2.5660   -0.4660    3.5850 hx        1 082      0.158000
     53 H19         2.3330   -2.6440    1.5930 hn        1 082      0.230000
     54 H20         1.0190   -6.5690    6.3060 hn        1 082      0.279000
     55 C16         2.8540   -1.3710    3.0430 c2        1 082     -0.616000
     56 O6          3.7090   -6.4540    6.1070 o         1 082     -0.275000
@<TRIPOS>BOND
     1    1    2 1   
     2    1    7 1   
     3    1   35 1   
     4    3    5 1   
     5    3    6 1   
     6    3   39 1   
     7    4    9 1   
     8    4   12 1   
     9    4   38 1   
    10    5   10 1   
    11    5   13 1   
    12    6   14 1   
    13    6   37 1   
    14    6   40 1   
    15    7   15 1   
    16    8   16 1   
    17    8   36 1   
    18    8   42 1   
    19    9   18 1   
    20    9   43 1   
    21   10   13 1   
    22   10   14 1   
    23   11   17 1   
    24   11   18 1   
    25   12   17 1   
    26   12   19 1   
    27   13   23 1   
    28   14   44 1   
    29   14   55 1   
    30   15   16 1   
    31   15   28 1   
    32   15   41 1   
    33   16   29 1   
    34   17   32 1   
    35   18   34 1   
    36   18   45 1   
    37   19   26 1   
    38   19   28 1   
    39   20   23 1   
    40   20   27 1   
    41   20   56 1   
    42   21   27 1   
    43   21   30 1   
    44   21   33 1   
    45   22   28 1   
    46   22   29 1   
    47   22   31 1   
    48   23   24 1   
    49   23   33 1   
    50   24   46 1   
    51   24   47 1   
    52   24   48 1   
    53   25   34 1   
    54   25   49 1   
    55   25   50 1   
    56   25   51 1   
    57   26   32 1   
    58   27   54 1   
    59   29   53 1   
    60   29   55 1   
    61   52   55 1   
@<TRIPOS>SUBSTRUCTURE
     1 082         1 TEMP              0 ****  ****    0 ROOT
