@<TRIPOS>MOLECULE
082
   56    57     1     0     0
SMALL
bcc


@<TRIPOS>ATOM
      1 C11        -0.3570    0.4640    1.3040 c2        1 082     -0.532000
      2 C10        -0.7540    1.6820    0.9230 c1        1 082      0.451000
      3 C21         5.6640   -0.8330    5.7770 ca        1 082     -0.089000
      4 C2         -4.1160   -2.4640    4.3140 c3        1 082      0.014000
      5 C20         6.0000   -2.1200    6.2090 ca        1 082     -0.176000
      6 C22         4.4480   -0.5830    5.1660 ca        1 082     -0.172000
      7 C12        -1.0500   -0.2370    2.2980 c1        1 082     -0.047000
      8 C13         1.3980   -2.2570    1.4670 c2        1 082     -0.149000
      9 C3         -5.5420   -2.4520    4.4170 c1        1 082     -0.164000
     10 C18         3.8430   -2.9130    5.4280 ca        1 082     -0.248000
     11 C5         -5.2600    0.2500    5.8820 c1        1 082     -0.047000
     12 C1         -3.4670   -1.2460    4.8250 c2        1 082      0.074000
     13 C19         5.0810   -3.1560    6.0400 ca        1 082     -0.031000
     14 C17         3.5090   -1.6280    4.9630 ca        1 082      0.112000
     15 C8         -0.7180   -1.6030    2.7280 c3        1 082      0.005000
     16 C7          0.7340   -2.0560    2.6070 c2        1 082     -0.133000
     17 C6         -3.9910   -0.1330    5.4870 c2        1 082     -0.140000
     18 C4         -6.7310   -2.4320    4.5120 c1        1 082     -0.121000
     19 C14        -2.0240   -0.9820    4.7320 c2        1 082     -0.088000
     20 C24         6.7730   -4.9980    6.2080 c2        1 082      0.354000
     21 C25         6.1360   -6.2150    4.0800 c2        1 082      0.406000
     22 C9          0.0730   -2.2000    4.8810 c2        1 082      0.254000
     23 C23         5.3930   -4.5100    6.5050 c2        1 082     -0.122000
     24 C26         4.5480   -5.2620    7.2190 c2        1 082     -0.149000
     25 C15        -8.7650   -1.5620    5.2260 c1        1 082     -0.001000
     26 N3         -1.7560    0.2300    5.3150 n2        1 082      0.084000
     27 N4          7.0090   -5.8130    5.0960 n         1 082     -0.404000
     28 N1         -1.1030   -1.8750    4.1380 n         1 082     -0.170000
     29 N2          1.3210   -2.2640    3.9500 n4        1 082      0.167000
     30 O5          6.3200   -7.2290    3.3920 o         1 082     -0.330000
     31 O1          0.1430   -2.4910    6.0700 o         1 082     -0.214000
     32 O2         -2.8440    0.7340    5.7620 os        1 082     -0.067000
     33 O4          5.0210   -5.5080    3.7290 oh        1 082     -0.284000
     34 O3         -8.0900   -2.4480    4.5940 os        1 082      0.065000
     35 H1          0.5690    0.0590    0.8290 ha        1 082      0.180000
     36 H2          0.9040   -2.1310    0.4930 ha        1 082      0.152500
     37 H3          6.3810   -0.0110    5.9280 ha        1 082      0.129000
     38 H4         -3.7020   -3.3500    4.8850 hc        1 082      0.132000
     39 H5          6.9700   -2.3140    6.6910 ha        1 082      0.147000
     40 H6          4.1940    0.4320    4.8310 ha        1 082      0.129000
     41 H7         -1.3720   -2.2810    2.0860 h1        1 082      0.164000
     42 H8          2.4560   -2.5580    1.4330 ha        1 082      0.152500
     43 H9         -3.8170   -2.6040    3.2320 hc        1 082      0.132000
     44 H10         3.1320   -3.7480    5.3560 ha        1 082      0.104000
     45 H11        -5.3910    1.2010    6.4130 ha        1 082      0.090000
     46 H12         3.5500   -4.8970    7.5000 ha        1 082      0.133000
     47 H13         4.9720   -4.6480    4.1790 ho        1 082      0.252000
     48 H14         4.8040   -6.2700    7.5720 ha        1 082      0.133000
     49 H15        -9.5530   -0.2660    3.4080 ha        1 082      0.005000
     50 H16        -9.0170    0.1310    3.5330 ha        1 082      0.005000
     51 H17        -8.3000   -0.7150    5.7650 ha        1 082      0.074000
     52 H18         1.6940   -3.2170    4.0250 hn        1 082      0.241000
     53 H19         2.0560   -0.2760    4.0420 hx        1 082      0.161000
     54 H20         7.9140   -6.2440    5.0540 hn        1 082      0.261000
     55 C16         2.3140   -1.3150    4.2690 c2        1 082     -0.575000
     56 O6          7.7470   -4.7360    6.9320 o         1 082     -0.312000
@<TRIPOS>BOND
     1    1    2 1   
     2    1    7 1   
     3    1   35 1   
     4    3    5 1   
     5    3    6 1   
     6    3   37 1   
     7    4    9 1   
     8    4   12 1   
     9    4   38 1   
    10    4   43 1   
    11    5   13 1   
    12    5   39 1   
    13    6   14 1   
    14    6   40 1   
    15    7   15 1   
    16    8   16 1   
    17    8   36 1   
    18    8   42 1   
    19    9   18 1   
    20   10   13 1   
    21   10   14 1   
    22   10   44 1   
    23   11   17 1   
    24   11   45 1   
    25   12   17 1   
    26   12   19 1   
    27   13   23 1   
    28   14   55 1   
    29   15   16 1   
    30   15   28 1   
    31   15   41 1   
    32   16   29 1   
    33   17   32 1   
    34   18   34 1   
    35   19   26 1   
    36   19   28 1   
    37   20   23 1   
    38   20   27 1   
    39   20   56 1   
    40   21   27 1   
    41   21   30 1   
    42   21   33 1   
    43   22   28 1   
    44   22   29 1   
    45   22   31 1   
    46   23   24 1   
    47   24   46 1   
    48   24   48 1   
    49   25   34 1   
    50   25   51 1   
    51   26   32 1   
    52   27   54 1   
    53   29   52 1   
    54   29   55 1   
    55   33   47 1   
    56   49   50 1   
    57   53   55 1   
@<TRIPOS>SUBSTRUCTURE
     1 082         1 TEMP              0 ****  ****    0 ROOT
