@<TRIPOS>MOLECULE
082
   56    61     1     0     0
SMALL
bcc


@<TRIPOS>ATOM
      1 C11        -1.7580   -4.9230    2.0880 ca        1 082     -0.129000
      2 C10        -0.7060   -5.5220    1.4040 ca        1 082     -0.123000
      3 C21         4.3130   -2.2500    0.6580 ca        1 082     -0.134000
      4 C2         -2.0080    1.6490    0.0120 ca        1 082      0.003000
      5 C20         4.4250   -0.8630    0.6900 ca        1 082     -0.100000
      6 C22         3.2870   -2.8560   -0.0680 ca        1 082     -0.094000
      7 C12        -2.1990   -3.6310    1.7730 ca        1 082     -0.098000
      8 C13        -0.0380   -4.8610    0.3650 ca        1 082     -0.127000
      9 C3         -2.4840    2.9580    0.0590 ca        1 082     -0.223000
     10 C18         2.4780   -0.6760   -0.7390 ca        1 082     -0.077000
     11 C5         -4.7610    2.2060    0.6510 ca        1 082     -0.164000
     12 C1         -2.8930    0.6170    0.2930 ca        1 082     -0.251900
     13 C19         3.5050   -0.0700   -0.0090 ca        1 082     -0.120300
     14 C17         2.3690   -2.0710   -0.7680 ca        1 082     -0.136300
     15 C8         -1.5520   -2.9570    0.7450 ca        1 082      0.003600
     16 C7         -0.4590   -3.5810    0.0310 ca        1 082     -0.004400
     17 C6         -4.2520    0.9220    0.6060 ca        1 082      0.082100
     18 C4         -3.8320    3.2300    0.3690 ca        1 082      0.163100
     19 C14        -2.8550   -0.8580    0.3930 cc        1 082      0.446500
     20 C24         3.8140    1.9760    1.4420 c         1 082      0.689500
     21 C25         1.8800    2.8360    0.5330 c         1 082      0.832600
     22 C9         -0.7810   -1.4840   -0.8600 c         1 082      0.795500
     23 C23         3.6580    1.4190    0.0020 c3        1 082      0.137100
     24 C26         4.7920    1.8920   -0.8880 c3        1 082     -0.095100
     25 C15        -3.4770    5.5730    0.1210 c3        1 082      0.111700
     26 N3         -4.0940   -1.3090    0.7210 nd        1 082     -0.434200
     27 N4          2.7050    2.8080    1.6680 n         1 082     -0.615500
     28 N1         -1.7100   -1.6370    0.2350 n         1 082     -0.252500
     29 N2         -0.0370   -2.7030   -1.0020 n         1 082     -0.331000
     30 O5          0.8250    3.4250    0.3150 o         1 082     -0.579500
     31 O1         -0.6440   -0.4750   -1.5680 o         1 082     -0.604500
     32 O2         -4.9300   -0.2890    0.8620 os        1 082     -0.007600
     33 O4          2.4200    2.0500   -0.4750 os        1 082     -0.388900
     34 O3         -4.3630    4.5010    0.4280 os        1 082     -0.324900
     35 H1         -2.2650   -5.4710    2.8970 ha        1 082      0.140000
     36 H2         -0.3850   -6.5390    1.6790 ha        1 082      0.137000
     37 H3          5.0350   -2.8700    1.2110 ha        1 082      0.142000
     38 H4         -0.9570    1.4490   -0.2550 ha        1 082      0.170000
     39 H5          5.2290   -0.3830    1.2730 ha        1 082      0.156000
     40 H6          3.2000   -3.9540   -0.0850 ha        1 082      0.136000
     41 H7         -3.0350   -3.1780    2.3250 ha        1 082      0.164000
     42 H8          0.7920   -5.3460   -0.1660 ha        1 082      0.140000
     43 H9         -1.7760    3.7760   -0.1470 ha        1 082      0.161000
     44 H10         1.7450   -0.0580   -1.2890 ha        1 082      0.176000
     45 H11        -5.8070    2.4300    0.8880 ha        1 082      0.171000
     46 H12         4.6160    1.5440   -1.9350 hc        1 082      0.066033
     47 H13         4.8500    3.0060   -0.8860 hc        1 082      0.066033
     48 H14         5.7540    1.4670   -0.5120 hc        1 082      0.066033
     49 H15        -4.1280    6.4790    0.2170 h1        1 082      0.049367
     50 H16        -2.6360    5.6120    0.8550 h1        1 082      0.049367
     51 H17        -3.0860    5.4760   -0.9210 h1        1 082      0.049367
     52 H18         1.1970   -2.1610   -2.5680 h1        1 082      0.079200
     53 H19         1.5420   -3.7880   -1.7870 h1        1 082      0.079200
     54 H20         2.5020    3.2850    2.5100 hn        1 082      0.367500
     55 C16         1.2790   -2.7100   -1.5830 c3        1 082      0.147300
     56 O6          4.7230    1.7740    2.2470 o         1 082     -0.559500
@<TRIPOS>BOND
     1    1    2 ar  
     2    1    7 ar  
     3    1   35 1   
     4    2    8 ar  
     5    2   36 1   
     6    3    5 ar  
     7    3    6 ar  
     8    3   37 1   
     9    4    9 ar  
    10    4   12 ar  
    11    4   38 1   
    12    5   13 ar  
    13    5   39 1   
    14    6   14 ar  
    15    6   40 1   
    16    7   15 ar  
    17    7   41 1   
    18    8   16 ar  
    19    8   42 1   
    20    9   18 ar  
    21    9   43 1   
    22   10   13 ar  
    23   10   14 ar  
    24   10   44 1   
    25   11   17 ar  
    26   11   18 ar  
    27   11   45 1   
    28   12   17 ar  
    29   12   19 1   
    30   13   23 1   
    31   14   55 1   
    32   15   16 ar  
    33   15   28 1   
    34   16   29 1   
    35   17   32 1   
    36   18   34 1   
    37   19   26 2   
    38   19   28 1   
    39   20   23 1   
    40   20   27 1   
    41   20   56 2   
    42   21   27 1   
    43   21   30 2   
    44   21   33 1   
    45   22   28 1   
    46   22   29 1   
    47   22   31 2   
    48   23   24 1   
    49   23   33 1   
    50   24   46 1   
    51   24   47 1   
    52   24   48 1   
    53   25   34 1   
    54   25   49 1   
    55   25   50 1   
    56   25   51 1   
    57   26   32 1   
    58   27   54 1   
    59   29   55 1   
    60   52   55 1   
    61   53   55 1   
@<TRIPOS>SUBSTRUCTURE
     1 082         1 TEMP              0 ****  ****    0 ROOT
