@<TRIPOS>MOLECULE
083
   46    49     1     0     0
SMALL
bcc


@<TRIPOS>ATOM
      1 N2          0.6660   -1.6670   -0.0420 nz        1 083     -0.830600
      2 C7          1.4750   -0.4060    0.0380 ce        1 083      0.496200
      3 C6          2.0380   -0.1790    1.4280 ca        1 083      0.566700
      4 N1          1.1220   -0.1580    2.4420 nb        1 083     -0.684000
      5 C4          1.6150    0.1150    3.6770 ca        1 083      0.469100
      6 C5          0.6860    0.1910    4.8430 c3        1 083     -0.165900
      7 C3          2.9970    0.3470    3.8750 ca        1 083     -0.330600
      8 N6          3.3820    0.0080    1.5130 nb        1 083     -0.684000
      9 C2          3.8610    0.2760    2.7610 ca        1 083      0.469100
     10 C1          5.3240    0.5070    2.9430 c3        1 083     -0.165900
     11 N3          1.6980    0.4460   -0.8960 nf        1 083     -0.533700
     12 C8          1.2280    0.3860   -2.2320 ca        1 083      0.564300
     13 C21         1.4630    1.5380   -3.0760 ca        1 083     -0.083300
     14 C20         2.1560    2.7030   -2.6570 ca        1 083     -0.107000
     15 C19         2.3250    3.7550   -3.5250 ca        1 083     -0.098000
     16 C18         1.8100    3.6960   -4.8440 ca        1 083     -0.095000
     17 C17         1.1380    2.5800   -5.2760 ca        1 083     -0.117000
     18 C16         0.9490    1.4700   -4.4040 ca        1 083     -0.024000
     19 C15         0.2630    0.3080   -4.8260 ca        1 083     -0.156300
     20 C9          0.1140   -0.7630   -3.9420 cp        1 083      0.359300
     21 N4          0.5900   -0.7190   -2.6680 nb        1 083     -0.724000
     22 C10        -0.6000   -1.9930   -4.3800 cp        1 083      0.334300
     23 N5         -1.3680   -2.6620   -3.4770 nb        1 083     -0.674000
     24 C14        -2.0260   -3.7480   -3.9120 ca        1 083      0.397200
     25 C13        -1.9550   -4.2340   -5.2330 ca        1 083     -0.220300
     26 C12        -1.1490   -3.5530   -6.1430 ca        1 083     -0.083000
     27 C11        -0.4570   -2.4160   -5.7180 ca        1 083     -0.221300
     28 H21N        1.0830   -2.3060   -0.7320 hn        1 083      0.471800
     29 H22N        0.6260   -2.1310    0.8700 hn        1 083      0.471800
     30 H51C       -0.1630   -0.5300    4.7480 hc        1 083      0.075367
     31 H52C        0.2620    1.2260    4.9080 hc        1 083      0.075367
     32 H53C        1.2420   -0.0290    5.7880 hc        1 083      0.075367
     33 H3          3.3870    0.5750    4.8770 ha        1 083      0.178000
     34 H11C        5.9220   -0.3080    2.4620 hc        1 083      0.075367
     35 H12C        5.6170    1.4790    2.4690 hc        1 083      0.075367
     36 H13C        5.5770    0.5460    4.0300 hc        1 083      0.075367
     37 H20         2.5640    2.7610   -1.6350 ha        1 083      0.162000
     38 H19         2.8640    4.6610   -3.2040 ha        1 083      0.155000
     39 H18         1.9590    4.5560   -5.5160 ha        1 083      0.157000
     40 H17         0.7340    2.5210   -6.2990 ha        1 083      0.153000
     41 H15        -0.1560    0.2630   -5.8440 ha        1 083      0.168000
     42 H11         0.1950   -1.8680   -6.4130 ha        1 083      0.152000
     43 H14        -2.6520   -4.2600   -3.1580 h4        1 083      0.029100
     44 H13        -2.5220   -5.1280   -5.5270 ha        1 083      0.161000
     45 H12        -1.0560   -3.9020   -7.1830 ha        1 083      0.157000
     46 H23        -0.2920   -1.4480   -0.3490 hn        1 083      0.471800
@<TRIPOS>BOND
     1    1    2 1   
     2    1   28 1   
     3    1   29 1   
     4    1   46 1   
     5    2    3 1   
     6    2   11 2   
     7    3    4 ar  
     8    3    8 ar  
     9    4    5 ar  
    10    5    6 1   
    11    5    7 ar  
    12    6   30 1   
    13    6   31 1   
    14    6   32 1   
    15    7    9 ar  
    16    7   33 1   
    17    8    9 ar  
    18    9   10 1   
    19   10   34 1   
    20   10   35 1   
    21   10   36 1   
    22   11   12 1   
    23   12   13 ar  
    24   12   21 ar  
    25   13   14 ar  
    26   13   18 ar  
    27   14   15 ar  
    28   14   37 1   
    29   15   16 ar  
    30   15   38 1   
    31   16   17 ar  
    32   16   39 1   
    33   17   18 ar  
    34   17   40 1   
    35   18   19 ar  
    36   19   20 ar  
    37   19   41 1   
    38   20   21 ar  
    39   20   22 1   
    40   22   23 ar  
    41   22   27 ar  
    42   23   24 ar  
    43   24   25 ar  
    44   24   43 1   
    45   25   26 ar  
    46   25   44 1   
    47   26   27 ar  
    48   26   45 1   
    49   27   42 1   
@<TRIPOS>SUBSTRUCTURE
     1 083         1 TEMP              0 ****  ****    0 ROOT
