@<TRIPOS>MOLECULE
083
   46    49     1     0     0
SMALL
bcc


@<TRIPOS>ATOM
      1 N2          0.6070   -1.6270   -0.0030 n4        1 083     -0.830600
      2 C7          1.4540   -0.3910    0.0520 ce        1 083      0.496200
      3 C6          2.0250   -0.1550    1.4380 ca        1 083      0.566700
      4 N1          1.1110   -0.0850    2.4500 nb        1 083     -0.684000
      5 C4          1.6130    0.1960    3.6800 ca        1 083      0.469100
      6 C5          0.6890    0.3240    4.8450 c3        1 083     -0.165900
      7 C3          3.0020    0.3890    3.8730 ca        1 083     -0.330600
      8 N6          3.3740   -0.0080    1.5180 nb        1 083     -0.684000
      9 C2          3.8630    0.2700    2.7600 ca        1 083      0.469100
     10 C1          5.3330    0.4580    2.9370 c3        1 083     -0.165900
     11 N3          1.7020    0.4360   -0.8980 nf        1 083     -0.533700
     12 C8          1.2300    0.3640   -2.2330 ca        1 083      0.564300
     13 C21         1.4980    1.4920   -3.0990 ca        1 083     -0.083300
     14 C20         2.2270    2.6430   -2.7030 ca        1 083     -0.107000
     15 C19         2.4270    3.6730   -3.5910 ca        1 083     -0.098000
     16 C18         1.9100    3.6030   -4.9090 ca        1 083     -0.095000
     17 C17         1.2040    2.5000   -5.3190 ca        1 083     -0.117000
     18 C16         0.9820    1.4140   -4.4250 ca        1 083     -0.024000
     19 C15         0.2600    0.2660   -4.8250 ca        1 083     -0.156300
     20 C9          0.0800   -0.7840   -3.9200 cp        1 083      0.359300
     21 N4          0.5580   -0.7290   -2.6470 nb        1 083     -0.724000
     22 C10        -0.6710   -2.0000   -4.3330 cp        1 083      0.334300
     23 N5         -1.4590   -2.6270   -3.4170 nb        1 083     -0.674000
     24 C14        -2.1490   -3.7020   -3.8310 ca        1 083      0.397200
     25 C13        -2.0940   -4.2150   -5.1420 ca        1 083     -0.220300
     26 C12        -1.2690   -3.5760   -6.0660 ca        1 083     -0.083000
     27 C11        -0.5420   -2.4530   -5.6630 ca        1 083     -0.221300
     28 H21N        0.5520   -2.0710    0.9170 hn        1 083      0.471800
     29 H22N        1.0030   -2.2920   -0.6800 hn        1 083      0.471800
     30 H51C        1.2350    0.0900    5.7920 hc        1 083      0.075367
     31 H52C       -0.1900   -0.3610    4.7580 hc        1 083      0.075367
     32 H53C        0.3100    1.3760    4.8990 hc        1 083      0.075367
     33 H3          3.4000    0.6240    4.8700 ha        1 083      0.178000
     34 H11C        5.9030   -0.3870    2.4760 hc        1 083      0.075367
     35 H12C        5.5860    0.5140    4.0240 hc        1 083      0.075367
     36 H13C        5.6560    1.4080    2.4410 hc        1 083      0.075367
     37 H20         2.6380    2.7090   -1.6830 ha        1 083      0.162000
     38 H19         2.9940    4.5680   -3.2880 ha        1 083      0.155000
     39 H18         2.0840    4.4460   -5.5970 ha        1 083      0.157000
     40 H17         0.7970    2.4330   -6.3400 ha        1 083      0.153000
     41 H15        -0.1610    0.2130   -5.8410 ha        1 083      0.168000
     42 H11         0.1260   -1.9390   -6.3690 ha        1 083      0.152000
     43 H14        -2.7910   -4.1790   -3.0670 h4        1 083      0.029100
     44 H13        -2.6880   -5.0970   -5.4190 ha        1 083      0.161000
     45 H12        -1.1870   -3.9480   -7.0990 ha        1 083      0.157000
     46 H23        -0.3440   -1.3850   -0.3150 hn        1 083      0.471800
@<TRIPOS>BOND
     1    1    2 1   
     2    1   28 1   
     3    1   29 1   
     4    1   46 1   
     5    2    3 1   
     6    2   11 2   
     7    3    4 ar  
     8    3    8 ar  
     9    4    5 ar  
    10    5    6 1   
    11    5    7 ar  
    12    6   30 1   
    13    6   31 1   
    14    6   32 1   
    15    7    9 ar  
    16    7   33 1   
    17    8    9 ar  
    18    9   10 1   
    19   10   34 1   
    20   10   35 1   
    21   10   36 1   
    22   11   12 1   
    23   12   13 ar  
    24   12   21 ar  
    25   13   14 ar  
    26   13   18 ar  
    27   14   15 ar  
    28   14   37 1   
    29   15   16 ar  
    30   15   38 1   
    31   16   17 ar  
    32   16   39 1   
    33   17   18 ar  
    34   17   40 1   
    35   18   19 ar  
    36   19   20 ar  
    37   19   41 1   
    38   20   21 ar  
    39   20   22 1   
    40   22   23 ar  
    41   22   27 ar  
    42   23   24 ar  
    43   24   25 ar  
    44   24   43 1   
    45   25   26 ar  
    46   25   44 1   
    47   26   27 ar  
    48   26   45 1   
    49   27   42 1   
@<TRIPOS>SUBSTRUCTURE
     1 083         1 TEMP              0 ****  ****    0 ROOT
