@<TRIPOS>MOLECULE
083
   45    40     1     0     0
SMALL
bcc


@<TRIPOS>ATOM
      1 N2         -1.2990    1.6760    1.2430 n3        1 083     -0.376000
      2 C7         -0.0410    1.0370    1.3710 c2        1 083      0.256000
      3 C6          0.6910    1.0610    2.7020 c2        1 083      0.045000
      4 N1          1.3880    2.1710    3.0750 n2        1 083     -0.136000
      5 C4          2.0680    2.1800    4.2320 c1        1 083      0.027000
      6 C5          2.8380    3.4140    4.6490 c2        1 083     -0.180000
      7 C3          2.0600    1.0770    5.0360 c2        1 083     -0.234000
      8 N6          0.6830   -0.0410    3.5030 n1        1 083     -0.167000
      9 C2          1.3610   -0.0340    4.6620 c1        1 083      0.029000
     10 C1          1.3120   -1.2400    5.5750 c3        1 083     -0.180000
     11 N3          0.4900    0.4260    0.3440 n1        1 083     -0.251000
     12 C8         -0.1960    0.4030   -0.9040 c1        1 083      0.123000
     13 C21         0.7890    0.4630   -1.9060 c2        1 083     -0.064000
     14 C20         1.9860    1.1770   -1.6800 c2        1 083     -0.073000
     15 C19         2.9560    1.2360   -2.6680 c1        1 083     -0.151000
     16 C18         2.7510    0.5940   -3.8780 c1        1 083     -0.131250
     17 C17         1.5770   -0.1070   -4.1010 c1        1 083     -0.131250
     18 C16         0.5890   -0.1670   -3.0950 c1        1 083     -0.013000
     19 C15        -0.5870   -0.8670   -3.3150 c2        1 083     -0.146000
     20 C9         -1.5580   -0.9250   -2.3220 c1        1 083      0.033000
     21 N4         -1.3550   -0.2890   -1.1250 n1        1 083     -0.231000
     22 C10        -2.6720   -1.8250   -2.8200 c2        1 083      0.029000
     23 N5         -2.5180   -3.1780   -2.7920 n2        1 083     -0.132000
     24 C14        -3.5230   -3.9880   -3.2300 c1        1 083     -0.073000
     25 C13        -4.7030   -3.4360   -3.7040 c1        1 083     -0.131250
     26 C12        -4.8590   -2.0810   -3.7310 c1        1 083     -0.131250
     27 C11        -3.8520   -1.2700   -3.2930 c1        1 083     -0.151000
     28 H21N       -1.8080    1.5370    0.4970 hn        1 083      0.237000
     29 H22N       -1.6020    2.2250    1.9070 hn        1 083      0.237000
     30 H51C        2.5010    3.7350    5.5120 ha        1 083      0.100667
     31 H52C        3.7900    3.1930    4.7310 ha        1 083      0.100667
     32 H53C        2.7230    4.1150    3.9730 ha        1 083      0.100667
     33 H3          2.5540    1.0830    5.8790 ha        1 083      0.155000
     34 H11C        0.7700   -1.0310    6.3640 hc        1 083      0.100000
     35 H12C        0.9130   -1.9970    5.0950 hc        1 083      0.100000
     36 H13C        2.2220   -1.4750    5.8560 hc        1 083      0.100000
     37 H20         2.1300    1.6290   -0.8280 ha        1 083      0.158000
     38 H19         3.7830    1.7290   -2.5110 ha        1 083      0.132000
     39 H18         3.4350    0.6350   -4.5740 ha        1 083      0.136750
     40 H17         1.4330   -0.5590   -4.9540 ha        1 083      0.136750
     41 H15        -0.7330   -1.3200   -4.1680 ha        1 083      0.155000
     42 H11        -3.9620   -0.3000   -3.3120 ha        1 083      0.156000
     43 H14        -3.4120   -4.9580   -3.2110 ha        1 083      0.158000
     44 H13        -5.4230   -4.0170   -4.0180 ha        1 083      0.136750
     45 H12        -5.6900   -1.6910   -4.0650 ha        1 083      0.136750
@<TRIPOS>BOND
     1    1    2 1   
     2    1   28 1   
     3    1   29 1   
     4    2    3 1   
     5    2   11 1   
     6    3    4 1   
     7    3    8 1   
     8    4    5 1   
     9    5    7 1   
    10    6   30 1   
    11    6   31 1   
    12    6   32 1   
    13    7    9 1   
    14    7   33 1   
    15    9   10 1   
    16   10   34 1   
    17   10   35 1   
    18   10   36 1   
    19   12   13 1   
    20   12   21 1   
    21   13   14 1   
    22   13   18 1   
    23   14   15 1   
    24   14   37 1   
    25   15   38 1   
    26   16   17 1   
    27   16   39 1   
    28   17   40 1   
    29   18   19 1   
    30   19   20 1   
    31   19   41 1   
    32   20   22 1   
    33   22   23 1   
    34   22   27 1   
    35   23   24 1   
    36   24   43 1   
    37   25   26 1   
    38   25   44 1   
    39   26   45 1   
    40   27   42 1   
@<TRIPOS>SUBSTRUCTURE
     1 083         1 TEMP              0 ****  ****    0 ROOT
