@<TRIPOS>MOLECULE
083
   45    48     1     0     0
SMALL
bcc


@<TRIPOS>ATOM
      1 N2         -0.9460    2.0570    0.3960 nh        1 083     -0.937800
      2 C7         -1.4840    0.8160    0.1570 ce        1 083      0.666200
      3 C6         -3.0180    0.8220    0.0760 ca        1 083      0.600700
      4 N1         -3.6750    0.9530    1.2640 nb        1 083     -0.677500
      5 C4         -5.0310    0.9230    1.1980 ca        1 083      0.450600
      6 C5         -5.8260    1.0450    2.4570 c3        1 083     -0.156400
      7 C3         -5.7030    0.7730   -0.0350 ca        1 083     -0.364600
      8 N6         -3.5670    0.6880   -1.1630 nb        1 083     -0.677500
      9 C2         -4.9250    0.6630   -1.2080 ca        1 083      0.450600
     10 C1         -5.6050    0.5110   -2.5290 c3        1 083     -0.156400
     11 N3         -0.9420   -0.3640   -0.0390 nf        1 083     -0.757700
     12 C8          0.4350   -0.6480    0.0030 ca        1 083      0.670300
     13 C21         0.7930   -2.0630   -0.1090 ca        1 083     -0.129300
     14 C20        -0.1630   -3.0990   -0.2520 ca        1 083     -0.073000
     15 C19         0.2410   -4.4120   -0.3470 ca        1 083     -0.151000
     16 C18         1.6130   -4.7460   -0.3040 ca        1 083     -0.109000
     17 C17         2.5600   -3.7600   -0.1690 ca        1 083     -0.134000
     18 C16         2.1700   -2.3980   -0.0700 ca        1 083     -0.013000
     19 C15         3.1340   -1.3620    0.0680 ca        1 083     -0.211300
     20 C9          2.6970   -0.0500    0.1530 cp        1 083      0.361300
     21 N4          1.3730    0.3090    0.1270 nb        1 083     -0.757000
     22 C10         3.6910    1.0530    0.2680 cp        1 083      0.357300
     23 N5          4.7250    0.8970    1.1360 nb        1 083     -0.658000
     24 C14         5.6200    1.8960    1.2170 ca        1 083      0.392200
     25 C13         5.5460    3.0810    0.4610 ca        1 083     -0.246300
     26 C12         4.4810    3.2300   -0.4270 ca        1 083     -0.101000
     27 C11         3.5350    2.2080   -0.5300 ca        1 083     -0.216300
     28 H21N       -1.5450    2.7830    0.7040 hn        1 083      0.441800
     29 H22N        0.0270    2.1620    0.5670 hn        1 083      0.441800
     30 H51C       -5.5270    1.9600    3.0270 hc        1 083      0.061033
     31 H52C       -6.9160    1.1060    2.2210 hc        1 083      0.061033
     32 H53C       -5.6470    0.1530    3.1090 hc        1 083      0.061033
     33 H3         -6.7980    0.7440   -0.0800 ha        1 083      0.155000
     34 H11C       -5.2760    1.3130   -3.2360 hc        1 083      0.061033
     35 H12C       -5.3480   -0.4800   -2.9820 hc        1 083      0.061033
     36 H13C       -6.7130    0.5730   -2.4030 hc        1 083      0.061033
     37 H20        -1.2360   -2.8520   -0.2890 ha        1 083      0.158000
     38 H19        -0.5020   -5.2150   -0.4580 ha        1 083      0.132000
     39 H18         1.9110   -5.8030   -0.3810 ha        1 083      0.131000
     40 H17         3.6320   -4.0050   -0.1340 ha        1 083      0.136000
     41 H15         4.2020   -1.6150    0.1080 ha        1 083      0.155000
     42 H11         2.6850    2.2950   -1.2190 ha        1 083      0.156000
     43 H14         6.4450    1.7340    1.9340 h4        1 083      0.021100
     44 H13         6.3100    3.8610    0.5720 ha        1 083      0.142000
     45 H12         4.3850    4.1380   -1.0390 ha        1 083      0.138000
@<TRIPOS>BOND
     1    1    2 1   
     2    1   28 1   
     3    1   29 1   
     4    2    3 1   
     5    2   11 2   
     6    3    4 ar  
     7    3    8 ar  
     8    4    5 ar  
     9    5    6 1   
    10    5    7 ar  
    11    6   30 1   
    12    6   31 1   
    13    6   32 1   
    14    7    9 ar  
    15    7   33 1   
    16    8    9 ar  
    17    9   10 1   
    18   10   34 1   
    19   10   35 1   
    20   10   36 1   
    21   11   12 1   
    22   12   13 ar  
    23   12   21 ar  
    24   13   14 ar  
    25   13   18 ar  
    26   14   15 ar  
    27   14   37 1   
    28   15   16 ar  
    29   15   38 1   
    30   16   17 ar  
    31   16   39 1   
    32   17   18 ar  
    33   17   40 1   
    34   18   19 ar  
    35   19   20 ar  
    36   19   41 1   
    37   20   21 ar  
    38   20   22 1   
    39   22   23 ar  
    40   22   27 ar  
    41   23   24 ar  
    42   24   25 ar  
    43   24   43 1   
    44   25   26 ar  
    45   25   44 1   
    46   26   27 ar  
    47   26   45 1   
    48   27   42 1   
@<TRIPOS>SUBSTRUCTURE
     1 083         1 TEMP              0 ****  ****    0 ROOT
