@<TRIPOS>MOLECULE
083
   46    49     1     0     0
SMALL
bcc


@<TRIPOS>ATOM
      1 N2          0.6740   -1.6710   -0.0440 n4        1 083     -0.830600
      2 C7          1.4860   -0.4130    0.0340 ce        1 083      0.496200
      3 C6          2.0620   -0.1940    1.4210 ca        1 083      0.566700
      4 N1          1.1550   -0.1750    2.4420 nb        1 083     -0.684000
      5 C4          1.6590    0.0910    3.6740 ca        1 083      0.469100
      6 C5          0.7420    0.1640    4.8490 c3        1 083     -0.165900
      7 C3          3.0430    0.3200    3.8610 ca        1 083     -0.330600
      8 N6          3.4070   -0.0100    1.4940 nb        1 083     -0.684000
      9 C2          3.8980    0.2520    2.7390 ca        1 083      0.469100
     10 C1          5.3630    0.4790    2.9090 c3        1 083     -0.165900
     11 N3          1.7020    0.4430   -0.8970 nf        1 083     -0.533700
     12 C8          1.2210    0.3910   -2.2300 ca        1 083      0.564300
     13 C21         1.4500    1.5450   -3.0700 ca        1 083     -0.083300
     14 C20         2.1490    2.7070   -2.6520 ca        1 083     -0.107000
     15 C19         2.3120    3.7640   -3.5170 ca        1 083     -0.098000
     16 C18         1.7860    3.7110   -4.8320 ca        1 083     -0.095000
     17 C17         1.1080    2.5990   -5.2620 ca        1 083     -0.117000
     18 C16         0.9250    1.4850   -4.3940 ca        1 083     -0.024000
     19 C15         0.2320    0.3270   -4.8160 ca        1 083     -0.156300
     20 C9          0.0890   -0.7490   -3.9360 cp        1 083      0.359300
     21 N4          0.5770   -0.7120   -2.6650 nb        1 083     -0.724000
     22 C10        -0.6310   -1.9760   -4.3720 cp        1 083      0.334300
     23 N5         -1.3920   -2.6470   -3.4650 nb        1 083     -0.674000
     24 C14        -2.0550   -3.7310   -3.9000 ca        1 083      0.397200
     25 C13        -1.9970   -4.2100   -5.2230 ca        1 083     -0.220300
     26 C12        -1.1980   -3.5260   -6.1380 ca        1 083     -0.083000
     27 C11        -0.5000   -2.3920   -5.7130 ca        1 083     -0.221300
     28 H21N        1.0830   -2.3080   -0.7410 hn        1 083      0.471800
     29 H22N        0.6410   -2.1390    0.8650 hn        1 083      0.471800
     30 H51C       -0.1150   -0.5480    4.7550 hc        1 083      0.075367
     31 H52C        0.3280    1.2020    4.9280 hc        1 083      0.075367
     32 H53C        1.3040   -0.0710    5.7860 hc        1 083      0.075367
     33 H3          3.4430    0.5420    4.8600 ha        1 083      0.178000
     34 H11C        5.6250    0.5140    3.9940 hc        1 083      0.075367
     35 H12C        5.9540   -0.3360    2.4200 hc        1 083      0.075367
     36 H13C        5.6540    1.4520    2.4360 hc        1 083      0.075367
     37 H20         2.5670    2.7610   -1.6340 ha        1 083      0.162000
     38 H19         2.8560    4.6670   -3.1960 ha        1 083      0.155000
     39 H18         1.9300    4.5750   -5.5010 ha        1 083      0.157000
     40 H17         0.6950    2.5450   -6.2820 ha        1 083      0.153000
     41 H15        -0.1960    0.2870   -5.8300 ha        1 083      0.168000
     42 H11         0.1470   -1.8430   -6.4120 ha        1 083      0.152000
     43 H14        -2.6760   -4.2450   -3.1430 h4        1 083      0.029100
     44 H13        -2.5680   -5.1020   -5.5170 ha        1 083      0.161000
     45 H12        -1.1150   -3.8700   -7.1800 ha        1 083      0.157000
     46 H23        -0.2860   -1.4490   -0.3420 hn        1 083      0.471800
@<TRIPOS>BOND
     1    1    2 1   
     2    1   28 1   
     3    1   29 1   
     4    1   46 1   
     5    2    3 1   
     6    2   11 2   
     7    3    4 ar  
     8    3    8 ar  
     9    4    5 ar  
    10    5    6 1   
    11    5    7 ar  
    12    6   30 1   
    13    6   31 1   
    14    6   32 1   
    15    7    9 ar  
    16    7   33 1   
    17    8    9 ar  
    18    9   10 1   
    19   10   34 1   
    20   10   35 1   
    21   10   36 1   
    22   11   12 1   
    23   12   13 ar  
    24   12   21 ar  
    25   13   14 ar  
    26   13   18 ar  
    27   14   15 ar  
    28   14   37 1   
    29   15   16 ar  
    30   15   38 1   
    31   16   17 ar  
    32   16   39 1   
    33   17   18 ar  
    34   17   40 1   
    35   18   19 ar  
    36   19   20 ar  
    37   19   41 1   
    38   20   21 ar  
    39   20   22 1   
    40   22   23 ar  
    41   22   27 ar  
    42   23   24 ar  
    43   24   25 ar  
    44   24   43 1   
    45   25   26 ar  
    46   25   44 1   
    47   26   27 ar  
    48   26   45 1   
    49   27   42 1   
@<TRIPOS>SUBSTRUCTURE
     1 083         1 TEMP              0 ****  ****    0 ROOT
