@<TRIPOS>MOLECULE
084
   66    70     1     0     0
SMALL
bcc


@<TRIPOS>ATOM
      1 C50        -0.1150   -0.0500    0.3100 c3        1 084     -0.120100
      2 C49         1.3930    0.0430    0.0530 c3        1 084      0.264800
      3 N48         2.2140   -0.0820    1.2470 nu        1 084     -0.824900
      4 C40         2.2950   -1.2870    1.9520 ca        1 084      0.877900
      5 N39         1.9870   -2.4810    1.3010 nb        1 084     -0.745000
      6 C38         2.2110   -3.6050    1.9940 ca        1 084      0.464200
      7 C37         2.7090   -3.6260    3.3080 ca        1 084     -0.431600
      8 C12         2.9670   -2.3720    3.9090 ca        1 084      0.557800
      9 N41         2.7570   -1.2020    3.2650 nb        1 084     -0.736000
     10 C1          3.4840   -2.3210    5.2770 cc        1 084     -0.268100
     11 C5          4.5730   -1.5850    5.8100 cd        1 084      0.396800
     12 N4          4.6870   -1.8420    7.1810 nd        1 084     -0.655000
     13 C3          3.6950   -2.7120    7.4920 cc        1 084      0.425800
     14 C10         3.4010   -3.2740    8.8500 c3        1 084     -0.086000
     15 C13         4.6720   -3.4520    9.6690 c3        1 084     -0.073900
     16 C14         4.3280   -4.0030   11.0530 c3        1 084      0.163800
     17 N15         3.3440   -3.2050   11.7560 n7        1 084     -0.820200
     18 C16         2.1460   -2.9290   10.9890 c3        1 084      0.163800
     19 C17         2.4350   -2.3640    9.5990 c3        1 084     -0.073900
     20 N2          2.9310   -3.0350    6.3510 na        1 084     -0.189900
     21 C6          1.7880   -3.8870    6.3200 c3        1 084      0.016600
     22 C11         5.4800   -0.6990    5.0990 ca        1 084     -0.100500
     23 C28         5.9050    0.4950    5.7000 ca        1 084     -0.052000
     24 C29         6.7760    1.3400    5.0120 ca        1 084     -0.175300
     25 C30         7.2340    1.0120    3.7340 ca        1 084     -0.082000
     26 C31         6.8160   -0.1790    3.1430 ca        1 084     -0.137000
     27 C32         5.9470   -1.0330    3.8200 ca        1 084     -0.081000
     28 C44         7.2470    2.6310    5.6680 c3        1 084      0.688200
     29 F45         7.5140    3.6550    4.7900 f         1 084     -0.239633
     30 F46         6.3590    3.1830    6.5600 f         1 084     -0.239633
     31 F47         8.4100    2.5070    6.3910 f         1 084     -0.239633
     32 C54         1.6920    1.3520   -0.6440 ca        1 084     -0.096300
     33 C60         2.2290    1.3370   -1.9350 ca        1 084     -0.117500
     34 C59         2.4920    2.5370   -2.5960 ca        1 084     -0.128000
     35 C58         2.2290    3.7550   -1.9690 ca        1 084     -0.123000
     36 C57         1.7020    3.7720   -0.6780 ca        1 084     -0.128000
     37 C56         1.4330    2.5750   -0.0160 ca        1 084     -0.117500
     38 H501       -0.4590    0.7610    0.9940 hc        1 084      0.046700
     39 H502       -0.6530    0.0530   -0.6620 hc        1 084      0.046700
     40 H503       -0.3760   -1.0370    0.7600 hc        1 084      0.046700
     41 H49         1.6770   -0.8050   -0.6420 h1        1 084      0.086700
     42 H48         2.2940    0.7490    1.7970 hn        1 084      0.437800
     43 H38         1.9740   -4.5450    1.4620 h4        1 084      0.027100
     44 H37         2.9010   -4.5650    3.8350 ha        1 084      0.155000
     45 H10         2.9180   -4.2870    8.7230 hc        1 084      0.049700
     46 H131        5.2030   -2.4700    9.7730 hc        1 084      0.062950
     47 H132        5.3650   -4.1660    9.1550 hc        1 084      0.062950
     48 H141        5.2630   -4.0080   11.6820 h1        1 084      0.027700
     49 H142        3.9940   -5.0770   10.9320 h1        1 084      0.027700
     50 H15         3.1020   -3.6430   12.6250 hn        1 084      0.364800
     51 H161        1.5010   -3.8510   10.8650 h1        1 084      0.027700
     52 H162        1.5450   -2.1730   11.5700 h1        1 084      0.027700
     53 H171        1.4700   -2.2760    9.0380 hc        1 084      0.062950
     54 H172        2.8790   -1.3380    9.6860 hc        1 084      0.062950
     55 H61         1.1330   -3.6750    7.2080 h1        1 084      0.058700
     56 H62         1.2030   -3.7110    5.3780 h1        1 084      0.058700
     57 H63         2.1100   -4.9640    6.3550 h1        1 084      0.058700
     58 H28         5.5520    0.7670    6.7080 ha        1 084      0.165000
     59 H30         7.9160    1.6930    3.2020 ha        1 084      0.148000
     60 H31         7.1730   -0.4450    2.1380 ha        1 084      0.141000
     61 H32         5.6220   -1.9730    3.3490 ha        1 084      0.140000
     62 H60         2.4460    0.3790   -2.4310 ha        1 084      0.133500
     63 H59         2.9110    2.5210   -3.6130 ha        1 084      0.134500
     64 H58         2.4410    4.7000   -2.4900 ha        1 084      0.134000
     65 H57         1.4970    4.7310   -0.1790 ha        1 084      0.134500
     66 H56         1.0110    2.5960    1.0000 ha        1 084      0.133500
@<TRIPOS>BOND
     1    1    2 1   
     2    1   38 1   
     3    1   39 1   
     4    1   40 1   
     5    2    3 1   
     6    2   32 1   
     7    2   41 1   
     8    3    4 1   
     9    3   42 1   
    10    4    5 ar  
    11    4    9 ar  
    12    5    6 ar  
    13    6    7 ar  
    14    6   43 1   
    15    7    8 ar  
    16    7   44 1   
    17    8    9 ar  
    18    8   10 1   
    19   10   11 2   
    20   10   20 1   
    21   11   12 1   
    22   11   22 1   
    23   12   13 2   
    24   13   14 1   
    25   13   20 1   
    26   14   15 1   
    27   14   19 1   
    28   14   45 1   
    29   15   16 1   
    30   15   46 1   
    31   15   47 1   
    32   16   17 1   
    33   16   48 1   
    34   16   49 1   
    35   17   18 1   
    36   17   50 1   
    37   18   19 1   
    38   18   51 1   
    39   18   52 1   
    40   19   53 1   
    41   19   54 1   
    42   20   21 1   
    43   21   55 1   
    44   21   56 1   
    45   21   57 1   
    46   22   23 ar  
    47   22   27 ar  
    48   23   24 ar  
    49   23   58 1   
    50   24   25 ar  
    51   24   28 1   
    52   25   26 ar  
    53   25   59 1   
    54   26   27 ar  
    55   26   60 1   
    56   27   61 1   
    57   28   29 1   
    58   28   30 1   
    59   28   31 1   
    60   32   33 ar  
    61   32   37 ar  
    62   33   34 ar  
    63   33   62 1   
    64   34   35 ar  
    65   34   63 1   
    66   35   36 ar  
    67   35   64 1   
    68   36   37 ar  
    69   36   65 1   
    70   37   66 1   
@<TRIPOS>SUBSTRUCTURE
     1 084         1 TEMP              0 ****  ****    0 ROOT
