@<TRIPOS>MOLECULE
084
   66    60     1     0     0
SMALL
bcc


@<TRIPOS>ATOM
      1 C50        -4.5510   -0.4560   -2.5990 c3        1 084     -0.238000
      2 C49        -3.6030    0.4230   -3.3770 c3        1 084      0.064000
      3 N48        -2.5300    0.8230   -2.5280 n3        1 084     -0.274000
      4 C40        -1.4210   -0.0700   -2.3020 c2        1 084      0.160000
      5 N39        -1.1220   -1.0520   -3.2380 n2        1 084     -0.217000
      6 C38        -0.1470   -1.9400   -2.9920 c1        1 084     -0.003000
      7 C37         0.5620   -1.8790   -1.8050 c1        1 084     -0.289000
      8 C12         0.2650   -0.9050   -0.8760 c1        1 084      0.117000
      9 N41        -0.7240   -0.0070   -1.1280 n1        1 084     -0.212000
     10 C1          0.9000   -0.9210    0.3960 c1        1 084     -0.060000
     11 C5          2.1400   -0.3630    0.6970 c2        1 084     -0.059000
     12 N4          2.4380   -0.6780    1.9730 n2        1 084     -0.127000
     13 C3          1.4100   -1.4240    2.4760 c1        1 084     -0.025000
     14 C10         1.3520   -2.0660    3.9250 c2        1 084     -0.030000
     15 C13         2.5340   -2.9650    4.0980 c3        1 084     -0.152000
     16 C14         2.6680   -3.4740    5.5220 c3        1 084     -0.073000
     17 N15         2.6330   -2.3910    6.5070 n3        1 084     -0.299000
     18 C16         1.4660   -1.5000    6.3400 c3        1 084     -0.073000
     19 C17         1.3250   -0.9840    4.9200 c3        1 084     -0.152000
     20 N2          0.4600   -1.5670    1.4830 n2        1 084     -0.140000
     21 C6         -0.7540   -2.3590    1.5660 c2        1 084     -0.077000
     22 C11         2.8520    0.5110   -0.1110 c1        1 084      0.007000
     23 C28         3.0330    1.8370    0.2860 c1        1 084     -0.052000
     24 C29         3.8710    2.6860   -0.4650 c1        1 084     -0.166000
     25 C30         4.5180    2.2000   -1.6040 c1        1 084     -0.117250
     26 C31         4.3380    0.8870   -1.9970 c1        1 084     -0.117250
     27 C32         3.5000    0.0320   -1.2480 c1        1 084     -0.097000
     28 C44         4.1560    4.1030    0.0170 c3        1 084      0.467000
     29 F45         4.5360    4.8800   -1.0530 f         1 084     -0.167667
     30 F46         3.0230    4.6330    0.5870 f         1 084     -0.167667
     31 F47         5.1600    4.0750    0.9370 f         1 084     -0.167667
     32 C54        -4.3340    1.6480   -3.8680 c2        1 084     -0.090000
     33 C60        -4.5380    1.8380   -5.2300 c2        1 084     -0.110000
     34 C59        -5.3060    2.9020   -5.6740 c1        1 084     -0.128000
     35 C58        -5.8790    3.7900   -4.7440 c1        1 084     -0.117250
     36 C57        -5.6730    3.5990   -3.3830 c1        1 084     -0.117250
     37 C56        -4.9080    2.5380   -2.9420 c1        1 084     -0.124000
     38 H501       -4.6170   -1.3180   -3.0280 hc        1 084      0.086000
     39 H502       -4.2090   -0.5710   -1.6740 hc        1 084      0.086000
     40 H503       -5.4660   -0.0240   -2.5690 hc        1 084      0.086000
     41 H49        -3.2340   -0.0940   -4.1720 h1        1 084      0.127000
     42 H48        -2.5960    1.5960   -2.0460 hn        1 084      0.235000
     43 H38         0.0720   -2.6660   -3.6860 ha        1 084      0.165000
     44 H37         1.2880   -2.5420   -1.6220 ha        1 084      0.162000
     45 H10         0.5330   -2.5950    4.0090 ha        1 084      0.090000
     46 H131        2.4400   -3.7020    3.5220 hc        1 084      0.101500
     47 H132        3.3410   -2.4780    3.8580 hc        1 084      0.101500
     48 H141        1.9290   -4.0950    5.7080 h1        1 084      0.067000
     49 H142        3.5410   -3.9660    5.6130 h1        1 084      0.067000
     50 H15         2.6300   -2.7510    7.3630 hn        1 084      0.160000
     51 H161        0.6740   -1.9790    6.5740 h1        1 084      0.067000
     52 H162        1.5640   -0.7250    6.9540 h1        1 084      0.067000
     53 H171        2.0200   -0.4000    4.7450 hc        1 084      0.101500
     54 H172        0.4540   -0.4890    4.8390 hc        1 084      0.101500
     55 H61        -1.3950   -2.0260    0.9370 ha        1 084      0.097000
     56 H62        -1.1260   -2.2980    2.4750 ha        1 084      0.097000
     57 H63        -0.5500   -3.2880    1.3580 ha        1 084      0.097000
     58 H28         2.5800    2.1760    1.0810 ha        1 084      0.167000
     59 H30         5.1090    2.8000   -2.1340 ha        1 084      0.139250
     60 H31         4.8010    0.5450   -2.8080 ha        1 084      0.139250
     61 H32         3.3770   -0.8820   -1.5240 ha        1 084      0.142000
     62 H60        -4.1270    1.2000   -5.8940 ha        1 084      0.137000
     63 H59        -5.4530    3.0400   -6.6550 ha        1 084      0.135000
     64 H58        -6.3940    4.5040   -5.0400 ha        1 084      0.139250
     65 H57        -6.0670    4.2100   -2.7420 ha        1 084      0.139250
     66 H56        -4.7680    2.4090   -2.0090 ha        1 084      0.129000
@<TRIPOS>BOND
     1    1    2 1   
     2    1   38 1   
     3    1   39 1   
     4    1   40 1   
     5    2    3 1   
     6    2   32 1   
     7    2   41 1   
     8    3    4 1   
     9    3   42 1   
    10    4    5 1   
    11    4    9 1   
    12    5    6 1   
    13    6   43 1   
    14    7    8 1   
    15    7   44 1   
    16   10   11 1   
    17   10   20 1   
    18   11   12 1   
    19   11   22 1   
    20   12   13 1   
    21   13   20 1   
    22   14   15 1   
    23   14   19 1   
    24   14   45 1   
    25   15   16 1   
    26   15   46 1   
    27   15   47 1   
    28   16   17 1   
    29   16   48 1   
    30   16   49 1   
    31   17   18 1   
    32   17   50 1   
    33   18   19 1   
    34   18   51 1   
    35   18   52 1   
    36   19   53 1   
    37   19   54 1   
    38   21   55 1   
    39   21   56 1   
    40   21   57 1   
    41   22   27 1   
    42   23   24 1   
    43   23   58 1   
    44   24   28 1   
    45   25   26 1   
    46   25   59 1   
    47   26   60 1   
    48   27   61 1   
    49   28   29 1   
    50   28   30 1   
    51   28   31 1   
    52   32   33 1   
    53   32   37 1   
    54   33   34 1   
    55   33   62 1   
    56   34   63 1   
    57   35   36 1   
    58   35   64 1   
    59   36   65 1   
    60   37   66 1   
@<TRIPOS>SUBSTRUCTURE
     1 084         1 TEMP              0 ****  ****    0 ROOT
