@<TRIPOS>MOLECULE
084
   67    71     1     0     0
SMALL
bcc


@<TRIPOS>ATOM
      1 C50         1.4950    1.5680    2.3060 c3        1 084     -0.127100
      2 C49         1.7440    0.7770    1.0310 c3        1 084      0.211800
      3 N48         3.0850    0.0500    1.0820 n4        1 084     -0.758700
      4 C40         2.9930   -1.2380    1.8290 ca        1 084      0.720900
      5 N39         2.6310   -2.3430    1.0990 nb        1 084     -0.681000
      6 C38         2.5760   -3.4940    1.8000 ca        1 084      0.459200
      7 C37         2.8640   -3.5670    3.1730 ca        1 084     -0.331600
      8 C12         3.2160   -2.3660    3.8440 ca        1 084      0.585800
      9 N41         3.2750   -1.1820    3.1660 nb        1 084     -0.681000
     10 C1          3.5620   -2.3660    5.2520 cc        1 084     -0.341100
     11 C5          4.5820   -1.6340    5.9280 cd        1 084      0.449800
     12 N4          4.6270   -2.0140    7.2630 nd        1 084     -0.649000
     13 C3          3.6420   -2.9410    7.4360 cc        1 084      0.474800
     14 C10         3.2850   -3.6140    8.7300 c3        1 084     -0.097000
     15 C13         4.5150   -3.8250    9.6040 c3        1 084     -0.074900
     16 C14         4.1050   -4.4790   10.9250 c3        1 084      0.164800
     17 N15         3.0730   -3.7380   11.6210 n3        1 084     -0.823200
     18 C16         1.9060   -3.4540   10.8130 c3        1 084      0.164800
     19 C17         2.2530   -2.7820    9.4830 c3        1 084     -0.074900
     20 N2          2.9690   -3.1920    6.2280 na        1 084     -0.184900
     21 C6          1.8270   -4.0330    6.0660 c3        1 084      0.008600
     22 C11         5.5080   -0.6640    5.3590 ca        1 084     -0.130500
     23 C28         5.0310    0.5130    4.7750 ca        1 084     -0.054000
     24 C29         5.9300    1.3940    4.1690 ca        1 084     -0.198300
     25 C30         7.3050    1.1570    4.2110 ca        1 084     -0.062000
     26 C31         7.7800    0.0110    4.8480 ca        1 084     -0.135000
     27 C32         6.8910   -0.9010    5.4150 ca        1 084     -0.057000
     28 C44         5.3750    2.5990    3.4280 c3        1 084      0.696200
     29 F45         4.8670    2.2730    2.1780 f         1 084     -0.244967
     30 F46         4.3070    3.2180    4.0270 f         1 084     -0.244967
     31 F47         6.2640    3.6030    3.1620 f         1 084     -0.244967
     32 C54         1.7290    1.6550   -0.1850 ca        1 084     -0.187300
     33 C60         0.8750    1.3380   -1.2480 ca        1 084     -0.101500
     34 C59         0.8240    2.1660   -2.3680 ca        1 084     -0.120500
     35 C58         1.6280    3.3050   -2.4350 ca        1 084     -0.083000
     36 C57         2.4860    3.6180   -1.3790 ca        1 084     -0.120500
     37 C56         2.5380    2.7970   -0.2550 ca        1 084     -0.101500
     38 H501        0.5470    2.1480    2.1720 hc        1 084      0.079367
     39 H502        1.3760    0.8890    3.1850 hc        1 084      0.079367
     40 H503        2.3220    2.2920    2.5180 hc        1 084      0.079367
     41 H49         0.9530   -0.0270    0.9290 hx        1 084      0.108700
     42 H48         3.7820    0.6650    1.5360 hn        1 084      0.477300
     43 H38         2.2940   -4.3930    1.2150 h4        1 084      0.066100
     44 H37         2.8440   -4.5310    3.7010 ha        1 084      0.186000
     45 H10         2.8400   -4.6260    8.4980 hc        1 084      0.057700
     46 H131        5.2500   -4.4890    9.0830 hc        1 084      0.062700
     47 H132        5.0160   -2.8440    9.8100 hc        1 084      0.062700
     48 H141        3.7940   -5.5450   10.7110 h1        1 084      0.034700
     49 H142        5.0050   -4.5160   11.6020 h1        1 084      0.034700
     50 H15         2.8070   -4.2140   12.4630 hn        1 084      0.377800
     51 H161        1.3050   -4.3850   10.5880 h1        1 084      0.034700
     52 H162        1.2470   -2.7580   11.4060 h1        1 084      0.034700
     53 H171        1.3170   -2.6810    8.8770 hc        1 084      0.062700
     54 H172        2.6620   -1.7550    9.6690 hc        1 084      0.062700
     55 H61         1.1900   -3.9880    6.9920 h1        1 084      0.066033
     56 H62         2.1520   -5.0980    5.9020 h1        1 084      0.066033
     57 H63         1.2150   -3.6930    5.1890 h1        1 084      0.066033
     58 H28         3.9570    0.7570    4.8030 ha        1 084      0.155000
     59 H30         8.0050    1.8740    3.7520 ha        1 084      0.161000
     60 H31         8.8650   -0.1720    4.9060 ha        1 084      0.159000
     61 H32         7.2710   -1.8060    5.9160 ha        1 084      0.161000
     62 H60         0.2340    0.4440   -1.2000 ha        1 084      0.143500
     63 H59         0.1440    1.9210   -3.1990 ha        1 084      0.157500
     64 H58         1.5840    3.9590   -3.3210 ha        1 084      0.158000
     65 H57         3.1200    4.5170   -1.4310 ha        1 084      0.157500
     66 H56         3.2090    3.0550    0.5810 ha        1 084      0.143500
     67 H482        3.3900   -0.1440    0.1190 hn        1 084      0.477300
@<TRIPOS>BOND
     1    1    2 1   
     2    1   38 1   
     3    1   39 1   
     4    1   40 1   
     5    2    3 1   
     6    2   32 1   
     7    2   41 1   
     8    3    4 1   
     9    3   42 1   
    10    3   67 1   
    11    4    5 ar  
    12    4    9 ar  
    13    5    6 ar  
    14    6    7 ar  
    15    6   43 1   
    16    7    8 ar  
    17    7   44 1   
    18    8    9 ar  
    19    8   10 1   
    20   10   11 2   
    21   10   20 1   
    22   11   12 1   
    23   11   22 1   
    24   12   13 2   
    25   13   14 1   
    26   13   20 1   
    27   14   15 1   
    28   14   19 1   
    29   14   45 1   
    30   15   16 1   
    31   15   46 1   
    32   15   47 1   
    33   16   17 1   
    34   16   48 1   
    35   16   49 1   
    36   17   18 1   
    37   17   50 1   
    38   18   19 1   
    39   18   51 1   
    40   18   52 1   
    41   19   53 1   
    42   19   54 1   
    43   20   21 1   
    44   21   55 1   
    45   21   56 1   
    46   21   57 1   
    47   22   23 ar  
    48   22   27 ar  
    49   23   24 ar  
    50   23   58 1   
    51   24   25 ar  
    52   24   28 1   
    53   25   26 ar  
    54   25   59 1   
    55   26   27 ar  
    56   26   60 1   
    57   27   61 1   
    58   28   29 1   
    59   28   30 1   
    60   28   31 1   
    61   32   33 ar  
    62   32   37 ar  
    63   33   34 ar  
    64   33   62 1   
    65   34   35 ar  
    66   34   63 1   
    67   35   36 ar  
    68   35   64 1   
    69   36   37 ar  
    70   36   65 1   
    71   37   66 1   
@<TRIPOS>SUBSTRUCTURE
     1 084         1 TEMP              0 ****  ****    0 ROOT
