@<TRIPOS>MOLECULE
084
   66    70     1     0     0
SMALL
bcc


@<TRIPOS>ATOM
      1 C50        -0.1320   -0.0130    0.3320 c3        1 084     -0.120100
      2 C49         1.3750    0.0620    0.0660 c3        1 084      0.264800
      3 N48         2.2010   -0.0720    1.2540 nh        1 084     -0.824900
      4 C40         2.2730   -1.2770    1.9600 ca        1 084      0.877900
      5 N39         1.9460   -2.4690    1.3120 nb        1 084     -0.745000
      6 C38         2.1620   -3.5940    2.0050 ca        1 084      0.464200
      7 C37         2.6690   -3.6190    3.3160 ca        1 084     -0.431600
      8 C12         2.9460   -2.3680    3.9130 ca        1 084      0.557800
      9 N41         2.7440   -1.1970    3.2700 nb        1 084     -0.736000
     10 C1          3.4720   -2.3220    5.2780 cc        1 084     -0.268100
     11 C5          4.5730   -1.5970    5.8030 cd        1 084      0.396800
     12 N4          4.6940   -1.8550    7.1730 nd        1 084     -0.655000
     13 C3          3.6950   -2.7140    7.4910 cc        1 084      0.425800
     14 C10         3.4040   -3.2720    8.8520 c3        1 084     -0.086000
     15 C13         4.6790   -3.4640    9.6610 c3        1 084     -0.073900
     16 C14         4.3390   -4.0100   11.0480 c3        1 084      0.163800
     17 N15         3.3690   -3.1990   11.7580 n3        1 084     -0.820200
     18 C16         2.1690   -2.9110   11.0000 c3        1 084      0.163800
     19 C17         2.4540   -2.3490    9.6070 c3        1 084     -0.073900
     20 N2          2.9190   -3.0290    6.3560 na        1 084     -0.188900
     21 C6          1.7660   -3.8680    6.3340 c3        1 084      0.016600
     22 C11         5.4840   -0.7220    5.0840 ca        1 084     -0.100500
     23 C28         5.9260    0.4680    5.6810 ca        1 084     -0.052000
     24 C29         6.8010    1.3030    4.9870 ca        1 084     -0.175300
     25 C30         7.2470    0.9680    3.7060 ca        1 084     -0.082000
     26 C31         6.8130   -0.2190    3.1190 ca        1 084     -0.137000
     27 C32         5.9390   -1.0620    3.8030 ca        1 084     -0.081000
     28 C44         7.2900    2.5900    5.6370 c3        1 084      0.688200
     29 F45         7.5600    3.6100    4.7560 f         1 084     -0.239633
     30 F46         6.4140    3.1520    6.5350 f         1 084     -0.239633
     31 F47         8.4570    2.4550    6.3520 f         1 084     -0.239633
     32 C54         1.6860    1.3660   -0.6350 ca        1 084     -0.096300
     33 C60         2.2140    1.3430   -1.9300 ca        1 084     -0.117500
     34 C59         2.4870    2.5380   -2.5940 ca        1 084     -0.128000
     35 C58         2.2440    3.7600   -1.9670 ca        1 084     -0.123000
     36 C57         1.7240    3.7860   -0.6720 ca        1 084     -0.128000
     37 C56         1.4460    2.5920   -0.0070 ca        1 084     -0.117500
     38 H501       -0.4030   -0.9960    0.7850 hc        1 084      0.046700
     39 H502       -0.4620    0.8040    1.0180 hc        1 084      0.046700
     40 H503       -0.6760    0.0950   -0.6370 hc        1 084      0.046700
     41 H49         1.6440   -0.7910   -0.6310 h1        1 084      0.086700
     42 H48         2.2960    0.7580    1.8030 hn        1 084      0.437800
     43 H38         1.9110   -4.5320    1.4750 h4        1 084      0.027100
     44 H37         2.8530   -4.5610    3.8420 ha        1 084      0.155000
     45 H10         2.9090   -4.2790    8.7290 hc        1 084      0.049700
     46 H131        5.2220   -2.4880    9.7610 hc        1 084      0.062950
     47 H132        5.3590   -4.1860    9.1430 hc        1 084      0.062950
     48 H141        3.9910   -5.0800   10.9310 h1        1 084      0.027700
     49 H142        5.2780   -4.0250   11.6710 h1        1 084      0.027700
     50 H15         3.1290   -3.6340   12.6290 hn        1 084      0.364800
     51 H161        1.5820   -2.1470   11.5850 h1        1 084      0.027700
     52 H162        1.5130   -3.8250   10.8820 h1        1 084      0.027700
     53 H171        1.4860   -2.2520    9.0540 hc        1 084      0.062950
     54 H172        2.9110   -1.3290    9.6910 hc        1 084      0.062950
     55 H61         1.1190   -3.6470    7.2260 h1        1 084      0.058700
     56 H62         2.0750   -4.9490    6.3680 h1        1 084      0.058700
     57 H63         1.1770   -3.6860    5.3960 h1        1 084      0.058700
     58 H28         5.5820    0.7450    6.6910 ha        1 084      0.165000
     59 H30         7.9330    1.6420    3.1680 ha        1 084      0.148000
     60 H31         7.1610   -0.4900    2.1110 ha        1 084      0.141000
     61 H32         5.6010   -2.0000    3.3360 ha        1 084      0.140000
     62 H60         2.4160    0.3820   -2.4260 ha        1 084      0.133500
     63 H59         2.8990    2.5160   -3.6130 ha        1 084      0.134500
     64 H58         2.4640    4.7020   -2.4900 ha        1 084      0.134000
     65 H57         1.5350    4.7480   -0.1740 ha        1 084      0.134500
     66 H56         1.0300    2.6200    1.0110 ha        1 084      0.133500
@<TRIPOS>BOND
     1    1    2 1   
     2    1   38 1   
     3    1   39 1   
     4    1   40 1   
     5    2    3 1   
     6    2   32 1   
     7    2   41 1   
     8    3    4 1   
     9    3   42 1   
    10    4    5 ar  
    11    4    9 ar  
    12    5    6 ar  
    13    6    7 ar  
    14    6   43 1   
    15    7    8 ar  
    16    7   44 1   
    17    8    9 ar  
    18    8   10 1   
    19   10   11 2   
    20   10   20 1   
    21   11   12 1   
    22   11   22 1   
    23   12   13 2   
    24   13   14 1   
    25   13   20 1   
    26   14   15 1   
    27   14   19 1   
    28   14   45 1   
    29   15   16 1   
    30   15   46 1   
    31   15   47 1   
    32   16   17 1   
    33   16   48 1   
    34   16   49 1   
    35   17   18 1   
    36   17   50 1   
    37   18   19 1   
    38   18   51 1   
    39   18   52 1   
    40   19   53 1   
    41   19   54 1   
    42   20   21 1   
    43   21   55 1   
    44   21   56 1   
    45   21   57 1   
    46   22   23 ar  
    47   22   27 ar  
    48   23   24 ar  
    49   23   58 1   
    50   24   25 ar  
    51   24   28 1   
    52   25   26 ar  
    53   25   59 1   
    54   26   27 ar  
    55   26   60 1   
    56   27   61 1   
    57   28   29 1   
    58   28   30 1   
    59   28   31 1   
    60   32   33 ar  
    61   32   37 ar  
    62   33   34 ar  
    63   33   62 1   
    64   34   35 ar  
    65   34   63 1   
    66   35   36 ar  
    67   35   64 1   
    68   36   37 ar  
    69   36   65 1   
    70   37   66 1   
@<TRIPOS>SUBSTRUCTURE
     1 084         1 TEMP              0 ****  ****    0 ROOT
