@<TRIPOS>MOLECULE
084
   66    70     1     0     0
SMALL
bcc


@<TRIPOS>ATOM
      1 C50        -4.3840    3.1430   -1.6990 c3        1 084     -0.120100
      2 C49        -4.4630    2.1840   -0.5070 c3        1 084      0.264800
      3 N48        -3.2290    1.4650   -0.2330 nh        1 084     -0.824900
      4 C40        -2.0880    2.1270    0.2320 ca        1 084      0.877900
      5 N39        -2.2260    3.3580    0.8720 nb        1 084     -0.745000
      6 C38        -1.1110    3.8720    1.4060 ca        1 084      0.464200
      7 C37         0.1470    3.2520    1.3350 ca        1 084     -0.431600
      8 C12         0.2090    2.0200    0.6430 ca        1 084      0.557800
      9 N41        -0.8780    1.4510    0.0760 nb        1 084     -0.736000
     10 C1          1.4900    1.3210    0.5280 cc        1 084     -0.268100
     11 C5          1.8070   -0.0400    0.7720 cd        1 084      0.396800
     12 N4          3.1650   -0.2580    0.5160 nd        1 084     -0.655000
     13 C3          3.6780    0.9330    0.1220 cc        1 084      0.425800
     14 C10         5.0980    1.2010   -0.2760 c3        1 084     -0.086000
     15 C13         6.0710    0.3260    0.5030 c3        1 084     -0.073900
     16 C14         7.5040    0.6100    0.0520 c3        1 084      0.163800
     17 N15         7.6890    0.4760   -1.3790 n3        1 084     -0.820200
     18 C16         6.7320    1.2210   -2.1730 c3        1 084      0.163800
     19 C17         5.2800    0.9620   -1.7700 c3        1 084     -0.073900
     20 N2          2.6830    1.9340    0.1150 na        1 084     -0.188900
     21 C6          2.8600    3.2910   -0.2850 c3        1 084      0.016600
     22 C11         0.9160   -1.0910    1.2340 ca        1 084     -0.100500
     23 C28         1.0230   -2.3830    0.6990 ca        1 084     -0.052000
     24 C29         0.1650   -3.3880    1.1470 ca        1 084     -0.175300
     25 C30        -0.7970   -3.1250    2.1260 ca        1 084     -0.082000
     26 C31        -0.8950   -1.8430    2.6610 ca        1 084     -0.137000
     27 C32        -0.0430   -0.8300    2.2220 ca        1 084     -0.081000
     28 C44         0.2870   -4.7930    0.5750 c3        1 084      0.688200
     29 F45        -0.8920   -5.4980    0.5320 f         1 084     -0.239633
     30 F46         0.7550   -4.8520   -0.7160 f         1 084     -0.239633
     31 F47         1.1370   -5.6170    1.2740 f         1 084     -0.239633
     32 C54        -5.5910    1.2030   -0.7390 ca        1 084     -0.096300
     33 C60        -6.6830    1.1900    0.1340 ca        1 084     -0.117500
     34 C59        -7.7390    0.3040   -0.0800 ca        1 084     -0.128000
     35 C58        -7.7050   -0.5790   -1.1600 ca        1 084     -0.123000
     36 C57        -6.6130   -0.5730   -2.0280 ca        1 084     -0.128000
     37 C56        -5.5580    0.3150   -1.8190 ca        1 084     -0.117500
     38 H501       -3.6070    3.9240   -1.5240 hc        1 084      0.046700
     39 H502       -4.1430    2.5970   -2.6420 hc        1 084      0.046700
     40 H503       -5.3730    3.6460   -1.8230 hc        1 084      0.046700
     41 H49        -4.7080    2.7980    0.4140 h1        1 084      0.086700
     42 H48        -3.0620    0.6690   -0.8140 hn        1 084      0.437800
     43 H38        -1.2370    4.8430    1.9210 h4        1 084      0.027100
     44 H37         1.0330    3.6910    1.8040 ha        1 084      0.155000
     45 H10         5.3370    2.2810   -0.0500 hc        1 084      0.049700
     46 H131        5.9860    0.5360    1.5990 hc        1 084      0.062950
     47 H132        5.8300   -0.7570    0.3390 hc        1 084      0.062950
     48 H141        7.7920    1.6400    0.4210 h1        1 084      0.027700
     49 H142        8.1920   -0.1320    0.5470 h1        1 084      0.027700
     50 H15         8.6230    0.7400   -1.6320 hn        1 084      0.364800
     51 H161        6.9160    2.3360   -2.1220 h1        1 084      0.027700
     52 H162        6.8720    0.9040   -3.2460 h1        1 084      0.027700
     53 H171        4.9960   -0.0940   -2.0180 hc        1 084      0.062950
     54 H172        4.6170    1.6470   -2.3570 hc        1 084      0.062950
     55 H61         3.3710    3.8690    0.5330 h1        1 084      0.058700
     56 H62         3.4940    3.3330   -1.2120 h1        1 084      0.058700
     57 H63         1.8630    3.7620   -0.4970 h1        1 084      0.058700
     58 H28         1.7770   -2.6050   -0.0730 ha        1 084      0.165000
     59 H30        -1.4710   -3.9270    2.4640 ha        1 084      0.148000
     60 H31        -1.6490   -1.6280    3.4330 ha        1 084      0.141000
     61 H32        -0.1240    0.1810    2.6510 ha        1 084      0.140000
     62 H60        -6.7110    1.8780    0.9930 ha        1 084      0.133500
     63 H59        -8.5970    0.3000    0.6070 ha        1 084      0.134500
     64 H58        -8.5360   -1.2790   -1.3250 ha        1 084      0.134000
     65 H57        -6.5820   -1.2700   -2.8780 ha        1 084      0.134500
     66 H56        -4.7030    0.3180   -2.5120 ha        1 084      0.133500
@<TRIPOS>BOND
     1    1    2 1   
     2    1   38 1   
     3    1   39 1   
     4    1   40 1   
     5    2    3 1   
     6    2   32 1   
     7    2   41 1   
     8    3    4 1   
     9    3   42 1   
    10    4    5 ar  
    11    4    9 ar  
    12    5    6 ar  
    13    6    7 ar  
    14    6   43 1   
    15    7    8 ar  
    16    7   44 1   
    17    8    9 ar  
    18    8   10 1   
    19   10   11 2   
    20   10   20 1   
    21   11   12 1   
    22   11   22 1   
    23   12   13 2   
    24   13   14 1   
    25   13   20 1   
    26   14   15 1   
    27   14   19 1   
    28   14   45 1   
    29   15   16 1   
    30   15   46 1   
    31   15   47 1   
    32   16   17 1   
    33   16   48 1   
    34   16   49 1   
    35   17   18 1   
    36   17   50 1   
    37   18   19 1   
    38   18   51 1   
    39   18   52 1   
    40   19   53 1   
    41   19   54 1   
    42   20   21 1   
    43   21   55 1   
    44   21   56 1   
    45   21   57 1   
    46   22   23 ar  
    47   22   27 ar  
    48   23   24 ar  
    49   23   58 1   
    50   24   25 ar  
    51   24   28 1   
    52   25   26 ar  
    53   25   59 1   
    54   26   27 ar  
    55   26   60 1   
    56   27   61 1   
    57   28   29 1   
    58   28   30 1   
    59   28   31 1   
    60   32   33 ar  
    61   32   37 ar  
    62   33   34 ar  
    63   33   62 1   
    64   34   35 ar  
    65   34   63 1   
    66   35   36 ar  
    67   35   64 1   
    68   36   37 ar  
    69   36   65 1   
    70   37   66 1   
@<TRIPOS>SUBSTRUCTURE
     1 084         1 TEMP              0 ****  ****    0 ROOT
