@<TRIPOS>MOLECULE
085
   45    38     1     0     0
SMALL
bcc


@<TRIPOS>ATOM
      1 CAM         2.9360    1.1090   -0.0840 c1        1 085     -0.100000
      2 CAZ         4.3380    1.0970   -0.0940 c1        1 085     -0.000000
      3 OAS         5.3010    2.1470   -0.0530 o         1 085     -0.218000
      4 CAN         6.5750    1.5710   -0.1570 c3        1 085      0.099000
      5 OAR         6.4160    0.1780   -0.1640 os        1 085     -0.216000
      6 CAY         5.0190   -0.1070   -0.1410 c2        1 085      0.024000
      7 CAL         4.3070   -1.3130   -0.1770 c2        1 085     -0.122000
      8 CAK         2.9170   -1.3010   -0.1660 c1        1 085     -0.070000
      9 CAW         2.2310   -0.0880   -0.1200 c1        1 085     -0.038000
     10 CBB         0.7160   -0.0750   -0.1130 c2        1 085     -0.014000
     11 NAP        -0.0660   -0.0730    0.9710 n2        1 085     -0.187000
     12 CBA        -1.3560   -0.0460    0.5570 c1        1 085     -0.013000
     13 CAV        -2.5780   -0.0580    1.4520 c1        1 085      0.008000
     14 CAJ        -3.1890   -1.2590    1.7750 c2        1 085     -0.100000
     15 CAH        -4.3060   -1.2700    2.5960 c1        1 085     -0.107000
     16 CAI        -3.0840    1.1330    1.9510 c1        1 085     -0.135000
     17 CAG        -4.2010    1.1220    2.7720 c1        1 085     -0.079000
     18 CAU        -4.8120   -0.0800    3.0940 c1        1 085     -0.113000
     19 CAT        -6.0580   -0.0880    3.9570 c2        1 085      0.343000
     20 OAB        -6.5150    0.9570    4.3730 o         1 085     -0.369000
     21 NAA        -6.7060   -1.3140    4.2540 n         1 085     -0.432000
     22 NAQ        -1.3620   -0.0310   -0.7980 n2        1 085     -0.118000
     23 CBC        -0.0940   -0.0490   -1.2180 c1        1 085     -0.070000
     24 CAX         0.3660   -0.1090   -2.6590 c1        1 085      0.063000
     25 CAF         0.4670    1.0560   -3.4030 c1        1 085     -0.125000
     26 CAD         0.8390    0.9970   -4.7150 c1        1 085     -0.125000
     27 CAC         1.1110   -0.2090   -5.2920 c1        1 085     -0.125000
     28 CAE         1.0100   -1.3730   -4.5460 c1        1 085     -0.125000
     29 NAO         0.6380   -1.3130   -3.2360 n1        1 085     -0.142000
     30 H1          2.4560    1.9580   -0.0510 ha        1 085      0.157000
     31 H2          6.9880    1.8520   -1.0020 h2        1 085      0.112500
     32 H3          4.7870   -2.1620   -0.2100 ha        1 085      0.159000
     33 H4          2.4210   -2.1410   -0.1920 ha        1 085      0.163000
     34 H5          0.2190   -0.1010    1.8370 DU        1 085      0.260000
     35 H6         -2.8330   -2.0980    1.4240 ha        1 085      0.161000
     36 H7         -4.7360   -2.1160    2.8230 ha        1 085      0.139000
     37 H8         -2.6530    1.9790    1.7230 ha        1 085      0.135000
     38 H9         -4.5570    1.9600    3.1220 ha        1 085      0.160000
     39 H10        -6.3470   -2.1030    3.9650 hn        1 085      0.227500
     40 H11        -7.4800   -1.3160    4.7410 hn        1 085      0.227500
     41 H13         0.2730    1.9180   -2.9890 ha        1 085      0.149000
     42 H14         0.9110    1.8170   -5.2400 ha        1 085      0.149000
     43 H15         1.3780   -0.2530   -6.2310 ha        1 085      0.149000
     44 H16         1.2040   -2.2360   -4.9590 ha        1 085      0.149000
     45 H17         7.1110    1.8310    0.6220 h2        1 085      0.112500
@<TRIPOS>BOND
     1    1    9 1   
     2    1   30 1   
     3    2    6 1   
     4    3    4 1   
     5    4    5 1   
     6    4   31 1   
     7    4   45 1   
     8    5    6 1   
     9    6    7 1   
    10    7    8 1   
    11    7   32 1   
    12    8   33 1   
    13    9   10 1   
    14   10   11 1   
    15   10   23 1   
    16   11   12 1   
    17   12   22 1   
    18   13   14 1   
    19   13   16 1   
    20   14   15 1   
    21   14   35 1   
    22   15   36 1   
    23   16   37 1   
    24   17   18 1   
    25   17   38 1   
    26   18   19 1   
    27   19   20 1   
    28   19   21 1   
    29   21   39 1   
    30   21   40 1   
    31   22   23 1   
    32   24   29 1   
    33   25   26 1   
    34   25   41 1   
    35   26   42 1   
    36   27   28 1   
    37   27   43 1   
    38   28   44 1   
@<TRIPOS>SUBSTRUCTURE
     1 085         1 TEMP              0 ****  ****    0 ROOT
