@<TRIPOS>MOLECULE
085
   46    50     1     0     0
SMALL
bcc


@<TRIPOS>ATOM
      1 CAM        -0.0380    0.0700    0.0630 ca        1 085     -0.105000
      2 CAZ         1.3370    0.0360    0.0630 ca        1 085      0.057100
      3 OAS         2.2030    0.0230    1.1500 os        1 085     -0.330900
      4 CAN         3.5480   -0.0010    0.6140 c3        1 085      0.320200
      5 OAR         3.4450   -0.0240   -0.8310 os        1 085     -0.322900
      6 CAY         2.0950    0.0060   -1.1410 ca        1 085      0.086100
      7 CAL         1.4890    0.0110   -2.3810 ca        1 085     -0.116000
      8 CAK         0.0840    0.0460   -2.3910 ca        1 085     -0.072000
      9 CAW        -0.6640    0.0750   -1.2090 ca        1 085     -0.054000
     10 CBB        -2.1130    0.1040   -1.2770 cc        1 085     -0.041600
     11 NAP        -2.9230   -0.6930   -0.4800 na        1 085     -0.278900
     12 CBA        -4.2640   -0.4220   -0.8260 cc        1 085      0.361000
     13 CAV        -5.4150   -1.0430   -0.2070 ca        1 085      0.019500
     14 CAJ        -5.2870   -2.0540    0.7620 ca        1 085     -0.136500
     15 CAH        -6.4110   -2.6250    1.3420 ca        1 085     -0.047000
     16 CAI        -6.7130   -0.6240   -0.5840 ca        1 085     -0.136500
     17 CAG        -7.8350   -1.1910   -0.0080 ca        1 085     -0.047000
     18 CAU        -7.7020   -2.2000    0.9660 ca        1 085     -0.239600
     19 CAT        -8.8150   -2.8490    1.6250 c         1 085      0.580700
     20 OAB        -8.8270   -3.7410    2.4620 o         1 085     -0.433100
     21 NAA       -10.2160   -2.3720    1.2480 nz        1 085     -0.763400
     22 NAQ        -4.3150    0.5210   -1.8220 nd        1 085     -0.606000
     23 CBC        -3.0060    0.8570   -2.1110 cd        1 085      0.271300
     24 CAX        -2.6410    1.8750   -3.1010 ca        1 085      0.361300
     25 CAF        -3.3880    1.9760   -4.2940 ca        1 085     -0.213300
     26 CAD        -3.0380    2.9600   -5.2230 ca        1 085     -0.096000
     27 CAC        -1.9690    3.8080   -4.9420 ca        1 085     -0.230300
     28 CAE        -1.2820    3.6340   -3.7230 ca        1 085      0.397200
     29 NAO        -1.5950    2.6970   -2.8140 nb        1 085     -0.652000
     30 H1         -0.6140    0.1210    0.9950 ha        1 085      0.151000
     31 H2          4.0720    0.9390    0.9190 h2        1 085      0.083700
     32 H3          2.0680   -0.0070   -3.3130 ha        1 085      0.168000
     33 H4         -0.4370    0.0580   -3.3610 ha        1 085      0.151000
     34 H5         -2.6080   -1.3190    0.2160 hn        1 085      0.313700
     35 H6         -4.2960   -2.4160    1.0800 ha        1 085      0.173000
     36 H7         -6.2990   -3.4180    2.1020 ha        1 085      0.146000
     37 H8         -6.8330    0.1680   -1.3460 ha        1 085      0.173000
     38 H9         -8.8210   -0.8290   -0.3370 ha        1 085      0.146000
     39 H10       -10.3080   -1.3730    1.4510 hn        1 085      0.465133
     40 H11       -10.3760   -2.5240    0.2490 hn        1 085      0.465133
     41 H13        -4.2280    1.2950   -4.4870 ha        1 085      0.152000
     42 H14        -3.6020    3.0610   -6.1620 ha        1 085      0.146000
     43 H15        -1.6630    4.5960   -5.6430 ha        1 085      0.154000
     44 H16        -0.4300    4.2860   -3.4560 h4        1 085      0.032100
     45 H17         4.0490   -0.9420    0.9500 h2        1 085      0.083700
     46 HAA3      -10.9150   -2.8950    1.7880 hn        1 085      0.465133
@<TRIPOS>BOND
     1    1    2 ar  
     2    1    9 ar  
     3    1   30 1   
     4    2    3 1   
     5    2    6 ar  
     6    3    4 1   
     7    4    5 1   
     8    4   31 1   
     9    4   45 1   
    10    5    6 1   
    11    6    7 ar  
    12    7    8 ar  
    13    7   32 1   
    14    8    9 ar  
    15    8   33 1   
    16    9   10 1   
    17   10   11 1   
    18   10   23 2   
    19   11   12 1   
    20   11   34 1   
    21   12   13 1   
    22   12   22 2   
    23   13   14 ar  
    24   13   16 ar  
    25   14   15 ar  
    26   14   35 1   
    27   15   18 ar  
    28   15   36 1   
    29   16   17 ar  
    30   16   37 1   
    31   17   18 ar  
    32   17   38 1   
    33   18   19 1   
    34   19   20 2   
    35   19   21 1   
    36   21   39 1   
    37   21   40 1   
    38   21   46 1   
    39   22   23 1   
    40   23   24 1   
    41   24   25 ar  
    42   24   29 ar  
    43   25   26 ar  
    44   25   41 1   
    45   26   27 ar  
    46   26   42 1   
    47   27   28 ar  
    48   27   43 1   
    49   28   29 ar  
    50   28   44 1   
@<TRIPOS>SUBSTRUCTURE
     1 085         1 TEMP              0 ****  ****    0 ROOT
