@<TRIPOS>MOLECULE
085
   46    50     1     0     0
SMALL
bcc


@<TRIPOS>ATOM
      1 CAM        -0.0400    0.0750    0.0650 ca        1 085     -0.105000
      2 CAZ         1.3370    0.0420    0.0660 ca        1 085      0.057100
      3 OAS         2.2010    0.0320    1.1540 os        1 085     -0.330900
      4 CAN         3.5470    0.0090    0.6190 c3        1 085      0.320200
      5 OAR         3.4450   -0.0160   -0.8270 os        1 085     -0.322900
      6 CAY         2.0950    0.0120   -1.1370 ca        1 085      0.086100
      7 CAL         1.4900    0.0150   -2.3780 ca        1 085     -0.116000
      8 CAK         0.0840    0.0480   -2.3890 ca        1 085     -0.072000
      9 CAW        -0.6640    0.0770   -1.2080 ca        1 085     -0.054000
     10 CBB        -2.1130    0.1050   -1.2760 cc        1 085     -0.041600
     11 NAP        -2.9230   -0.6930   -0.4800 na        1 085     -0.278900
     12 CBA        -4.2640   -0.4230   -0.8260 cc        1 085      0.361000
     13 CAV        -5.4150   -1.0450   -0.2080 ca        1 085      0.019500
     14 CAJ        -5.2860   -2.0570    0.7600 ca        1 085     -0.136500
     15 CAH        -6.4100   -2.6290    1.3390 ca        1 085     -0.047000
     16 CAI        -6.7130   -0.6250   -0.5840 ca        1 085     -0.136500
     17 CAG        -7.8340   -1.1930   -0.0080 ca        1 085     -0.047000
     18 CAU        -7.7010   -2.2030    0.9650 ca        1 085     -0.239600
     19 CAT        -8.8140   -2.8530    1.6230 c         1 085      0.580700
     20 OAB        -8.8260   -3.7470    2.4590 o         1 085     -0.433100
     21 NAA       -10.2140   -2.3750    1.2480 n4        1 085     -0.763400
     22 NAQ        -4.3150    0.5190   -1.8240 nd        1 085     -0.606000
     23 CBC        -3.0070    0.8560   -2.1120 cd        1 085      0.271300
     24 CAX        -2.6420    1.8730   -3.1030 ca        1 085      0.361300
     25 CAF        -3.3880    1.9720   -4.2970 ca        1 085     -0.213300
     26 CAD        -3.0380    2.9550   -5.2260 ca        1 085     -0.096000
     27 CAC        -1.9700    3.8050   -4.9450 ca        1 085     -0.230300
     28 CAE        -1.2840    3.6330   -3.7260 ca        1 085      0.397200
     29 NAO        -1.5970    2.6970   -2.8160 nb        1 085     -0.652000
     30 H1         -0.6160    0.1270    0.9960 ha        1 085      0.151000
     31 H2          4.0690    0.9500    0.9230 h2        1 085      0.083700
     32 H3          2.0700   -0.0040   -3.3100 ha        1 085      0.168000
     33 H4         -0.4360    0.0580   -3.3600 ha        1 085      0.151000
     34 H5         -2.6070   -1.3180    0.2170 hn        1 085      0.313700
     35 H6         -4.2950   -2.4200    1.0760 ha        1 085      0.173000
     36 H7         -6.2970   -3.4230    2.0980 ha        1 085      0.146000
     37 H8         -6.8330    0.1680   -1.3440 ha        1 085      0.173000
     38 H9         -8.8200   -0.8300   -0.3360 ha        1 085      0.146000
     39 H10       -10.9140   -2.8990    1.7870 hn        1 085      0.465133
     40 H11       -10.3760   -2.5260    0.2490 hn        1 085      0.465133
     41 H13        -4.2270    1.2900   -4.4890 ha        1 085      0.152000
     42 H14        -3.6020    3.0540   -6.1660 ha        1 085      0.146000
     43 H15        -1.6650    4.5920   -5.6470 ha        1 085      0.154000
     44 H16        -0.4330    4.2860   -3.4590 h4        1 085      0.032100
     45 H17         4.0480   -0.9310    0.9560 h2        1 085      0.083700
     46 HAA3      -10.3060   -1.3770    1.4530 hn        1 085      0.465133
@<TRIPOS>BOND
     1    1    2 ar  
     2    1    9 ar  
     3    1   30 1   
     4    2    3 1   
     5    2    6 ar  
     6    3    4 1   
     7    4    5 1   
     8    4   31 1   
     9    4   45 1   
    10    5    6 1   
    11    6    7 ar  
    12    7    8 ar  
    13    7   32 1   
    14    8    9 ar  
    15    8   33 1   
    16    9   10 1   
    17   10   11 1   
    18   10   23 2   
    19   11   12 1   
    20   11   34 1   
    21   12   13 1   
    22   12   22 2   
    23   13   14 ar  
    24   13   16 ar  
    25   14   15 ar  
    26   14   35 1   
    27   15   18 ar  
    28   15   36 1   
    29   16   17 ar  
    30   16   37 1   
    31   17   18 ar  
    32   17   38 1   
    33   18   19 1   
    34   19   20 2   
    35   19   21 1   
    36   21   39 1   
    37   21   40 1   
    38   21   46 1   
    39   22   23 1   
    40   23   24 1   
    41   24   25 ar  
    42   24   29 ar  
    43   25   26 ar  
    44   25   41 1   
    45   26   27 ar  
    46   26   42 1   
    47   27   28 ar  
    48   27   43 1   
    49   28   29 ar  
    50   28   44 1   
@<TRIPOS>SUBSTRUCTURE
     1 085         1 TEMP              0 ****  ****    0 ROOT
