@<TRIPOS>MOLECULE
085
   45    49     1     0     0
SMALL
bcc


@<TRIPOS>ATOM
      1 CAM        -2.4000    1.6960    0.6740 ca        1 085     -0.104000
      2 CAZ        -3.6290    2.3050    0.5410 ca        1 085      0.052100
      3 OAS        -4.1420    3.3890    1.2480 os        1 085     -0.333900
      4 CAN        -5.4720    3.6290    0.7350 c3        1 085      0.321200
      5 OAR        -5.7260    2.6630   -0.3120 os        1 085     -0.332900
      6 CAY        -4.5910    1.8660   -0.4070 ca        1 085      0.065100
      7 CAL        -4.3490    0.8010   -1.2490 ca        1 085     -0.115000
      8 CAK        -3.0960    0.1750   -1.1220 ca        1 085     -0.085000
      9 CAW        -2.1460    0.6040   -0.1890 ca        1 085     -0.017000
     10 CBB        -0.8630   -0.0720   -0.1020 cc        1 085     -0.101600
     11 NAP         0.3510    0.6190   -0.1060 na        1 085     -0.302900
     12 CBA         1.3800   -0.3370   -0.0280 cc        1 085      0.449000
     13 CAV         2.7980    0.0190   -0.0010 ca        1 085     -0.099500
     14 CAJ         3.2620    1.1680   -0.6560 ca        1 085     -0.117500
     15 CAH         4.6160    1.4920   -0.6190 ca        1 085     -0.093000
     16 CAI         3.7020   -0.8020    0.6870 ca        1 085     -0.117500
     17 CAG         5.0570   -0.4790    0.7150 ca        1 085     -0.093000
     18 CAU         5.5190    0.6660    0.0600 ca        1 085     -0.132600
     19 CAT         6.9560    1.0650    0.0760 c         1 085      0.669700
     20 OAB         7.3060    2.2630    0.1030 o         1 085     -0.608100
     21 NAA         7.9070    0.0740    0.0490 n         1 085     -0.672000
     22 NAQ         0.8670   -1.5950    0.0240 nd        1 085     -0.645000
     23 CBC        -0.5230   -1.4500   -0.0210 cd        1 085      0.257300
     24 CAX        -1.4340   -2.5940    0.0450 ca        1 085      0.385300
     25 CAF        -1.0030   -3.8500   -0.4420 ca        1 085     -0.216300
     26 CAD        -1.8730   -4.9390   -0.3630 ca        1 085     -0.100000
     27 CAC        -3.1390   -4.7580    0.1910 ca        1 085     -0.248300
     28 CAE        -3.4840   -3.4720    0.6490 ca        1 085      0.393200
     29 NAO        -2.6680   -2.4080    0.5870 nb        1 085     -0.661000
     30 H1         -1.6690    2.0250    1.4230 ha        1 085      0.155000
     31 H2         -6.2090    3.4640    1.5590 h2        1 085      0.073200
     32 H3         -5.0900    0.4550   -1.9800 ha        1 085      0.158000
     33 H4         -2.8640   -0.6830   -1.7720 ha        1 085      0.149000
     34 H5          0.4600    1.5990   -0.1340 hn        1 085      0.308700
     35 H6          2.5710    1.8170   -1.2140 ha        1 085      0.148000
     36 H7          4.9870    2.4040   -1.1150 ha        1 085      0.149500
     37 H8          3.3420   -1.7050    1.2050 ha        1 085      0.148000
     38 H9          5.7500   -1.1260    1.2750 ha        1 085      0.149500
     39 H10         7.6550   -0.8750   -0.0410 hn        1 085      0.314000
     40 H11         8.8650    0.3220    0.0310 hn        1 085      0.314000
     41 H13         0.0030   -3.9660   -0.8700 ha        1 085      0.160000
     42 H14        -1.5600   -5.9260   -0.7340 ha        1 085      0.138000
     43 H15        -3.8520   -5.5880    0.2730 ha        1 085      0.143000
     44 H16        -4.4760   -3.2810    1.0990 h4        1 085      0.022100
     45 H17        -5.5020    4.6540    0.2890 h2        1 085      0.073200
@<TRIPOS>BOND
     1    1    2 ar  
     2    1    9 ar  
     3    1   30 1   
     4    2    3 1   
     5    2    6 ar  
     6    3    4 1   
     7    4    5 1   
     8    4   31 1   
     9    4   45 1   
    10    5    6 1   
    11    6    7 ar  
    12    7    8 ar  
    13    7   32 1   
    14    8    9 ar  
    15    8   33 1   
    16    9   10 1   
    17   10   11 1   
    18   10   23 2   
    19   11   12 1   
    20   11   34 1   
    21   12   13 1   
    22   12   22 2   
    23   13   14 ar  
    24   13   16 ar  
    25   14   15 ar  
    26   14   35 1   
    27   15   18 ar  
    28   15   36 1   
    29   16   17 ar  
    30   16   37 1   
    31   17   18 ar  
    32   17   38 1   
    33   18   19 1   
    34   19   20 2   
    35   19   21 1   
    36   21   39 1   
    37   21   40 1   
    38   22   23 1   
    39   23   24 1   
    40   24   25 ar  
    41   24   29 ar  
    42   25   26 ar  
    43   25   41 1   
    44   26   27 ar  
    45   26   42 1   
    46   27   28 ar  
    47   27   43 1   
    48   28   29 ar  
    49   28   44 1   
@<TRIPOS>SUBSTRUCTURE
     1 085         1 TEMP              0 ****  ****    0 ROOT
