@<TRIPOS>MOLECULE
085
   46    50     1     0     0
SMALL
bcc


@<TRIPOS>ATOM
      1 CAM        -0.0380    0.0770    0.0650 ca        1 085     -0.105000
      2 CAZ         1.3380    0.0440    0.0700 ca        1 085      0.057100
      3 OAS         2.2000    0.0420    1.1600 os        1 085     -0.330900
      4 CAN         3.5480    0.0140    0.6270 c3        1 085      0.320200
      5 OAR         3.4490   -0.0230   -0.8180 os        1 085     -0.322900
      6 CAY         2.0990    0.0040   -1.1320 ca        1 085      0.086100
      7 CAL         1.4970   -0.0040   -2.3730 ca        1 085     -0.116000
      8 CAK         0.0910    0.0300   -2.3870 ca        1 085     -0.072000
      9 CAW        -0.6600    0.0690   -1.2080 ca        1 085     -0.054000
     10 CBB        -2.1090    0.0970   -1.2800 cc        1 085     -0.041600
     11 NAP        -2.9200   -0.6940   -0.4790 na        1 085     -0.278900
     12 CBA        -4.2600   -0.4280   -0.8300 cc        1 085      0.361000
     13 CAV        -5.4120   -1.0450   -0.2090 ca        1 085      0.019500
     14 CAJ        -5.2860   -2.0450    0.7700 ca        1 085     -0.136500
     15 CAH        -6.4110   -2.6130    1.3510 ca        1 085     -0.047000
     16 CAI        -6.7100   -0.6310   -0.5960 ca        1 085     -0.136500
     17 CAG        -7.8330   -1.1950   -0.0180 ca        1 085     -0.047000
     18 CAU        -7.7020   -2.1940    0.9670 ca        1 085     -0.239600
     19 CAT        -8.8160   -2.8380    1.6280 c         1 085      0.580700
     20 OAB        -8.8300   -3.7230    2.4730 o         1 085     -0.433100
     21 NAA       -10.2160   -2.3670    1.2420 n4        1 085     -0.763400
     22 NAQ        -4.3090    0.5060   -1.8360 nd        1 085     -0.606000
     23 CBC        -3.0000    0.8410   -2.1240 cd        1 085      0.271300
     24 CAX        -2.6340    1.8500   -3.1210 ca        1 085      0.361300
     25 CAF        -3.3770    1.9400   -4.3180 ca        1 085     -0.213300
     26 CAD        -3.0250    2.9160   -5.2540 ca        1 085     -0.096000
     27 CAC        -1.9580    3.7680   -4.9780 ca        1 085     -0.230300
     28 CAE        -1.2740    3.6050   -3.7560 ca        1 085      0.397200
     29 NAO        -1.5890    2.6760   -2.8400 nb        1 085     -0.652000
     30 H1         -0.6160    0.1360    0.9950 ha        1 085      0.151000
     31 H2          4.0690    0.9570    0.9250 h2        1 085      0.083700
     32 H3          2.0790   -0.0300   -3.3040 ha        1 085      0.168000
     33 H4         -0.4270    0.0320   -3.3600 ha        1 085      0.151000
     34 H5         -2.6060   -1.3140    0.2240 hn        1 085      0.313700
     35 H6         -4.2960   -2.4020    1.0950 ha        1 085      0.173000
     36 H7         -6.3010   -3.3980    2.1200 ha        1 085      0.146000
     37 H8         -6.8280    0.1520   -1.3650 ha        1 085      0.173000
     38 H9         -8.8180   -0.8380   -0.3540 ha        1 085      0.146000
     39 H10       -10.9160   -2.8860    1.7840 hn        1 085      0.465133
     40 H11       -10.3730   -2.5290    0.2440 hn        1 085      0.465133
     41 H13        -4.2160    1.2570   -4.5060 ha        1 085      0.152000
     42 H14        -3.5870    3.0080   -6.1960 ha        1 085      0.146000
     43 H15        -1.6510    4.5490   -5.6850 ha        1 085      0.154000
     44 H16        -0.4230    4.2600   -3.4920 h4        1 085      0.032100
     45 H17         4.0480   -0.9230    0.9730 h2        1 085      0.083700
     46 HAA3      -10.3100   -1.3670    1.4350 hn        1 085      0.465133
@<TRIPOS>BOND
     1    1    2 ar  
     2    1    9 ar  
     3    1   30 1   
     4    2    3 1   
     5    2    6 ar  
     6    3    4 1   
     7    4    5 1   
     8    4   31 1   
     9    4   45 1   
    10    5    6 1   
    11    6    7 ar  
    12    7    8 ar  
    13    7   32 1   
    14    8    9 ar  
    15    8   33 1   
    16    9   10 1   
    17   10   11 1   
    18   10   23 2   
    19   11   12 1   
    20   11   34 1   
    21   12   13 1   
    22   12   22 2   
    23   13   14 ar  
    24   13   16 ar  
    25   14   15 ar  
    26   14   35 1   
    27   15   18 ar  
    28   15   36 1   
    29   16   17 ar  
    30   16   37 1   
    31   17   18 ar  
    32   17   38 1   
    33   18   19 1   
    34   19   20 2   
    35   19   21 1   
    36   21   39 1   
    37   21   40 1   
    38   21   46 1   
    39   22   23 1   
    40   23   24 1   
    41   24   25 ar  
    42   24   29 ar  
    43   25   26 ar  
    44   25   41 1   
    45   26   27 ar  
    46   26   42 1   
    47   27   28 ar  
    48   27   43 1   
    49   28   29 ar  
    50   28   44 1   
@<TRIPOS>SUBSTRUCTURE
     1 085         1 TEMP              0 ****  ****    0 ROOT
