@<TRIPOS>MOLECULE
087
   45    43     1     0     0
SMALL
bcc


@<TRIPOS>ATOM
      1 C1         -6.0450   -0.1650    4.7220 c3        1 087     -0.167000
      2 CL1         5.1270   -1.9270   -3.4060 cl        1 087      0.017000
      3 C2         -4.8070   -0.9600    4.3690 c2        1 087     -0.037000
      4 CL2        -2.3240   -3.9530    4.7690 cl        1 087      0.062000
      5 C3         -4.4260   -2.1570    4.9340 c1        1 087     -0.149000
      6 CL3        -5.3210   -3.0580    6.1280 cl        1 087      0.042000
      7 C4         -3.2560   -2.5370    4.3580 c2        1 087     -0.068000
      8 C5         -2.9060   -1.5780    3.4330 c1        1 087     -0.134000
      9 N6         -3.8660   -0.6100    3.4460 n2        1 087     -0.151000
     10 C8         -1.6910   -1.6130    2.5330 c1        1 087      0.364000
     11 O9         -0.9420   -2.5690    2.5610 o         1 087     -0.323000
     12 N10        -1.4530   -0.5520    1.6230 n3        1 087     -0.367000
     13 C11        -0.2960   -0.6080    0.7130 c3        1 087      0.010000
     14 C12        -0.7840   -0.6030   -0.6780 c3        1 087     -0.176000
     15 C13         0.3400   -0.4700   -1.6830 c3        1 087     -0.052500
     16 N14         1.2260    0.6690   -1.3910 n3        1 087     -0.223000
     17 C15         1.7160    0.6700   -0.0100 c3        1 087     -0.052500
     18 C16         0.5980    0.5440    1.0000 c3        1 087     -0.176000
     19 C17         2.3290    0.6520   -2.2840 c2        1 087      0.111000
     20 C18         2.5790    1.7480   -3.0960 c2        1 087     -0.149000
     21 C19         3.6010    1.7070   -4.0000 c1        1 087     -0.057000
     22 C20         4.3740    0.5870   -4.1040 c1        1 087     -0.183000
     23 C21         4.1220   -0.5070   -3.2920 c2        1 087      0.022000
     24 N22         3.1020   -0.4650   -2.3890 n2        1 087     -0.170000
     25 C24         3.9170    2.9260   -4.8410 c2        1 087      0.341000
     26 O25         3.2610    3.9410   -4.7100 o         1 087     -0.359000
     27 N26         4.9740    2.8820   -5.7860 n         1 087     -0.429000
     28 H1         -5.9880    0.1310    5.6540 hc        1 087      0.098667
     29 H1A        -6.1100    0.6170    4.1340 hc        1 087      0.098667
     30 H1B        -6.8390   -0.7280    4.6060 hc        1 087      0.098667
     31 HN10       -2.0270    0.1560    1.5870 hn        1 087      0.215000
     32 H11         0.1940   -1.4370    0.8730 h1        1 087      0.130000
     33 H12        -1.4020    0.1470   -0.7930 hc        1 087      0.097000
     34 H12A       -1.2650   -1.4380   -0.8480 hc        1 087      0.097000
     35 H13        -0.0450   -0.3510   -2.5740 h1        1 087      0.093000
     36 H13A        0.8700   -1.2920   -1.6750 h1        1 087      0.093000
     37 H15         2.3340   -0.0790    0.1070 h1        1 087      0.093000
     38 H15A        2.1970    1.5060    0.1540 h1        1 087      0.093000
     39 H16         0.0680    1.3660    0.9910 hc        1 087      0.097000
     40 H16A        0.9870    0.4280    1.8900 hc        1 087      0.097000
     41 H18         2.0260    2.5480   -3.0200 ha        1 087      0.174000
     42 H20         5.1050    0.5570   -4.7500 ha        1 087      0.160000
     43 HN26        5.2010    3.6340   -6.2540 hn        1 087      0.231000
     44 HN2A        5.4250    2.1010   -5.9300 hn        1 087      0.231000
     45 HN6        -3.8770    0.1400    2.9280 DU        1 087      0.258000
@<TRIPOS>BOND
     1    1    3 1   
     2    1   28 1   
     3    1   29 1   
     4    1   30 1   
     5    2   23 1   
     6    3    5 1   
     7    3    9 1   
     8    4    7 1   
     9    5    7 1   
    10    7    8 1   
    11    8    9 1   
    12   10   11 1   
    13   10   12 1   
    14   12   13 1   
    15   12   31 1   
    16   13   14 1   
    17   13   18 1   
    18   13   32 1   
    19   14   15 1   
    20   14   33 1   
    21   14   34 1   
    22   15   16 1   
    23   15   35 1   
    24   15   36 1   
    25   16   17 1   
    26   16   19 1   
    27   17   18 1   
    28   17   37 1   
    29   17   38 1   
    30   18   39 1   
    31   18   40 1   
    32   19   20 1   
    33   19   24 1   
    34   20   21 1   
    35   20   41 1   
    36   21   25 1   
    37   22   23 1   
    38   22   42 1   
    39   23   24 1   
    40   25   26 1   
    41   25   27 1   
    42   27   43 1   
    43   27   44 1   
@<TRIPOS>SUBSTRUCTURE
     1 087         1 TEMP              0 ****  ****    0 ROOT
