@<TRIPOS>MOLECULE
087
   47    49     1     0     0
SMALL
bcc


@<TRIPOS>ATOM
      1 C1         -0.0440   -0.1810    0.1710 c3        1 087     -0.076800
      2 Cl1        10.3700   -1.6100   -9.3570 cl        1 087     -0.056000
      3 C2          1.4270   -0.1200    0.1450 cc        1 087      0.056400
      4 Cl2         5.0150   -0.2230    1.6830 cl        1 087      0.066600
      5 C3          2.3070   -0.2780    1.2560 cd        1 087     -0.096600
      6 Cl3         1.8490   -0.5860    2.8190 cl        1 087      0.041600
      7 C4          3.6390   -0.1200    0.7770 cd        1 087      0.115400
      8 C5          3.5530    0.1200   -0.6360 cc        1 087     -0.301900
      9 N6          2.1860    0.0830   -0.9930 na        1 087     -0.170100
     10 C8          4.6710    0.3000   -1.5030 c         1 087      0.597700
     11 O9          5.8470    0.5010   -1.2210 o         1 087     -0.445100
     12 N10         4.3710    0.2100   -3.0070 ny        1 087     -0.683800
     13 C11         5.6050    0.1530   -3.8680 c3        1 087      0.123500
     14 C12         5.2950   -0.4380   -5.2470 c3        1 087     -0.106900
     15 C13         6.5850   -0.5300   -6.0660 c3        1 087      0.185800
     16 N14         7.2610    0.7580   -6.1830 nh        1 087     -0.738300
     17 C15         7.5160    1.3950   -4.8950 c3        1 087      0.185800
     18 C16         6.2490    1.5310   -4.0480 c3        1 087     -0.106900
     19 C17         8.3310    0.8360   -7.1150 ca        1 087      0.660200
     20 C18         8.8180    2.1280   -7.4960 ca        1 087     -0.195300
     21 C19         9.8100    2.2100   -8.4790 ca        1 087     -0.114600
     22 C20        10.3100    1.0460   -9.0730 ca        1 087     -0.253300
     23 C21         9.7730   -0.1890   -8.6420 ca        1 087      0.542300
     24 N22         8.8230   -0.3020   -7.6900 nb        1 087     -0.661000
     25 C24        10.2770    3.5580   -8.8300 c         1 087      0.567700
     26 O25        10.0220    4.6170   -8.2780 o         1 087     -0.388100
     27 N26        11.1860    3.6860  -10.0350 nz        1 087     -0.757400
     28 H1         -0.3690   -1.2220    0.4390 hc        1 087      0.091367
     29 H1A        -0.5080    0.0980   -0.8080 hc        1 087      0.091367
     30 H1B        -0.4290    0.5160    0.9620 hc        1 087      0.091367
     31 HN10        3.8210   -0.6380   -3.1770 hn        1 087      0.448800
     32 H11         6.3380   -0.5240   -3.3270 hx        1 087      0.126700
     33 H12         4.5440    0.1970   -5.7860 hc        1 087      0.082450
     34 H12A        4.8800   -1.4770   -5.1570 hc        1 087      0.082450
     35 H13         6.3080   -0.8850   -7.1010 h1        1 087      0.076450
     36 H13A        7.2580   -1.3070   -5.5980 h1        1 087      0.076450
     37 H15         7.9260    2.4300   -5.0710 h1        1 087      0.076450
     38 H15A        8.2830    0.8120   -4.3040 h1        1 087      0.076450
     39 H16         5.5320    2.2390   -4.5390 hc        1 087      0.082450
     40 H16A        6.5480    1.9560   -3.0510 hc        1 087      0.082450
     41 H18         8.4090    3.0460   -7.0420 ha        1 087      0.185000
     42 H20        11.0970    1.0400   -9.8390 ha        1 087      0.158000
     43 HN26       10.7390    3.2680  -10.8580 hn        1 087      0.477800
     44 HN2A       11.3790    4.6800  -10.2220 hn        1 087      0.477800
     45 HN6         1.8110    0.3930   -1.8530 hn        1 087      0.300700
     46 H102        3.8140    1.0240   -3.2800 hn        1 087      0.448800
     47 H263       12.0730    3.2030   -9.8570 hn        1 087      0.477800
@<TRIPOS>BOND
     1    1    3 1   
     2    1   28 1   
     3    1   29 1   
     4    1   30 1   
     5    2   23 1   
     6    3    5 2   
     7    3    9 1   
     8    4    7 1   
     9    5    6 1   
    10    5    7 1   
    11    7    8 2   
    12    8    9 1   
    13    8   10 1   
    14    9   45 1   
    15   10   11 2   
    16   10   12 1   
    17   12   13 1   
    18   12   31 1   
    19   12   46 1   
    20   13   14 1   
    21   13   18 1   
    22   13   32 1   
    23   14   15 1   
    24   14   33 1   
    25   14   34 1   
    26   15   16 1   
    27   15   35 1   
    28   15   36 1   
    29   16   17 1   
    30   16   19 1   
    31   17   18 1   
    32   17   37 1   
    33   17   38 1   
    34   18   39 1   
    35   18   40 1   
    36   19   20 ar  
    37   19   24 ar  
    38   20   21 ar  
    39   20   41 1   
    40   21   22 ar  
    41   21   25 1   
    42   22   23 ar  
    43   22   42 1   
    44   23   24 ar  
    45   25   26 2   
    46   25   27 1   
    47   27   43 1   
    48   27   44 1   
    49   27   47 1   
@<TRIPOS>SUBSTRUCTURE
     1 087         1 TEMP              0 ****  ****    0 ROOT
