@<TRIPOS>MOLECULE
087
   47    49     1     0     0
SMALL
bcc


@<TRIPOS>ATOM
      1 C1         -0.0440   -0.1880    0.1700 c3        1 087     -0.076800
      2 CL1        10.3820   -1.6100   -9.3470 cl        1 087     -0.056000
      3 C2          1.4280   -0.1220    0.1450 cc        1 087      0.056400
      4 CL2         5.0140   -0.2030    1.6860 cl        1 087      0.066600
      5 C3          2.3070   -0.2700    1.2580 cd        1 087     -0.096600
      6 CL3         1.8490   -0.5730    2.8220 cl        1 087      0.041600
      7 C4          3.6390   -0.1100    0.7790 cd        1 087      0.115400
      8 C5          3.5530    0.1230   -0.6350 cc        1 087     -0.301900
      9 N6          2.1860    0.0790   -0.9930 na        1 087     -0.170100
     10 C8          4.6710    0.3040   -1.5020 c         1 087      0.597700
     11 O9          5.8460    0.5090   -1.2200 o         1 087     -0.446100
     12 N10         4.3720    0.2080   -3.0070 n4        1 087     -0.683800
     13 C11         5.6070    0.1530   -3.8670 c3        1 087      0.123500
     14 C12         5.2990   -0.4440   -5.2440 c3        1 087     -0.106900
     15 C13         6.5900   -0.5340   -6.0620 c3        1 087      0.185800
     16 N14         7.2620    0.7570   -6.1820 nh        1 087     -0.738300
     17 C15         7.5140    1.3990   -4.8960 c3        1 087      0.185800
     18 C16         6.2470    1.5330   -4.0500 c3        1 087     -0.106900
     19 C17         8.3320    0.8350   -7.1140 ca        1 087      0.660200
     20 C18         8.8150    2.1280   -7.4990 ca        1 087     -0.195300
     21 C19         9.8070    2.2100   -8.4810 ca        1 087     -0.114600
     22 C20        10.3120    1.0460   -9.0710 ca        1 087     -0.253300
     23 C21         9.7790   -0.1890   -8.6370 ca        1 087      0.542300
     24 N22         8.8290   -0.3030   -7.6850 nb        1 087     -0.661000
     25 C24        10.2700    3.5590   -8.8360 c         1 087      0.567700
     26 O25        10.0110    4.6190   -8.2880 o         1 087     -0.388100
     27 N26        11.1790    3.6860  -10.0420 n4        1 087     -0.757400
     28 H1         -0.3640   -1.2270    0.4490 hc        1 087      0.091367
     29 H1A        -0.4320    0.5150    0.9540 hc        1 087      0.091367
     30 H1B        -0.5070    0.0790   -0.8110 hc        1 087      0.091367
     31 HN10        3.8120    1.0190   -3.2820 hn        1 087      0.448800
     32 H11         6.3410   -0.5200   -3.3230 hx        1 087      0.126700
     33 H12         4.5470    0.1870   -5.7860 hc        1 087      0.082450
     34 H12A        4.8880   -1.4840   -5.1510 hc        1 087      0.082450
     35 H13         6.3150   -0.8920   -7.0960 h1        1 087      0.076450
     36 H13A        7.2660   -1.3070   -5.5910 h1        1 087      0.076450
     37 H15         7.9200    2.4340   -5.0750 h1        1 087      0.076450
     38 H15A        8.2830    0.8200   -4.3030 h1        1 087      0.076450
     39 H16         6.5430    1.9620   -3.0550 hc        1 087      0.082450
     40 H16A        5.5270    2.2370   -4.5440 hc        1 087      0.082450
     41 H18         8.4020    3.0460   -7.0480 ha        1 087      0.185000
     42 H20        11.1000    1.0410   -9.8370 ha        1 087      0.158000
     43 HN26       12.0680    3.2070   -9.8620 hn        1 087      0.477800
     44 HN2A       11.3680    4.6810  -10.2320 hn        1 087      0.477800
     45 HN6         1.8100    0.3830   -1.8550 hn        1 087      0.300700
     46 H102        3.8250   -0.6430   -3.1740 hn        1 087      0.448800
     47 H263       10.7330    3.2640  -10.8640 hn        1 087      0.477800
@<TRIPOS>BOND
     1    1    3 1   
     2    1   28 1   
     3    1   29 1   
     4    1   30 1   
     5    2   23 1   
     6    3    5 2   
     7    3    9 1   
     8    4    7 1   
     9    5    6 1   
    10    5    7 1   
    11    7    8 2   
    12    8    9 1   
    13    8   10 1   
    14    9   45 1   
    15   10   11 2   
    16   10   12 1   
    17   12   13 1   
    18   12   31 1   
    19   12   46 1   
    20   13   14 1   
    21   13   18 1   
    22   13   32 1   
    23   14   15 1   
    24   14   33 1   
    25   14   34 1   
    26   15   16 1   
    27   15   35 1   
    28   15   36 1   
    29   16   17 1   
    30   16   19 1   
    31   17   18 1   
    32   17   37 1   
    33   17   38 1   
    34   18   39 1   
    35   18   40 1   
    36   19   20 ar  
    37   19   24 ar  
    38   20   21 ar  
    39   20   41 1   
    40   21   22 ar  
    41   21   25 1   
    42   22   23 ar  
    43   22   42 1   
    44   23   24 ar  
    45   25   26 2   
    46   25   27 1   
    47   27   43 1   
    48   27   44 1   
    49   27   47 1   
@<TRIPOS>SUBSTRUCTURE
     1 087         1 TEMP              0 ****  ****    0 ROOT
