@<TRIPOS>MOLECULE
087
   45    47     1     0     0
SMALL
bcc


@<TRIPOS>ATOM
      1 C1          6.9360   -1.1320    2.3840 c3        1 087     -0.041800
      2 CL1        -6.7220   -2.7580   -0.4260 cl        1 087     -0.149000
      3 C2          6.0590   -0.5100    1.3770 cc        1 087     -0.068600
      4 CL2         5.0130    1.9500   -1.4820 cl        1 087     -0.016400
      5 C3          6.3480    0.5560    0.4970 cd        1 087     -0.070600
      6 CL3         7.7830    1.3990    0.4000 cl        1 087     -0.036400
      7 C4          5.1760    0.7880   -0.3030 cd        1 087      0.010400
      8 C5          4.2010   -0.1390    0.1170 cc        1 087     -0.178900
      9 N6          4.7440   -0.9060    1.1510 na        1 087     -0.152100
     10 C8          2.8260   -0.3250   -0.4040 c         1 087      0.690700
     11 O9          2.5830   -0.3500   -1.6220 o         1 087     -0.564100
     12 N10         1.8370   -0.5320    0.5530 n         1 087     -0.557900
     13 C11         0.4410   -0.5900    0.1660 c3        1 087      0.086700
     14 C12        -0.3760   -1.4600    1.1330 c3        1 087     -0.097900
     15 C13        -1.8270   -1.5540    0.6630 c3        1 087      0.186800
     16 N14        -2.4440   -0.2430    0.5030 nh        1 087     -0.732300
     17 C15        -1.6810    0.6470   -0.3660 c3        1 087      0.186800
     18 C16        -0.2280    0.7920    0.0770 c3        1 087     -0.097900
     19 C17        -3.8500   -0.2180    0.2780 ca        1 087      0.634200
     20 C18        -4.5360    1.0280    0.4310 ca        1 087     -0.216300
     21 C19        -5.9210    1.0600    0.2870 ca        1 087     -0.076600
     22 C20        -6.6230   -0.1200    0.0210 ca        1 087     -0.249300
     23 C21        -5.8710   -1.3040   -0.1040 ca        1 087      0.517300
     24 N22        -4.5290   -1.3730   -0.0020 nb        1 087     -0.698000
     25 C24        -6.6190    2.3710    0.4540 c         1 087      0.667700
     26 O25        -6.2230    3.2230    1.2750 o         1 087     -0.597100
     27 N26        -7.7100    2.6260   -0.3380 n         1 087     -0.669000
     28 H1          6.5520   -0.9360    3.4180 hc        1 087      0.059700
     29 H1A         7.0000   -2.2390    2.2330 hc        1 087      0.059700
     30 H1B         7.9650   -0.7010    2.3000 hc        1 087      0.059700
     31 HN10        2.0130   -0.2080    1.4760 hn        1 087      0.301500
     32 H11         0.4020   -1.0620   -0.8630 h1        1 087      0.088700
     33 H12         0.0420   -2.4990    1.1700 hc        1 087      0.058200
     34 H12A       -0.3340   -1.0320    2.1680 hc        1 087      0.058200
     35 H13        -1.8560   -2.1420   -0.3000 h1        1 087      0.052200
     36 H13A       -2.4120   -2.1260    1.4380 h1        1 087      0.052200
     37 H15        -1.6960    0.2750   -1.4320 h1        1 087      0.052200
     38 H15A       -2.1620    1.6660   -0.3490 h1        1 087      0.052200
     39 H16        -0.1780    1.3110    1.0690 hc        1 087      0.058200
     40 H16A        0.3030    1.4270   -0.6790 hc        1 087      0.058200
     41 H18        -3.9950    1.9500    0.6930 ha        1 087      0.176000
     42 H20        -7.7170   -0.1430   -0.0660 ha        1 087      0.159000
     43 HN26       -8.0120    1.9800   -1.0190 hn        1 087      0.317500
     44 HN2A       -8.1780    3.4940   -0.2550 hn        1 087      0.317500
     45 HN6         4.3060   -1.6910    1.5610 hn        1 087      0.308700
@<TRIPOS>BOND
     1    1    3 1   
     2    1   28 1   
     3    1   29 1   
     4    1   30 1   
     5    2   23 1   
     6    3    5 2   
     7    3    9 1   
     8    4    7 1   
     9    5    6 1   
    10    5    7 1   
    11    7    8 2   
    12    8    9 1   
    13    8   10 1   
    14    9   45 1   
    15   10   11 2   
    16   10   12 1   
    17   12   13 1   
    18   12   31 1   
    19   13   14 1   
    20   13   18 1   
    21   13   32 1   
    22   14   15 1   
    23   14   33 1   
    24   14   34 1   
    25   15   16 1   
    26   15   35 1   
    27   15   36 1   
    28   16   17 1   
    29   16   19 1   
    30   17   18 1   
    31   17   37 1   
    32   17   38 1   
    33   18   39 1   
    34   18   40 1   
    35   19   20 ar  
    36   19   24 ar  
    37   20   21 ar  
    38   20   41 1   
    39   21   22 ar  
    40   21   25 1   
    41   22   23 ar  
    42   22   42 1   
    43   23   24 ar  
    44   25   26 2   
    45   25   27 1   
    46   27   43 1   
    47   27   44 1   
@<TRIPOS>SUBSTRUCTURE
     1 087         1 TEMP              0 ****  ****    0 ROOT
