@<TRIPOS>MOLECULE
088
   60    64     1     0     0
SMALL
bcc


@<TRIPOS>ATOM
      1 C1         -4.8960   -4.0520    0.9550 c3        1 088     -0.089600
      2 C2         -4.3730   -3.3240   -0.2710 c3        1 088     -0.108000
      3 C3         -4.9420   -3.9360   -1.5380 c3        1 088     -0.089600
      4 C4         -4.6900   -1.8830   -0.1980 cc        1 088      0.298000
      5 O5         -6.0630   -1.5260   -0.1340 os        1 088     -0.122100
      6 N6         -6.1940   -0.2190   -0.0710 nc        1 088     -0.337300
      7 C7         -4.9700    0.3480   -0.0860 cd        1 088      0.357800
      8 C8         -3.9550   -0.7130   -0.1710 cd        1 088     -0.294900
      9 C9         -2.5040   -0.4650   -0.2250 c3        1 088      0.205700
     10 O10        -1.8110   -1.6920    0.0560 os        1 088     -0.352900
     11 C11        -0.4270   -1.5480   -0.0490 ca        1 088      0.039100
     12 C12         0.1660   -1.5310   -1.3310 ca        1 088     -0.147000
     13 C13         1.5420   -1.4930   -1.4700 ca        1 088     -0.128000
     14 C14         2.3290   -1.4670   -0.3060 ca        1 088     -0.054200
     15 N15         3.7160   -1.4300   -0.1300 na        1 088     -0.060400
     16 C16         4.7040   -1.4080   -1.1800 c3        1 088      0.098600
     17 C17         5.8460   -0.4700   -0.9350 ca        1 088     -0.161300
     18 C18         5.8010    0.8360   -1.4330 ca        1 088     -0.131000
     19 C19         6.8830    1.6920   -1.2300 ca        1 088     -0.165000
     20 C20         8.0040    1.2510   -0.5280 ca        1 088     -0.091000
     21 C21         8.0540   -0.0510   -0.0210 ca        1 088     -0.128600
     22 C22         6.9710   -0.9080   -0.2300 ca        1 088     -0.095000
     23 C23         9.2710   -0.5360    0.7560 c         1 088      0.908200
     24 O24        10.2550    0.2480    0.8590 o         1 088     -0.826300
     25 O25         9.2230   -1.6950    1.2560 o         1 088     -0.826300
     26 C26         3.9820   -1.4130    1.2430 cc        1 088     -0.064100
     27 C27         2.7910   -1.4500    1.9660 cd        1 088     -0.222200
     28 C28         1.7130   -1.4840    1.0090 ca        1 088     -0.083800
     29 C29         0.3240   -1.5200    1.1230 ca        1 088     -0.091000
     30 C30        -4.6990    1.7790   -0.0310 ca        1 088     -0.112500
     31 C31        -4.7050    2.5550   -1.2020 ca        1 088      0.046400
     32 CL32       -5.0550    1.8440   -2.7040 cl        1 088     -0.069400
     33 C33        -4.4200    3.9240   -1.1550 ca        1 088     -0.130500
     34 C34        -4.1330    4.5280    0.0670 ca        1 088     -0.105000
     35 C35        -4.1330    3.7790    1.2420 ca        1 088     -0.130500
     36 C36        -4.4180    2.4100    1.1930 ca        1 088      0.046400
     37 CL37       -4.4200    1.5230    2.6400 cl        1 088     -0.069400
     38 H1         -4.6380   -5.1360    0.8860 hc        1 088      0.041533
     39 H1A        -4.4360   -3.6320    1.8810 hc        1 088      0.041533
     40 H1B        -6.0050   -3.9480    1.0270 hc        1 088      0.041533
     41 H2         -3.2450   -3.4120   -0.2930 hc        1 088      0.103700
     42 H3         -4.6830   -5.0200   -1.5820 hc        1 088      0.041533
     43 H3A        -6.0530   -3.8290   -1.5580 hc        1 088      0.041533
     44 H3B        -4.5180   -3.4300   -2.4390 hc        1 088      0.041533
     45 H9         -2.2090   -0.0990   -1.2480 h1        1 088      0.050700
     46 H9A        -2.2120    0.3050    0.5410 h1        1 088      0.050700
     47 H12        -0.4830   -1.5550   -2.2180 ha        1 088      0.130000
     48 H13         2.0050   -1.4830   -2.4660 ha        1 088      0.132000
     49 H16         5.1080   -2.4580   -1.2960 h1        1 088      0.051700
     50 H16A        4.1800   -1.1260   -2.1390 h1        1 088      0.051700
     51 H18         4.9150    1.1860   -1.9810 ha        1 088      0.108000
     52 H19         6.8480    2.7170   -1.6250 ha        1 088      0.110000
     53 H20         8.8710    1.9100   -0.3570 ha        1 088      0.155000
     54 H22         7.0320   -1.9330    0.1730 ha        1 088      0.154000
     55 H26         5.0190   -1.3670    1.5950 h4        1 088      0.196000
     56 H27         2.6880   -1.4510    3.0460 ha        1 088      0.153000
     57 H29        -0.1650   -1.5360    2.1060 ha        1 088      0.141000
     58 H33        -4.4220    4.5200   -2.0800 ha        1 088      0.152000
     59 H34        -3.9050    5.6040    0.1050 ha        1 088      0.143000
     60 H35        -3.9070    4.2600    2.2050 ha        1 088      0.152000
@<TRIPOS>BOND
     1    1    2 1   
     2    1   38 1   
     3    1   39 1   
     4    1   40 1   
     5    2    3 1   
     6    2    4 1   
     7    2   41 1   
     8    3   42 1   
     9    3   43 1   
    10    3   44 1   
    11    4    5 1   
    12    4    8 2   
    13    5    6 1   
    14    6    7 2   
    15    7    8 1   
    16    7   30 1   
    17    8    9 1   
    18    9   10 1   
    19    9   45 1   
    20    9   46 1   
    21   10   11 1   
    22   11   12 ar  
    23   11   29 ar  
    24   12   13 ar  
    25   12   47 1   
    26   13   14 ar  
    27   13   48 1   
    28   14   15 1   
    29   14   28 ar  
    30   15   16 1   
    31   15   26 1   
    32   16   17 1   
    33   16   49 1   
    34   16   50 1   
    35   17   18 ar  
    36   17   22 ar  
    37   18   19 ar  
    38   18   51 1   
    39   19   20 ar  
    40   19   52 1   
    41   20   21 ar  
    42   20   53 1   
    43   21   22 ar  
    44   21   23 1   
    45   22   54 1   
    46   23   24 1   
    47   23   25 1   
    48   26   27 2   
    49   26   55 1   
    50   27   28 1   
    51   27   56 1   
    52   28   29 ar  
    53   29   57 1   
    54   30   31 ar  
    55   30   36 ar  
    56   31   32 1   
    57   31   33 ar  
    58   33   34 ar  
    59   33   58 1   
    60   34   35 ar  
    61   34   59 1   
    62   35   36 ar  
    63   35   60 1   
    64   36   37 1   
@<TRIPOS>SUBSTRUCTURE
     1 088         1 TEMP              0 ****  ****    0 ROOT
