@<TRIPOS>MOLECULE
088
   60    64     1     0     0
SMALL
bcc


@<TRIPOS>ATOM
      1 C1         -0.3590    0.0640   -0.1790 c3        1 088     -0.089600
      2 C2          1.1530    0.1920   -0.2230 c3        1 088     -0.108000
      3 C3          1.6970    0.5800    1.1400 c3        1 088     -0.089600
      4 C4          1.7710   -1.0650   -0.6930 cc        1 088      0.298000
      5 O5          1.5380   -2.2300    0.0850 os        1 088     -0.122100
      6 N6          2.1430   -3.2670   -0.4510 nc        1 088     -0.337300
      7 C7          2.7850   -2.8730   -1.5710 cd        1 088      0.357800
      8 C8          2.5660   -1.4320   -1.7640 cd        1 088     -0.294900
      9 C9          3.1310   -0.6530   -2.8770 c3        1 088      0.205700
     10 O10         2.4440    0.6060   -2.9610 os        1 088     -0.352900
     11 C11         2.9770    1.4300   -3.9540 ca        1 088      0.039100
     12 C12         4.1780    2.1260   -3.6950 ca        1 088     -0.147000
     13 C13         4.6810    3.0300   -4.6160 ca        1 088     -0.127000
     14 C14         3.9690    3.2290   -5.8100 ca        1 088     -0.054200
     15 N15         4.2200    4.0600   -6.9070 na        1 088     -0.060400
     16 C16         5.3430    4.9520   -7.0550 c3        1 088      0.098600
     17 C17         5.9480    4.9620   -8.4250 ca        1 088     -0.161300
     18 C18         7.0260    4.1220   -8.7240 ca        1 088     -0.131000
     19 C19         7.6060    4.1620   -9.9910 ca        1 088     -0.165000
     20 C20         7.1090    5.0320  -10.9620 ca        1 088     -0.091000
     21 C21         6.0270    5.8690  -10.6750 ca        1 088     -0.128600
     22 C22         5.4510    5.8300   -9.4020 ca        1 088     -0.095000
     23 C23         5.4720    6.8130  -11.7340 c         1 088      0.908200
     24 O24         6.0680    6.8650  -12.8460 o         1 088     -0.826300
     25 O25         4.4440    7.4850  -11.4380 o         1 088     -0.826300
     26 C26         3.1950    3.8750   -7.8400 cc        1 088     -0.064100
     27 C27         2.2720    2.9450   -7.3640 cd        1 088     -0.222200
     28 C28         2.7340    2.5100   -6.0700 ca        1 088     -0.083800
     29 C29         2.2500    1.6030   -5.1290 ca        1 088     -0.091000
     30 C30         3.5700   -3.7360   -2.4450 ca        1 088     -0.112500
     31 C31         4.9210   -4.0000   -2.1650 ca        1 088      0.046400
     32 CL32        5.6600   -3.3400   -0.7860 cl        1 088     -0.069400
     33 C33         5.6830   -4.8080   -3.0160 ca        1 088     -0.130500
     34 C34         5.0960   -5.3620   -4.1510 ca        1 088     -0.105000
     35 C35         3.7550   -5.1210   -4.4410 ca        1 088     -0.130500
     36 C36         2.9940   -4.3140   -3.5890 ca        1 088      0.046400
     37 CL37        1.3600   -4.0450   -3.9610 cl        1 088     -0.069400
     38 H1         -0.7580   -0.1720   -1.1940 hc        1 088      0.041533
     39 H1A        -0.6610   -0.7500    0.5230 hc        1 088      0.041533
     40 H1B        -0.8070    1.0250    0.1680 hc        1 088      0.041533
     41 H2          1.4290    0.9940   -0.9710 hc        1 088      0.103700
     42 H3          1.2280    1.5370    1.4730 hc        1 088      0.041533
     43 H3A         1.4690   -0.2140    1.8910 hc        1 088      0.041533
     44 H3B         2.8030    0.7210    1.0930 hc        1 088      0.041533
     45 H9          4.2270   -0.4650   -2.7050 h1        1 088      0.050700
     46 H9A         2.9990   -1.2070   -3.8470 h1        1 088      0.050700
     47 H12         4.7050    1.9460   -2.7480 ha        1 088      0.130000
     48 H13         5.6130    3.5750   -4.4150 ha        1 088      0.132000
     49 H16         6.1240    4.6510   -6.2980 h1        1 088      0.051700
     50 H16A        4.9920    5.9960   -6.8000 h1        1 088      0.051700
     51 H18         7.4140    3.4330   -7.9610 ha        1 088      0.108000
     52 H19         8.4550    3.5050  -10.2230 ha        1 088      0.110000
     53 H20         7.5520    5.0800  -11.9700 ha        1 088      0.155000
     54 H22         4.6020    6.5030   -9.1940 ha        1 088      0.154000
     55 H26         3.2140    4.4290   -8.7860 h4        1 088      0.196000
     56 H27         1.3730    2.6070   -7.8690 ha        1 088      0.153000
     57 H29         1.3180    1.0490   -5.3010 ha        1 088      0.141000
     58 H33         6.7420   -5.0030   -2.7890 ha        1 088      0.152000
     59 H34         5.6960   -5.9940   -4.8240 ha        1 088      0.143000
     60 H35         3.2950   -5.5630   -5.3380 ha        1 088      0.152000
@<TRIPOS>BOND
     1    1    2 1   
     2    1   38 1   
     3    1   39 1   
     4    1   40 1   
     5    2    3 1   
     6    2    4 1   
     7    2   41 1   
     8    3   42 1   
     9    3   43 1   
    10    3   44 1   
    11    4    5 1   
    12    4    8 2   
    13    5    6 1   
    14    6    7 2   
    15    7    8 1   
    16    7   30 1   
    17    8    9 1   
    18    9   10 1   
    19    9   45 1   
    20    9   46 1   
    21   10   11 1   
    22   11   12 ar  
    23   11   29 ar  
    24   12   13 ar  
    25   12   47 1   
    26   13   14 ar  
    27   13   48 1   
    28   14   15 1   
    29   14   28 ar  
    30   15   16 1   
    31   15   26 1   
    32   16   17 1   
    33   16   49 1   
    34   16   50 1   
    35   17   18 ar  
    36   17   22 ar  
    37   18   19 ar  
    38   18   51 1   
    39   19   20 ar  
    40   19   52 1   
    41   20   21 ar  
    42   20   53 1   
    43   21   22 ar  
    44   21   23 1   
    45   22   54 1   
    46   23   24 1   
    47   23   25 1   
    48   26   27 2   
    49   26   55 1   
    50   27   28 1   
    51   27   56 1   
    52   28   29 ar  
    53   29   57 1   
    54   30   31 ar  
    55   30   36 ar  
    56   31   32 1   
    57   31   33 ar  
    58   33   34 ar  
    59   33   58 1   
    60   34   35 ar  
    61   34   59 1   
    62   35   36 ar  
    63   35   60 1   
    64   36   37 1   
@<TRIPOS>SUBSTRUCTURE
     1 088         1 TEMP              0 ****  ****    0 ROOT
