@<TRIPOS>MOLECULE
088
   60    52     1     0     0
SMALL
bcc


@<TRIPOS>ATOM
      1 C1         -3.3370   -4.6580    0.2660 c3        1 088     -0.207500
      2 C2         -3.1920   -3.4300    1.2210 c3        1 088     -0.053000
      3 C3         -4.5960   -3.0650    1.8460 c3        1 088     -0.207500
      4 C4         -2.1960   -3.7800    2.3650 c2        1 088      0.010000
      5 O5         -2.3310   -4.8050    3.2630 os        1 088     -0.065000
      6 N6         -1.2520   -4.7440    4.1560 n2        1 088     -0.002000
      7 C7         -0.4730   -3.6940    3.8030 c2        1 088     -0.079000
      8 C8         -1.0500   -3.0830    2.6850 c1        1 088     -0.157000
      9 C9         -0.5880   -1.7510    2.0370 c2        1 088      0.048000
     10 O10         0.1460   -2.0350    0.8620 os        1 088     -0.236000
     11 C11         0.5250   -0.8600    0.1070 c2        1 088     -0.005000
     12 C12         1.6820   -0.1090    0.2860 c2        1 088     -0.145000
     13 C13         1.9250    0.9890   -0.5190 c1        1 088     -0.128000
     14 C14         1.0100    1.3440   -1.5110 c1        1 088     -0.010000
     15 N15         0.9520    2.4430   -2.3590 n1        1 088     -0.152000
     16 C16         2.0110    3.3680   -2.5760 c2        1 088      0.032000
     17 C17         1.6580    4.2880   -3.8110 c2        1 088     -0.154000
     18 C18         2.3410    4.1380   -5.0000 c2        1 088     -0.131000
     19 C19         2.0830    5.0070   -6.0720 c1        1 088     -0.165000
     20 C20         1.1170    6.0420   -5.9310 c1        1 088     -0.091000
     21 C21         0.4310    6.1900   -4.7310 c1        1 088     -0.109000
     22 C22         0.6900    5.3240   -3.6680 c1        1 088     -0.095000
     23 C23        -0.6140    7.2660   -4.5860 c2        1 088      0.357000
     24 O24        -0.2890    8.3880   -4.1490 o         1 088     -0.560500
     25 O25        -1.7450    7.0780   -5.0020 o         1 088     -0.560500
     26 C26        -0.2160    2.3820   -3.0530 c1        1 088     -0.036000
     27 C27        -0.8990    1.2450   -2.6460 c1        1 088     -0.235000
     28 C28        -0.1290    0.6080   -1.6900 c1        1 088     -0.071000
     29 C29        -0.3770   -0.5100   -0.8710 c1        1 088     -0.094000
     30 C30         0.7220   -3.2930    4.4460 c1        1 088     -0.004000
     31 C31         1.9180   -3.8690    4.0960 c1        1 088     -0.033000
     32 CL32        1.9760   -5.0540    2.8290 cl        1 088      0.010000
     33 C33         3.0970   -3.5230    4.7920 c1        1 088     -0.131000
     34 C34         3.0440   -2.5920    5.8400 c1        1 088     -0.118500
     35 C35         1.8400   -2.0140    6.1910 c1        1 088     -0.118500
     36 C36         0.6720   -2.3580    5.4990 c1        1 088     -0.031000
     37 CL37       -0.8570   -1.6520    5.9590 cl        1 088      0.009000
     38 H1         -4.0210   -4.4500   -0.4570 hc        1 088      0.081167
     39 H1A        -3.6400   -5.4620    0.7960 hc        1 088      0.081167
     40 H1B        -2.4200   -4.8610   -0.1750 hc        1 088      0.081167
     41 H2         -2.8540   -2.6710    0.7210 hc        1 088      0.143000
     42 H3         -4.9740   -3.8460    2.2630 hc        1 088      0.081167
     43 H3A        -5.1960   -2.7470    1.1400 hc        1 088      0.081167
     44 H3B        -4.4830   -2.3700    2.5070 hc        1 088      0.081167
     45 H9         -0.0350   -1.2650    2.6570 h4        1 088      0.090500
     46 H9A        -1.3700   -1.2100    1.8090 h4        1 088      0.090500
     47 H12         2.5580   -0.4160    0.6900 ha        1 088      0.132000
     48 H13         2.8030    1.3460   -0.2660 ha        1 088      0.132000
     49 H16         2.1310    3.9400   -1.7530 ha        1 088      0.090000
     50 H16A        2.8480    2.8720   -2.7610 ha        1 088      0.090000
     51 H18         3.0560    3.4660   -5.0740 ha        1 088      0.109000
     52 H19         2.5660    4.9010   -6.9100 ha        1 088      0.110000
     53 H20         0.8520    6.5870   -6.7240 ha        1 088      0.155000
     54 H22         0.2970    5.4990   -2.7960 ha        1 088      0.155000
     55 H26        -0.5090    3.0150   -3.7500 DU        1 088      0.174500
     56 H27        -1.7310    0.9210   -3.0120 DU        1 088      0.174500
     57 H29        -1.2650   -0.8790   -0.9920 ha        1 088      0.139000
     58 H33         3.9740   -3.9440    4.5360 ha        1 088      0.152000
     59 H34         3.8930   -2.3430    6.3420 ha        1 088      0.146500
     60 H35         1.8200   -1.3030    6.8360 ha        1 088      0.146500
@<TRIPOS>BOND
     1    1    2 1   
     2    1   38 1   
     3    1   39 1   
     4    1   40 1   
     5    2    3 1   
     6    2    4 1   
     7    2   41 1   
     8    3   42 1   
     9    3   43 1   
    10    3   44 1   
    11    4    5 1   
    12    4    8 1   
    13    5    6 1   
    14    6    7 1   
    15    7    8 1   
    16    7   30 1   
    17    9   10 1   
    18    9   45 1   
    19    9   46 1   
    20   10   11 1   
    21   11   12 1   
    22   11   29 1   
    23   12   13 1   
    24   12   47 1   
    25   13   48 1   
    26   14   28 1   
    27   15   26 1   
    28   16   17 1   
    29   16   49 1   
    30   16   50 1   
    31   17   18 1   
    32   17   22 1   
    33   18   19 1   
    34   18   51 1   
    35   19   52 1   
    36   20   21 1   
    37   20   53 1   
    38   21   23 1   
    39   22   54 1   
    40   23   24 1   
    41   23   25 1   
    42   26   27 1   
    43   27   28 1   
    44   29   57 1   
    45   30   36 1   
    46   31   32 1   
    47   31   33 1   
    48   33   58 1   
    49   34   35 1   
    50   34   59 1   
    51   35   60 1   
    52   36   37 1   
@<TRIPOS>SUBSTRUCTURE
     1 088         1 TEMP              0 ****  ****    0 ROOT
