@<TRIPOS>MOLECULE
088
   60    64     1     0     0
SMALL
bcc


@<TRIPOS>ATOM
      1 C1         -0.3560    0.0490   -0.1800 c3        1 088     -0.089600
      2 C2          1.1550    0.1780   -0.2240 c3        1 088     -0.108000
      3 C3          1.6990    0.5630    1.1400 c3        1 088     -0.089600
      4 C4          1.7740   -1.0770   -0.6980 cc        1 088      0.298000
      5 O5          1.5420   -2.2450    0.0770 os        1 088     -0.122100
      6 N6          2.1480   -3.2790   -0.4620 nc        1 088     -0.337300
      7 C7          2.7900   -2.8810   -1.5810 cd        1 088      0.357800
      8 C8          2.5700   -1.4400   -1.7690 cd        1 088     -0.294900
      9 C9          3.1350   -0.6560   -2.8800 c3        1 088      0.205700
     10 O10         2.4420    0.6000   -2.9630 os        1 088     -0.352900
     11 C11         2.9740    1.4270   -3.9540 ca        1 088      0.039100
     12 C12         4.1700    2.1300   -3.6910 ca        1 088     -0.147000
     13 C13         4.6710    3.0370   -4.6090 ca        1 088     -0.128000
     14 C14         3.9620    3.2330   -5.8060 ca        1 088     -0.053200
     15 N15         4.2120    4.0650   -6.9020 na        1 088     -0.060400
     16 C16         5.3300    4.9630   -7.0460 c3        1 088      0.098600
     17 C17         5.9410    4.9760   -8.4140 ca        1 088     -0.161300
     18 C18         7.0260    4.1440   -8.7070 ca        1 088     -0.131000
     19 C19         7.6100    4.1860   -9.9720 ca        1 088     -0.165000
     20 C20         7.1120    5.0520  -10.9460 ca        1 088     -0.091000
     21 C21         6.0240    5.8820  -10.6630 ca        1 088     -0.128600
     22 C22         5.4430    5.8410   -9.3930 ca        1 088     -0.095000
     23 C23         5.4670    6.8220  -11.7260 c         1 088      0.908200
     24 O24         6.0670    6.8770  -12.8350 o         1 088     -0.826300
     25 O25         4.4340    7.4880  -11.4350 o         1 088     -0.826300
     26 C26         3.1920    3.8740   -7.8390 cc        1 088     -0.064100
     27 C27         2.2720    2.9380   -7.3670 cd        1 088     -0.222200
     28 C28         2.7330    2.5060   -6.0710 ca        1 088     -0.083800
     29 C29         2.2510    1.5960   -5.1320 ca        1 088     -0.091000
     30 C30         3.5750   -3.7410   -2.4580 ca        1 088     -0.112500
     31 C31         4.9270   -4.0040   -2.1790 ca        1 088      0.046400
     32 Cl32        5.6660   -3.3450   -0.7990 cl        1 088     -0.069400
     33 C33         5.6890   -4.8080   -3.0330 ca        1 088     -0.130500
     34 C34         5.1030   -5.3610   -4.1690 ca        1 088     -0.105000
     35 C35         3.7610   -5.1210   -4.4570 ca        1 088     -0.130500
     36 C36         2.9990   -4.3170   -3.6020 ca        1 088      0.046400
     37 Cl37        1.3650   -4.0500   -3.9730 cl        1 088     -0.069400
     38 H1         -0.7550   -0.1840   -1.1960 hc        1 088      0.041533
     39 H1A        -0.6580   -0.7670    0.5190 hc        1 088      0.041533
     40 H1B        -0.8050    1.0090    0.1700 hc        1 088      0.041533
     41 H2          1.4310    0.9830   -0.9700 hc        1 088      0.103700
     42 H3          1.2290    1.5180    1.4760 hc        1 088      0.041533
     43 H3A         1.4720   -0.2330    1.8890 hc        1 088      0.041533
     44 H3B         2.8050    0.7050    1.0940 hc        1 088      0.041533
     45 H9          4.2300   -0.4630   -2.7040 h1        1 088      0.050700
     46 H9A         3.0090   -1.2100   -3.8510 h1        1 088      0.050700
     47 H12         4.6950    1.9520   -2.7420 ha        1 088      0.130000
     48 H13         5.5990    3.5870   -4.4050 ha        1 088      0.132000
     49 H16         6.1100    4.6680   -6.2860 h1        1 088      0.051700
     50 H16A        4.9720    6.0060   -6.7940 h1        1 088      0.051700
     51 H18         7.4150    3.4570   -7.9420 ha        1 088      0.108000
     52 H19         8.4640    3.5340  -10.1990 ha        1 088      0.110000
     53 H20         7.5590    5.1020  -11.9520 ha        1 088      0.155000
     54 H22         4.5890    6.5080   -9.1890 ha        1 088      0.154000
     55 H26         3.2110    4.4280   -8.7850 h4        1 088      0.196000
     56 H27         1.3780    2.5950   -7.8750 ha        1 088      0.153000
     57 H29         1.3220    1.0360   -5.3070 ha        1 088      0.141000
     58 H33         6.7490   -5.0020   -2.8070 ha        1 088      0.152000
     59 H34         5.7030   -5.9900   -4.8430 ha        1 088      0.143000
     60 H35         3.3010   -5.5610   -5.3550 ha        1 088      0.152000
@<TRIPOS>BOND
     1    1    2 1   
     2    1   38 1   
     3    1   39 1   
     4    1   40 1   
     5    2    3 1   
     6    2    4 1   
     7    2   41 1   
     8    3   42 1   
     9    3   43 1   
    10    3   44 1   
    11    4    5 1   
    12    4    8 2   
    13    5    6 1   
    14    6    7 2   
    15    7    8 1   
    16    7   30 1   
    17    8    9 1   
    18    9   10 1   
    19    9   45 1   
    20    9   46 1   
    21   10   11 1   
    22   11   12 ar  
    23   11   29 ar  
    24   12   13 ar  
    25   12   47 1   
    26   13   14 ar  
    27   13   48 1   
    28   14   15 1   
    29   14   28 ar  
    30   15   16 1   
    31   15   26 1   
    32   16   17 1   
    33   16   49 1   
    34   16   50 1   
    35   17   18 ar  
    36   17   22 ar  
    37   18   19 ar  
    38   18   51 1   
    39   19   20 ar  
    40   19   52 1   
    41   20   21 ar  
    42   20   53 1   
    43   21   22 ar  
    44   21   23 1   
    45   22   54 1   
    46   23   24 1   
    47   23   25 1   
    48   26   27 2   
    49   26   55 1   
    50   27   28 1   
    51   27   56 1   
    52   28   29 ar  
    53   29   57 1   
    54   30   31 ar  
    55   30   36 ar  
    56   31   32 1   
    57   31   33 ar  
    58   33   34 ar  
    59   33   58 1   
    60   34   35 ar  
    61   34   59 1   
    62   35   36 ar  
    63   35   60 1   
    64   36   37 1   
@<TRIPOS>SUBSTRUCTURE
     1 088         1 TEMP              0 ****  ****    0 ROOT
