@<TRIPOS>MOLECULE
088
   60    64     1     0     0
SMALL
bcc


@<TRIPOS>ATOM
      1 C1         -0.3660    0.0420   -0.1890 c3        1 088     -0.089600
      2 C2          1.1450    0.1790   -0.2320 c3        1 088     -0.108000
      3 C3          1.6850    0.5740    1.1310 c3        1 088     -0.089600
      4 C4          1.7720   -1.0740   -0.6990 cc        1 088      0.298000
      5 O5          1.5450   -2.2400    0.0800 os        1 088     -0.122100
      6 N6          2.1570   -3.2740   -0.4530 nc        1 088     -0.337300
      7 C7          2.7990   -2.8770   -1.5720 cd        1 088      0.357800
      8 C8          2.5710   -1.4380   -1.7670 cd        1 088     -0.294900
      9 C9          3.1350   -0.6570   -2.8800 c3        1 088      0.205700
     10 O10         2.4380    0.5970   -2.9690 os        1 088     -0.352900
     11 C11         2.9700    1.4240   -3.9590 ca        1 088      0.039100
     12 C12         4.1650    2.1290   -3.6950 ca        1 088     -0.147000
     13 C13         4.6660    3.0350   -4.6140 ca        1 088     -0.127000
     14 C14         3.9580    3.2290   -5.8120 ca        1 088     -0.054200
     15 N15         4.2080    4.0610   -6.9070 na        1 088     -0.060400
     16 C16         5.3260    4.9610   -7.0510 c3        1 088      0.098600
     17 C17         5.9370    4.9750   -8.4190 ca        1 088     -0.161300
     18 C18         7.0220    4.1430   -8.7120 ca        1 088     -0.131000
     19 C19         7.6070    4.1870   -9.9770 ca        1 088     -0.165000
     20 C20         7.1080    5.0530  -10.9500 ca        1 088     -0.091000
     21 C21         6.0190    5.8820  -10.6680 ca        1 088     -0.128600
     22 C22         5.4380    5.8400   -9.3980 ca        1 088     -0.095000
     23 C23         5.4620    6.8220  -11.7300 c         1 088      0.908200
     24 O24         6.0630    6.8790  -12.8390 o         1 088     -0.826300
     25 O25         4.4290    7.4870  -11.4390 o         1 088     -0.826300
     26 C26         3.1890    3.8690   -7.8450 cc        1 088     -0.064100
     27 C27         2.2700    2.9320   -7.3740 cd        1 088     -0.222200
     28 C28         2.7300    2.5010   -6.0770 ca        1 088     -0.083800
     29 C29         2.2480    1.5910   -5.1380 ca        1 088     -0.091000
     30 C30         3.5910   -3.7370   -2.4430 ca        1 088     -0.112500
     31 C31         4.9430   -3.9920   -2.1600 ca        1 088      0.046400
     32 CL32        5.6760   -3.3230   -0.7810 cl        1 088     -0.069400
     33 C33         5.7120   -4.7960   -3.0080 ca        1 088     -0.130500
     34 C34         5.1300   -5.3570   -4.1430 ca        1 088     -0.105000
     35 C35         3.7880   -5.1250   -4.4350 ca        1 088     -0.130500
     36 C36         3.0210   -4.3210   -3.5860 ca        1 088      0.046400
     37 CL37        1.3850   -4.0630   -3.9610 cl        1 088     -0.069400
     38 H1         -0.8210    1.0010    0.1550 hc        1 088      0.041533
     39 H1A        -0.6640   -0.7730    0.5140 hc        1 088      0.041533
     40 H1B        -0.7620   -0.1980   -1.2050 hc        1 088      0.041533
     41 H2          1.4170    0.9820   -0.9810 hc        1 088      0.103700
     42 H3          2.7900    0.7220    1.0850 hc        1 088      0.041533
     43 H3A         1.4610   -0.2200    1.8840 hc        1 088      0.041533
     44 H3B         1.2090    1.5280    1.4620 hc        1 088      0.041533
     45 H9          4.2290   -0.4600   -2.7040 h1        1 088      0.050700
     46 H9A         3.0100   -1.2140   -3.8490 h1        1 088      0.050700
     47 H12         4.6890    1.9520   -2.7460 ha        1 088      0.130000
     48 H13         5.5930    3.5870   -4.4090 ha        1 088      0.132000
     49 H16         6.1050    4.6660   -6.2910 h1        1 088      0.051700
     50 H16A        4.9660    6.0030   -6.7980 h1        1 088      0.051700
     51 H18         7.4120    3.4570   -7.9470 ha        1 088      0.108000
     52 H19         8.4610    3.5350  -10.2050 ha        1 088      0.110000
     53 H20         7.5550    5.1040  -11.9570 ha        1 088      0.155000
     54 H22         4.5840    6.5060   -9.1940 ha        1 088      0.154000
     55 H26         3.2090    4.4220   -8.7910 h4        1 088      0.196000
     56 H27         1.3770    2.5870   -7.8830 ha        1 088      0.153000
     57 H29         1.3200    1.0310   -5.3140 ha        1 088      0.141000
     58 H33         6.7720   -4.9830   -2.7800 ha        1 088      0.152000
     59 H34         5.7350   -5.9860   -4.8130 ha        1 088      0.143000
     60 H35         3.3320   -5.5720   -5.3320 ha        1 088      0.152000
@<TRIPOS>BOND
     1    1    2 1   
     2    1   38 1   
     3    1   39 1   
     4    1   40 1   
     5    2    3 1   
     6    2    4 1   
     7    2   41 1   
     8    3   42 1   
     9    3   43 1   
    10    3   44 1   
    11    4    5 1   
    12    4    8 2   
    13    5    6 1   
    14    6    7 2   
    15    7    8 1   
    16    7   30 1   
    17    8    9 1   
    18    9   10 1   
    19    9   45 1   
    20    9   46 1   
    21   10   11 1   
    22   11   12 ar  
    23   11   29 ar  
    24   12   13 ar  
    25   12   47 1   
    26   13   14 ar  
    27   13   48 1   
    28   14   15 1   
    29   14   28 ar  
    30   15   16 1   
    31   15   26 1   
    32   16   17 1   
    33   16   49 1   
    34   16   50 1   
    35   17   18 ar  
    36   17   22 ar  
    37   18   19 ar  
    38   18   51 1   
    39   19   20 ar  
    40   19   52 1   
    41   20   21 ar  
    42   20   53 1   
    43   21   22 ar  
    44   21   23 1   
    45   22   54 1   
    46   23   24 1   
    47   23   25 1   
    48   26   27 2   
    49   26   55 1   
    50   27   28 1   
    51   27   56 1   
    52   28   29 ar  
    53   29   57 1   
    54   30   31 ar  
    55   30   36 ar  
    56   31   32 1   
    57   31   33 ar  
    58   33   34 ar  
    59   33   58 1   
    60   34   35 ar  
    61   34   59 1   
    62   35   36 ar  
    63   35   60 1   
    64   36   37 1   
@<TRIPOS>SUBSTRUCTURE
     1 088         1 TEMP              0 ****  ****    0 ROOT
