@<TRIPOS>MOLECULE
08B
   44    46     1     0     0
SMALL
bcc


@<TRIPOS>ATOM
      1 C1         -0.0880    0.0750   -0.0640 c3        1 08B     -0.074800
      2 C2          1.3850    0.1100   -0.0280 cc        1 08B      0.057400
      3 C3          2.2140    0.3100    1.1200 cd        1 08B     -0.148900
      4 C4          3.5610    0.2680    0.6790 cd        1 08B      0.025000
      5 C5          3.5420    0.0430   -0.7280 cc        1 08B     -0.302900
      6 N6          2.1960   -0.0520   -1.1340 na        1 08B     -0.167100
      7 C8          4.7280   -0.0600   -1.5230 c         1 08B      0.594700
      8 O9          5.8890    0.0250   -1.1370 o         1 08B     -0.443100
      9 N10         4.5270   -0.3170   -3.0100 ny        1 08B     -0.680800
     10 C11         5.7930   -0.2260   -3.8310 c3        1 08B      0.124500
     11 C12         5.6220   -0.9750   -5.1570 c3        1 08B     -0.103900
     12 C13         6.8930   -0.8220   -6.0020 c3        1 08B      0.180800
     13 N14         7.1940    0.5860   -6.2220 nh        1 08B     -0.741300
     14 C15         7.4240    1.2980   -4.9680 c3        1 08B      0.180800
     15 C16         6.1870    1.2350   -4.0710 c3        1 08B     -0.103900
     16 C17         8.1850    0.8530   -7.2250 ca        1 08B      0.640200
     17 C18         7.9620    1.9380   -8.1300 ca        1 08B     -0.266500
     18 C19         8.8760    2.1690   -9.1740 ca        1 08B     -0.032000
     19 C20         9.9910    1.3460   -9.2800 ca        1 08B     -0.239300
     20 C21        10.1510    0.3070   -8.3430 ca        1 08B      0.450200
     21 N22         9.2870    0.0560   -7.3490 nb        1 08B     -0.694000
     22 N23         6.7670    2.8170   -8.0170 no        1 08B      0.327200
     23 O24         6.1220    3.0260   -9.0060 o         1 08B     -0.197500
     24 O25         6.4910    3.3080   -6.9550 o         1 08B     -0.197500
     25 Br          1.6360    0.5710    2.8360 br        1 08B      0.023900
     26 H1         -0.4570   -0.7410    0.6110 hc        1 08B      0.087033
     27 H2         -0.4910    1.0500    0.3170 hc        1 08B      0.087033
     28 H3         -0.4920   -0.1010   -1.0910 hc        1 08B      0.087033
     29 H4          4.4630    0.3840    1.2850 ha        1 08B      0.201000
     30 H5          1.8670   -0.1940   -2.0540 hn        1 08B      0.300700
     31 H6          3.8600    0.3680   -3.3770 hn        1 08B      0.447800
     32 H7          6.6080   -0.7290   -3.2250 hx        1 08B      0.125700
     33 H8          5.4580   -2.0690   -4.9760 hc        1 08B      0.074950
     34 H9          4.7440   -0.5720   -5.7280 hc        1 08B      0.074950
     35 H10         6.7180   -1.3120   -7.0010 h1        1 08B      0.075200
     36 H11         7.7370   -1.3680   -5.4880 h1        1 08B      0.075200
     37 H12         7.6310    2.3820   -5.2050 h1        1 08B      0.075200
     38 H13         8.3090    0.8780   -4.4060 h1        1 08B      0.075200
     39 H14         6.4360    1.7300   -3.0950 hc        1 08B      0.074950
     40 H15         5.3500    1.8020   -4.5590 hc        1 08B      0.074950
     41 H16         8.7030    2.9850   -9.8980 ha        1 08B      0.181000
     42 H17        10.7320    1.4950  -10.0800 ha        1 08B      0.175000
     43 H18        11.0270   -0.3700   -8.3880 h4        1 08B      0.048100
     44 H102        4.1330   -1.2550   -3.1230 hn        1 08B      0.447800
@<TRIPOS>BOND
     1    1    2 1   
     2    1   26 1   
     3    1   27 1   
     4    1   28 1   
     5    2    3 2   
     6    2    6 1   
     7    3    4 1   
     8    3   25 1   
     9    4    5 2   
    10    4   29 1   
    11    5    6 1   
    12    5    7 1   
    13    6   30 1   
    14    7    8 2   
    15    7    9 1   
    16    9   10 1   
    17    9   31 1   
    18    9   44 1   
    19   10   11 1   
    20   10   15 1   
    21   10   32 1   
    22   11   12 1   
    23   11   33 1   
    24   11   34 1   
    25   12   13 1   
    26   12   35 1   
    27   12   36 1   
    28   13   14 1   
    29   13   16 1   
    30   14   15 1   
    31   14   37 1   
    32   14   38 1   
    33   15   39 1   
    34   15   40 1   
    35   16   17 ar  
    36   16   21 ar  
    37   17   18 ar  
    38   17   22 1   
    39   18   19 ar  
    40   18   41 1   
    41   19   20 ar  
    42   19   42 1   
    43   20   21 ar  
    44   20   43 1   
    45   22   23 1   
    46   22   24 1   
@<TRIPOS>SUBSTRUCTURE
     1 08B         1 TEMP              0 ****  ****    0 ROOT
