@<TRIPOS>MOLECULE
08B
   43    45     1     0     0
SMALL
bcc


@<TRIPOS>ATOM
      1 C1          5.4310    2.4220    1.0780 c3        1 08B     -0.043800
      2 C2          4.6890    1.2530    0.5720 cc        1 08B     -0.045600
      3 C3          5.1790    0.1970   -0.2340 cd        1 08B     -0.134900
      4 C4          4.0930   -0.7110   -0.4570 cd        1 08B     -0.075000
      5 C5          2.9710   -0.1830    0.2040 cc        1 08B     -0.199900
      6 N6          3.3410    1.0210    0.8160 na        1 08B     -0.156100
      7 C8          1.6270   -0.7930    0.2510 c         1 08B      0.695700
      8 O9          1.4810   -2.0230    0.1060 o         1 08B     -0.586100
      9 N10         0.5480    0.0470    0.5050 n         1 08B     -0.561900
     10 C11        -0.8120   -0.4500    0.4500 c3        1 08B      0.086700
     11 C12        -1.6730    0.1480    1.5750 c3        1 08B     -0.093900
     12 C13        -3.0830   -0.4360    1.5180 c3        1 08B      0.172800
     13 N14        -3.7160   -0.1910    0.2230 nh        1 08B     -0.730300
     14 C15        -2.9270   -0.7240   -0.8890 c3        1 08B      0.172800
     15 C16        -1.5040   -0.1730   -0.8950 c3        1 08B     -0.093900
     16 C17        -5.0990   -0.5650    0.1590 ca        1 08B      0.657200
     17 C18        -6.0100    0.3040   -0.5230 ca        1 08B     -0.272500
     18 C19        -7.3860    0.0170   -0.5240 ca        1 08B     -0.039000
     19 C20        -7.8300   -1.1320    0.1210 ca        1 08B     -0.260300
     20 C21        -6.8760   -1.9500    0.7570 ca        1 08B      0.444200
     21 N22        -5.5640   -1.6890    0.7860 nb        1 08B     -0.694000
     22 N23        -5.5430    1.5370   -1.2130 no        1 08B      0.329200
     23 O24        -6.0470    2.5830   -0.9050 o         1 08B     -0.198500
     24 O25        -4.7150    1.4530   -2.0770 o         1 08B     -0.198500
     25 BR          6.8860    0.0170   -0.8770 br        1 08B     -0.047100
     26 H1          6.3410    2.0760    1.6300 hc        1 08B      0.060033
     27 H2          5.7620    3.0580    0.2170 hc        1 08B      0.060033
     28 H3          4.8160    3.0510    1.7670 hc        1 08B      0.060033
     29 H4          4.1180   -1.6390   -1.0250 ha        1 08B      0.180000
     30 H5          2.7750    1.5520    1.4260 hn        1 08B      0.301700
     31 H6          0.6530    1.0160    0.3130 hn        1 08B      0.297500
     32 H7         -0.7690   -1.5730    0.5970 h1        1 08B      0.091700
     33 H8         -1.2340   -0.1020    2.5750 hc        1 08B      0.058700
     34 H9         -1.7120    1.2640    1.4820 hc        1 08B      0.058700
     35 H10        -3.0230   -1.5370    1.7570 h1        1 08B      0.055450
     36 H11        -3.7150    0.0580    2.3080 h1        1 08B      0.055450
     37 H12        -2.8800   -1.8510   -0.8480 h1        1 08B      0.055450
     38 H13        -3.4340   -0.4250   -1.8510 h1        1 08B      0.055450
     39 H14        -1.5240    0.9290   -1.1020 hc        1 08B      0.058700
     40 H15        -0.9450   -0.6740   -1.7270 hc        1 08B      0.058700
     41 H16        -8.0980    0.6960   -1.0210 ha        1 08B      0.167000
     42 H17        -8.8950   -1.3950    0.1400 ha        1 08B      0.160000
     43 H18        -7.1840   -2.8770    1.2780 h4        1 08B      0.036100
@<TRIPOS>BOND
     1    1    2 1   
     2    1   26 1   
     3    1   27 1   
     4    1   28 1   
     5    2    3 2   
     6    2    6 1   
     7    3    4 1   
     8    3   25 1   
     9    4    5 2   
    10    4   29 1   
    11    5    6 1   
    12    5    7 1   
    13    6   30 1   
    14    7    8 2   
    15    7    9 1   
    16    9   10 1   
    17    9   31 1   
    18   10   11 1   
    19   10   15 1   
    20   10   32 1   
    21   11   12 1   
    22   11   33 1   
    23   11   34 1   
    24   12   13 1   
    25   12   35 1   
    26   12   36 1   
    27   13   14 1   
    28   13   16 1   
    29   14   15 1   
    30   14   37 1   
    31   14   38 1   
    32   15   39 1   
    33   15   40 1   
    34   16   17 ar  
    35   16   21 ar  
    36   17   18 ar  
    37   17   22 1   
    38   18   19 ar  
    39   18   41 1   
    40   19   20 ar  
    41   19   42 1   
    42   20   21 ar  
    43   20   43 1   
    44   22   23 1   
    45   22   24 1   
@<TRIPOS>SUBSTRUCTURE
     1 08B         1 TEMP              0 ****  ****    0 ROOT
