@<TRIPOS>MOLECULE
08B
   44    46     1     0     0
SMALL
bcc


@<TRIPOS>ATOM
      1 C1         -0.0800    0.0300   -0.0560 c3        1 08B     -0.074800
      2 C2          1.3910    0.1070   -0.0200 cc        1 08B      0.057400
      3 C3          2.2130    0.3570    1.1230 cd        1 08B     -0.148900
      4 C4          3.5610    0.3430    0.6840 cd        1 08B      0.025000
      5 C5          3.5500    0.0850   -0.7170 cc        1 08B     -0.302900
      6 N6          2.2070   -0.0590   -1.1220 na        1 08B     -0.167100
      7 C8          4.7390   -0.0040   -1.5090 c         1 08B      0.594700
      8 O9          5.8970    0.1250   -1.1250 o         1 08B     -0.443100
      9 N10         4.5470   -0.3050   -2.9890 n4        1 08B     -0.680800
     10 C11         5.8110   -0.2040   -3.8110 c3        1 08B      0.124500
     11 C12         5.6620   -0.9940   -5.1170 c3        1 08B     -0.103900
     12 C13         6.9300   -0.8320   -5.9640 c3        1 08B      0.180800
     13 N14         7.1950    0.5780   -6.2230 nh        1 08B     -0.741300
     14 C15         7.4040    1.3290   -4.9890 c3        1 08B      0.180800
     15 C16         6.1670    1.2590   -4.0910 c3        1 08B     -0.103900
     16 C17         8.1790    0.8430   -7.2320 ca        1 08B      0.640200
     17 C18         7.9290    1.8960   -8.1670 ca        1 08B     -0.266500
     18 C19         8.8380    2.1220   -9.2160 ca        1 08B     -0.032000
     19 C20         9.9750    1.3250   -9.2990 ca        1 08B     -0.239300
     20 C21        10.1600    0.3160   -8.3330 ca        1 08B      0.450200
     21 N22         9.3010    0.0710   -7.3340 nb        1 08B     -0.694000
     22 N23         6.7120    2.7460   -8.0790 no        1 08B      0.327200
     23 O24         6.0630    2.9110   -9.0740 o         1 08B     -0.197500
     24 O25         6.4220    3.2600   -7.0320 o         1 08B     -0.197500
     25 BR          1.6260    0.6420    2.8320 br        1 08B      0.023900
     26 H1         -0.4790   -0.1780   -1.0800 hc        1 08B      0.087033
     27 H2         -0.5110    1.0010    0.3040 hc        1 08B      0.087033
     28 H3         -0.4270   -0.7820    0.6350 hc        1 08B      0.087033
     29 H4          4.4580    0.4980    1.2870 ha        1 08B      0.201000
     30 H5          1.8830   -0.2290   -2.0390 hn        1 08B      0.300700
     31 H6          4.1770   -1.2560   -3.0770 hn        1 08B      0.447800
     32 H7          6.6380   -0.6690   -3.1910 hx        1 08B      0.124700
     33 H8          4.7740   -0.6300   -5.6990 hc        1 08B      0.074950
     34 H9          5.5270   -2.0860   -4.9050 hc        1 08B      0.074950
     35 H10         6.7680   -1.3530   -6.9490 h1        1 08B      0.075200
     36 H11         7.7870   -1.3410   -5.4340 h1        1 08B      0.075200
     37 H12         8.2980    0.9490   -4.4150 h1        1 08B      0.075200
     38 H13         7.5830    2.4120   -5.2550 h1        1 08B      0.075200
     39 H14         6.4030    1.7880   -3.1300 hc        1 08B      0.074950
     40 H15         5.3170    1.7910   -4.5950 hc        1 08B      0.074950
     41 H16         8.6460    2.9130   -9.9620 ha        1 08B      0.181000
     42 H17        10.7120    1.4710  -10.1020 ha        1 08B      0.175000
     43 H18        11.0530   -0.3390   -8.3590 h4        1 08B      0.048100
     44 H102        3.8630    0.3520   -3.3750 hn        1 08B      0.447800
@<TRIPOS>BOND
     1    1    2 1   
     2    1   26 1   
     3    1   27 1   
     4    1   28 1   
     5    2    3 2   
     6    2    6 1   
     7    3    4 1   
     8    3   25 1   
     9    4    5 2   
    10    4   29 1   
    11    5    6 1   
    12    5    7 1   
    13    6   30 1   
    14    7    8 2   
    15    7    9 1   
    16    9   10 1   
    17    9   31 1   
    18    9   44 1   
    19   10   11 1   
    20   10   15 1   
    21   10   32 1   
    22   11   12 1   
    23   11   33 1   
    24   11   34 1   
    25   12   13 1   
    26   12   35 1   
    27   12   36 1   
    28   13   14 1   
    29   13   16 1   
    30   14   15 1   
    31   14   37 1   
    32   14   38 1   
    33   15   39 1   
    34   15   40 1   
    35   16   17 ar  
    36   16   21 ar  
    37   17   18 ar  
    38   17   22 1   
    39   18   19 ar  
    40   18   41 1   
    41   19   20 ar  
    42   19   42 1   
    43   20   21 ar  
    44   20   43 1   
    45   22   23 1   
    46   22   24 1   
@<TRIPOS>SUBSTRUCTURE
     1 08B         1 TEMP              0 ****  ****    0 ROOT
