@<TRIPOS>MOLECULE
08B
   43    45     1     0     0
SMALL
bcc


@<TRIPOS>ATOM
      1 C1         -0.0450   -0.3520   -0.0330 c3        1 08B     -0.043800
      2 C2          1.4130   -0.1410    0.0250 cc        1 08B     -0.045600
      3 C3          2.1890    0.2470    1.1440 cd        1 08B     -0.134900
      4 C4          3.5550    0.3080    0.7170 cd        1 08B     -0.075000
      5 C5          3.5780   -0.0310   -0.6470 cc        1 08B     -0.199900
      6 N6          2.2650   -0.2890   -1.0610 na        1 08B     -0.156100
      7 C8          4.7790   -0.1060   -1.5010 c         1 08B      0.695700
      8 O9          5.9010   -0.3230   -1.0030 o         1 08B     -0.586100
      9 N10         4.6020    0.0310   -2.8740 n         1 08B     -0.561900
     10 C11         5.7390    0.0870   -3.7700 c3        1 08B      0.086700
     11 C12         5.4730   -0.6990   -5.0640 c3        1 08B     -0.093900
     12 C13         6.7090   -0.6610   -5.9610 c3        1 08B      0.172800
     13 N14         7.0990    0.7110   -6.2830 nh        1 08B     -0.730300
     14 C15         7.3460    1.5140   -5.0840 c3        1 08B      0.172800
     15 C16         6.1430    1.5230   -4.1450 c3        1 08B     -0.093900
     16 C17         8.1480    0.8170   -7.2540 ca        1 08B      0.657200
     17 C18         8.0450    1.8280   -8.2630 ca        1 08B     -0.272500
     18 C19         9.0070    1.8990   -9.2860 ca        1 08B     -0.039000
     19 C20        10.0610    0.9930   -9.2770 ca        1 08B     -0.260300
     20 C21        10.1080    0.0360   -8.2450 ca        1 08B      0.444200
     21 N22         9.1960   -0.0630   -7.2700 nb        1 08B     -0.694000
     22 N23         6.9190    2.7990   -8.2810 no        1 08B      0.329200
     23 O24         6.2580    2.8810   -9.2810 o         1 08B     -0.198500
     24 O25         6.7250    3.4980   -7.3250 o         1 08B     -0.198500
     25 BR          1.5680    0.6060    2.8310 br        1 08B     -0.047100
     26 H1         -0.5720    0.6170    0.1630 hc        1 08B      0.060033
     27 H2         -0.3790   -0.7440   -1.0250 hc        1 08B      0.060033
     28 H3         -0.3480   -1.0830    0.7590 hc        1 08B      0.060033
     29 H4          4.4230    0.5620    1.3230 ha        1 08B      0.180000
     30 H5          2.0020   -0.6410   -1.9450 hn        1 08B      0.301700
     31 H6          3.7840    0.4920   -3.1980 hn        1 08B      0.297500
     32 H7          6.6150   -0.3960   -3.2370 h1        1 08B      0.091700
     33 H8          5.2490   -1.7710   -4.8280 hc        1 08B      0.058700
     34 H9          4.5900   -0.2700   -5.6040 hc        1 08B      0.058700
     35 H10         6.4750   -1.1880   -6.9280 h1        1 08B      0.055450
     36 H11         7.5400   -1.2260   -5.4470 h1        1 08B      0.055450
     37 H12         7.5580    2.5720   -5.4100 h1        1 08B      0.055450
     38 H13         8.2450    1.1290   -4.5190 h1        1 08B      0.055450
     39 H14         6.4290    2.0960   -3.2250 hc        1 08B      0.058700
     40 H15         5.2850    2.0540   -4.6330 hc        1 08B      0.058700
     41 H16         8.9190    2.6550  -10.0840 ha        1 08B      0.167000
     42 H17        10.8360    1.0170  -10.0540 ha        1 08B      0.160000
     43 H18        10.9320   -0.7020   -8.1950 h4        1 08B      0.036100
@<TRIPOS>BOND
     1    1    2 1   
     2    1   26 1   
     3    1   27 1   
     4    1   28 1   
     5    2    3 2   
     6    2    6 1   
     7    3    4 1   
     8    3   25 1   
     9    4    5 2   
    10    4   29 1   
    11    5    6 1   
    12    5    7 1   
    13    6   30 1   
    14    7    8 2   
    15    7    9 1   
    16    9   10 1   
    17    9   31 1   
    18   10   11 1   
    19   10   15 1   
    20   10   32 1   
    21   11   12 1   
    22   11   33 1   
    23   11   34 1   
    24   12   13 1   
    25   12   35 1   
    26   12   36 1   
    27   13   14 1   
    28   13   16 1   
    29   14   15 1   
    30   14   37 1   
    31   14   38 1   
    32   15   39 1   
    33   15   40 1   
    34   16   17 ar  
    35   16   21 ar  
    36   17   18 ar  
    37   17   22 1   
    38   18   19 ar  
    39   18   41 1   
    40   19   20 ar  
    41   19   42 1   
    42   20   21 ar  
    43   20   43 1   
    44   22   23 1   
    45   22   24 1   
@<TRIPOS>SUBSTRUCTURE
     1 08B         1 TEMP              0 ****  ****    0 ROOT
