@<TRIPOS>MOLECULE
08B
   43    36     1     0     0
SMALL
bcc


@<TRIPOS>ATOM
      1 C1         -5.0620   -1.7770    5.6910 c3        1 08B     -0.169000
      2 C2         -4.2930   -1.1980    4.5340 c2        1 08B     -0.012000
      3 C3         -4.7190   -0.1850    3.7060 c1        1 08B     -0.274000
      4 C4         -3.7600    0.0200    2.7690 c1        1 08B     -0.112000
      5 C5         -2.7370   -0.8600    3.0070 c1        1 08B     -0.149000
      6 N6         -3.0720   -1.6110    4.0990 n2        1 08B     -0.126000
      7 C8         -1.4540   -0.9870    2.1820 c1        1 08B      0.379000
      8 O9         -0.6680   -1.8960    2.4120 o         1 08B     -0.393000
      9 N10        -1.2440   -0.1100    1.0170 n3        1 08B     -0.369000
     10 C11        -0.0980   -0.3260    0.1380 c3        1 08B      0.023000
     11 C12        -0.5430   -0.2090   -1.2720 c3        1 08B     -0.173000
     12 C13         0.6290   -0.2360   -2.2570 c3        1 08B     -0.064000
     13 N14         1.6720    0.7380   -1.9150 n3        1 08B     -0.221000
     14 C15         2.1220    0.6310   -0.5040 c3        1 08B     -0.064000
     15 C16         0.9640    0.6640    0.4790 c3        1 08B     -0.173000
     16 C17         2.8150    0.5620   -2.8100 c1        1 08B      0.136000
     17 C18         3.2570    1.6190   -3.5810 c1        1 08B     -0.162000
     18 C19         4.3260    1.4520   -4.4290 c1        1 08B     -0.039000
     19 C20         4.9420    0.2570   -4.5080 c1        1 08B     -0.108000
     20 C21         4.4940   -0.8110   -3.7290 c1        1 08B     -0.108000
     21 N22         3.4350   -0.6430   -2.8900 n1        1 08B     -0.168000
     22 N23         2.6170    2.8680   -3.4920 n1        1 08B      0.585000
     23 O24         1.7660    3.0500   -2.6550 o         1 08B     -0.345000
     24 O25         3.0110    3.8950   -4.2980 os        1 08B     -0.352000
     25 BR         -6.3930    0.7520    3.8300 br        1 08B      0.091000
     26 H1         -4.4970   -2.4000    6.1760 hc        1 08B      0.100000
     27 H2         -5.3400   -1.0610    6.2860 hc        1 08B      0.100000
     28 H3         -5.8410   -2.2420    5.3580 hc        1 08B      0.100000
     29 H4         -3.7920    0.6770    2.0530 DU        1 08B      0.215500
     30 H5         -2.5480   -2.2940    4.4840 DU        1 08B      0.215500
     31 H6         -1.8520    0.5280    0.8180 hn        1 08B      0.230000
     32 H7          0.2500   -1.2320    0.2880 h1        1 08B      0.131000
     33 H8         -1.0290    0.6290   -1.3810 hc        1 08B      0.099250
     34 H9         -1.1600   -0.9720   -1.4810 hc        1 08B      0.099250
     35 H10         0.2910   -0.0370   -3.1600 h1        1 08B      0.094000
     36 H11         1.0150   -1.1190   -2.2570 h1        1 08B      0.094000
     37 H12         2.6180   -0.2240   -0.3860 h1        1 08B      0.094000
     38 H13         2.7230    1.3760   -0.3080 h1        1 08B      0.094000
     39 H14         0.5650    1.5790    0.4750 hc        1 08B      0.099250
     40 H15         1.3060    0.4680    1.3830 hc        1 08B      0.099250
     41 H16         4.6370    2.1940   -4.9710 ha        1 08B      0.167000
     42 H17         5.7110    0.1360   -5.1180 ha        1 08B      0.166000
     43 H18         4.9340   -1.6670   -3.7850 ha        1 08B      0.166000
@<TRIPOS>BOND
     1    1    2 1   
     2    1   26 1   
     3    1   27 1   
     4    1   28 1   
     5    2    3 1   
     6    2    6 1   
     7    3    4 1   
     8    4    5 1   
     9    5    6 1   
    10    7    8 1   
    11    7    9 1   
    12    9   10 1   
    13    9   31 1   
    14   10   11 1   
    15   10   15 1   
    16   10   32 1   
    17   11   12 1   
    18   11   33 1   
    19   11   34 1   
    20   12   13 1   
    21   12   35 1   
    22   12   36 1   
    23   13   14 1   
    24   13   16 1   
    25   14   15 1   
    26   14   37 1   
    27   14   38 1   
    28   15   39 1   
    29   15   40 1   
    30   16   21 1   
    31   17   18 1   
    32   18   41 1   
    33   19   20 1   
    34   19   42 1   
    35   20   43 1   
    36   22   23 1   
@<TRIPOS>SUBSTRUCTURE
     1 08B         1 TEMP              0 ****  ****    0 ROOT
