@<TRIPOS>MOLECULE
08C
   31    33     1     0     0
SMALL
bcc


@<TRIPOS>ATOM
      1 O1          0.0630   -0.9060   -0.0800 o         1 08C     -0.626500
      2 C13         1.2580   -0.5590   -0.1080 c         1 08C      0.708100
      3 N1          1.9840   -0.5310    1.0930 ns        1 08C     -0.494400
      4 C6          3.3320   -0.1460    1.1130 cc        1 08C      0.551500
      5 C3          3.9970   -0.1550    2.4430 ca        1 08C     -0.188900
      6 C4          5.2700   -0.7280    2.5770 ca        1 08C     -0.060000
      7 C5          5.9030   -0.7440    3.8120 ca        1 08C     -0.187500
      8 C           5.2570   -0.1720    4.9270 ca        1 08C      0.147100
      9 O           5.9680   -0.2420    6.1060 os        1 08C     -0.321900
     10 C1          3.9910    0.4120    4.7970 ca        1 08C     -0.187500
     11 C2          3.3660    0.4180    3.5510 ca        1 08C     -0.060000
     12 N           4.0210    0.2110    0.0410 nd        1 08C     -0.618100
     13 C7          3.3660    0.2050   -1.1970 ca        1 08C      0.183400
     14 C8          2.0000   -0.1660   -1.3190 ca        1 08C     -0.190600
     15 C12         4.0690    0.5810   -2.3700 ca        1 08C     -0.124000
     16 C11         3.4210    0.5780   -3.5950 ca        1 08C     -0.095000
     17 C10         2.0730    0.2090   -3.7010 ca        1 08C     -0.154000
     18 C9          1.3640   -0.1620   -2.5680 ca        1 08C     -0.059000
     19 CAA         5.3540    0.3440    7.2490 c3        1 08C      0.111700
     20 H1          1.5360   -0.8050    1.9390 hn        1 08C      0.338500
     21 H4          5.7740   -1.1650    1.6990 ha        1 08C      0.147500
     22 H2          2.3790    0.8940    3.4500 ha        1 08C      0.147500
     23 H5          6.8990   -1.1920    3.9360 ha        1 08C      0.150500
     24 HA          3.4860    0.8690    5.6590 ha        1 08C      0.150500
     25 HAA1        6.1060    0.1730    8.0610 h1        1 08C      0.048033
     26 HAA2        5.1870    1.4370    7.0900 h1        1 08C      0.048033
     27 HAA3        4.3920   -0.1710    7.4870 h1        1 08C      0.048033
     28 H12         5.1270    0.8740   -2.3000 ha        1 08C      0.153000
     29 H9          0.3040   -0.4570   -2.6270 ha        1 08C      0.158000
     30 H11         3.9740    0.8710   -4.5010 ha        1 08C      0.137000
     31 H10         1.5800    0.2140   -4.6840 ha        1 08C      0.139000
@<TRIPOS>BOND
     1    1    2 2   
     2    2    3 1   
     3    2   14 1   
     4    3    4 1   
     5    3   20 1   
     6    4    5 1   
     7    4   12 2   
     8    5    6 ar  
     9    5   11 ar  
    10    6    7 ar  
    11    6   21 1   
    12    7    8 ar  
    13    7   23 1   
    14    8    9 1   
    15    8   10 ar  
    16    9   19 1   
    17   10   11 ar  
    18   10   24 1   
    19   11   22 1   
    20   12   13 1   
    21   13   14 ar  
    22   13   15 ar  
    23   14   18 ar  
    24   15   16 ar  
    25   15   28 1   
    26   16   17 ar  
    27   16   30 1   
    28   17   18 ar  
    29   17   31 1   
    30   18   29 1   
    31   19   25 1   
    32   19   26 1   
    33   19   27 1   
@<TRIPOS>SUBSTRUCTURE
     1 08C         1 TEMP              0 ****  ****    0 ROOT
