@<TRIPOS>MOLECULE
08C
   31    33     1     0     0
SMALL
bcc


@<TRIPOS>ATOM
      1 O1          0.0700   -0.9260   -0.0850 o         1 08C     -0.626500
      2 C13         1.2630   -0.5720   -0.1120 c         1 08C      0.708100
      3 N1          1.9880   -0.5410    1.0910 n         1 08C     -0.494400
      4 C6          3.3330   -0.1470    1.1120 cc        1 08C      0.551500
      5 C3          3.9970   -0.1550    2.4430 ca        1 08C     -0.188900
      6 C4          5.2730   -0.7210    2.5770 ca        1 08C     -0.060000
      7 C5          5.9050   -0.7350    3.8130 ca        1 08C     -0.187500
      8 C           5.2550   -0.1690    4.9280 ca        1 08C      0.147100
      9 O           5.9640   -0.2370    6.1080 os        1 08C     -0.321900
     10 C1          3.9850    0.4080    4.7980 ca        1 08C     -0.187500
     11 C2          3.3620    0.4120    3.5510 ca        1 08C     -0.060000
     12 N           4.0210    0.2160    0.0410 nd        1 08C     -0.618100
     13 C7          3.3680    0.2090   -1.1970 ca        1 08C      0.183400
     14 C8          2.0040   -0.1710   -1.3210 ca        1 08C     -0.190600
     15 C12         4.0690    0.5920   -2.3680 ca        1 08C     -0.124000
     16 C11         3.4230    0.5870   -3.5940 ca        1 08C     -0.095000
     17 C10         2.0770    0.2090   -3.7020 ca        1 08C     -0.154000
     18 C9          1.3700   -0.1690   -2.5710 ca        1 08C     -0.059000
     19 CAA         5.3460    0.3440    7.2520 c3        1 08C      0.111700
     20 H1          1.5400   -0.8190    1.9350 hn        1 08C      0.338500
     21 H4          5.7800   -1.1520    1.7000 ha        1 08C      0.147500
     22 H2          2.3720    0.8830    3.4510 ha        1 08C      0.147500
     23 H5          6.9040   -1.1770    3.9370 ha        1 08C      0.150500
     24 HA          3.4760    0.8600    5.6600 ha        1 08C      0.150500
     25 HAA1        6.0980    0.1760    8.0640 h1        1 08C      0.048033
     26 HAA2        5.1720    1.4360    7.0940 h1        1 08C      0.048033
     27 HAA3        4.3870   -0.1770    7.4880 h1        1 08C      0.048033
     28 H12         5.1260    0.8910   -2.2960 ha        1 08C      0.153000
     29 H9          0.3110   -0.4690   -2.6310 ha        1 08C      0.158000
     30 H11         3.9740    0.8850   -4.4990 ha        1 08C      0.137000
     31 H10         1.5850    0.2130   -4.6860 ha        1 08C      0.139000
@<TRIPOS>BOND
     1    1    2 2   
     2    2    3 1   
     3    2   14 1   
     4    3    4 1   
     5    3   20 1   
     6    4    5 1   
     7    4   12 2   
     8    5    6 ar  
     9    5   11 ar  
    10    6    7 ar  
    11    6   21 1   
    12    7    8 ar  
    13    7   23 1   
    14    8    9 1   
    15    8   10 ar  
    16    9   19 1   
    17   10   11 ar  
    18   10   24 1   
    19   11   22 1   
    20   12   13 1   
    21   13   14 ar  
    22   13   15 ar  
    23   14   18 ar  
    24   15   16 ar  
    25   15   28 1   
    26   16   17 ar  
    27   16   30 1   
    28   17   18 ar  
    29   17   31 1   
    30   18   29 1   
    31   19   25 1   
    32   19   26 1   
    33   19   27 1   
@<TRIPOS>SUBSTRUCTURE
     1 08C         1 TEMP              0 ****  ****    0 ROOT
