@<TRIPOS>MOLECULE
08C
   31    27     1     0     0
SMALL
bcc


@<TRIPOS>ATOM
      1 O1         -3.6630    0.0620   -1.5680 o         1 08C     -0.351000
      2 C13        -2.4490    0.0440   -1.5680 c1        1 08C      0.345000
      3 N1         -1.7470   -0.0000   -0.3550 n2        1 08C     -0.334000
      4 C6         -0.3200   -0.0600   -0.3560 c2        1 08C      0.173000
      5 C3          0.4370   -0.0810    0.9540 c2        1 08C     -0.105000
      6 C4          0.7190   -1.2890    1.5710 c2        1 08C     -0.047000
      7 C5          1.3880   -1.3080    2.7860 c1        1 08C     -0.164000
      8 C           1.7740   -0.1180    3.3830 c1        1 08C      0.102000
      9 O           2.5160   -0.1400    4.5760 os        1 08C     -0.205000
     10 C1          1.4920    1.0910    2.7650 c1        1 08C     -0.211000
     11 C2          0.8230    1.1090    1.5500 c1        1 08C     -0.073000
     12 N           0.4020   -0.0740   -1.6080 n1        1 08C     -0.191000
     13 C7         -0.3240   -0.0280   -2.8720 c1        1 08C      0.044000
     14 C8         -1.6950    0.0290   -2.8740 c2        1 08C     -0.170000
     15 C12         0.3810   -0.0240   -4.0890 c1        1 08C     -0.124000
     16 C11        -0.3100    0.0380   -5.2910 c1        1 08C     -0.124500
     17 C10        -1.6980    0.0950   -5.2920 c1        1 08C     -0.124500
     18 C9         -2.3940    0.0910   -4.0910 c1        1 08C     -0.059000
     19 CAA         1.7490    0.1250    5.7300 c3        1 08C     -0.078000
     20 H1         -2.2010    0.0300    0.4350 hn        1 08C      0.252000
     21 H4          0.4480   -2.1270    1.1510 ha        1 08C      0.156000
     22 H2          0.6250    1.9600    1.1150 ha        1 08C      0.139000
     23 H5          1.5860   -2.1590    3.2210 ha        1 08C      0.157000
     24 HA          1.7630    1.9290    3.1850 ha        1 08C      0.144000
     25 HAA1        1.6160    1.0930    5.8190 h1        1 08C      0.087333
     26 HAA2        2.2220   -0.2140    6.5210 h1        1 08C      0.087333
     27 HAA3        0.8780   -0.3200    5.6540 h1        1 08C      0.087333
     28 H12         1.3560   -0.0640   -4.0890 ha        1 08C      0.153000
     29 H9         -3.3690    0.1320   -4.0920 ha        1 08C      0.158000
     30 H11         0.1790    0.0400   -6.1350 ha        1 08C      0.138000
     31 H10        -2.1840    0.1380   -6.1380 ha        1 08C      0.138000
@<TRIPOS>BOND
     1    1    2 1   
     2    2   14 1   
     3    3    4 1   
     4    3   20 1   
     5    4    5 1   
     6    4   12 1   
     7    5    6 1   
     8    5   11 1   
     9    6    7 1   
    10    6   21 1   
    11    7   23 1   
    12    8    9 1   
    13    8   10 1   
    14    9   19 1   
    15   10   24 1   
    16   11   22 1   
    17   13   14 1   
    18   13   15 1   
    19   14   18 1   
    20   15   28 1   
    21   16   17 1   
    22   16   30 1   
    23   17   31 1   
    24   18   29 1   
    25   19   25 1   
    26   19   26 1   
    27   19   27 1   
@<TRIPOS>SUBSTRUCTURE
     1 08C         1 TEMP              0 ****  ****    0 ROOT
