@<TRIPOS>MOLECULE
08C
   31    33     1     0     0
SMALL
bcc


@<TRIPOS>ATOM
      1 O1         -2.5390   -2.6690   -0.9120 o         1 08C     -0.626500
      2 C13        -2.1250   -1.5490   -0.5620 c         1 08C      0.708100
      3 N1         -0.7400   -1.3190   -0.5340 n         1 08C     -0.494400
      4 C6         -0.2240   -0.0740   -0.1460 cc        1 08C      0.551500
      5 C3          1.2580    0.0530   -0.1550 ca        1 08C     -0.188900
      6 C4          1.8520    1.1880   -0.7260 ca        1 08C     -0.060000
      7 C5          3.2340    1.3200   -0.7420 ca        1 08C     -0.187500
      8 C           4.0320    0.3080   -0.1730 ca        1 08C      0.147100
      9 O           5.3890    0.5320   -0.2430 os        1 08C     -0.321900
     10 C1          3.4430   -0.8230    0.4090 ca        1 08C     -0.187500
     11 C2          2.0550   -0.9430    0.4150 ca        1 08C     -0.060000
     12 N          -0.9660    0.9610    0.2140 nd        1 08C     -0.618100
     13 C7         -2.3580    0.8100    0.2090 ca        1 08C      0.183400
     14 C8         -2.9760   -0.4130   -0.1650 ca        1 08C     -0.190600
     15 C12        -3.1880    1.8950    0.5880 ca        1 08C     -0.124000
     16 C11        -4.5660    1.7450    0.5850 ca        1 08C     -0.095000
     17 C10        -5.1620    0.5330    0.2130 ca        1 08C     -0.154000
     18 C9         -4.3710   -0.5430   -0.1610 ca        1 08C     -0.059000
     19 CAA         6.2260   -0.4610    0.3410 c3        1 08C      0.111700
     20 H1         -0.1190   -2.0460   -0.8100 hn        1 08C      0.338500
     21 H4          1.2220    1.9810   -1.1600 ha        1 08C      0.147500
     22 H2          1.5970   -1.8250    0.8900 ha        1 08C      0.147500
     23 H5          3.7160    2.2020   -1.1880 ha        1 08C      0.150500
     24 HA          4.0580   -1.6120    0.8640 ha        1 08C      0.150500
     25 HAA1        6.0170   -0.5600    1.4330 h1        1 08C      0.048033
     26 HAA2        6.0920   -1.4420   -0.1760 h1        1 08C      0.048033
     27 HAA3        7.2580   -0.0620    0.1700 h1        1 08C      0.048033
     28 H12        -2.7320    2.8520    0.8840 ha        1 08C      0.153000
     29 H9         -4.8170   -1.5060   -0.4580 ha        1 08C      0.158000
     30 H11        -5.2040    2.5920    0.8810 ha        1 08C      0.137000
     31 H10        -6.2570    0.4370    0.2180 ha        1 08C      0.139000
@<TRIPOS>BOND
     1    1    2 2   
     2    2    3 1   
     3    2   14 1   
     4    3    4 1   
     5    3   20 1   
     6    4    5 1   
     7    4   12 2   
     8    5    6 ar  
     9    5   11 ar  
    10    6    7 ar  
    11    6   21 1   
    12    7    8 ar  
    13    7   23 1   
    14    8    9 1   
    15    8   10 ar  
    16    9   19 1   
    17   10   11 ar  
    18   10   24 1   
    19   11   22 1   
    20   12   13 1   
    21   13   14 ar  
    22   13   15 ar  
    23   14   18 ar  
    24   15   16 ar  
    25   15   28 1   
    26   16   17 ar  
    27   16   30 1   
    28   17   18 ar  
    29   17   31 1   
    30   18   29 1   
    31   19   25 1   
    32   19   26 1   
    33   19   27 1   
@<TRIPOS>SUBSTRUCTURE
     1 08C         1 TEMP              0 ****  ****    0 ROOT
