@<TRIPOS>MOLECULE
08C
   31    33     1     0     0
SMALL
bcc


@<TRIPOS>ATOM
      1 O1          0.0750   -0.9380   -0.0870 o         1 08C     -0.626500
      2 C13         1.2660   -0.5790   -0.1130 c         1 08C      0.708100
      3 N1          1.9900   -0.5470    1.0900 n         1 08C     -0.494400
      4 C6          3.3340   -0.1480    1.1120 cc        1 08C      0.551500
      5 C3          3.9970   -0.1540    2.4430 ca        1 08C     -0.188900
      6 C4          5.2760   -0.7150    2.5770 ca        1 08C     -0.060000
      7 C5          5.9070   -0.7270    3.8140 ca        1 08C     -0.187500
      8 C           5.2540   -0.1650    4.9280 ca        1 08C      0.147100
      9 O           5.9630   -0.2310    6.1090 os        1 08C     -0.321900
     10 C1          3.9820    0.4070    4.7980 ca        1 08C     -0.187500
     11 C2          3.3600    0.4100    3.5510 ca        1 08C     -0.060000
     12 N           4.0210    0.2190    0.0420 nd        1 08C     -0.618100
     13 C7          3.3680    0.2100   -1.1970 ca        1 08C      0.183400
     14 C8          2.0060   -0.1750   -1.3220 ca        1 08C     -0.190600
     15 C12         4.0680    0.5950   -2.3680 ca        1 08C     -0.124000
     16 C11         3.4220    0.5890   -3.5940 ca        1 08C     -0.095000
     17 C10         2.0790    0.2060   -3.7030 ca        1 08C     -0.154000
     18 C9          1.3720   -0.1750   -2.5710 ca        1 08C     -0.059000
     19 CAA         5.3420    0.3460    7.2530 c3        1 08C      0.111700
     20 H1          1.5440   -0.8270    1.9340 hn        1 08C      0.338500
     21 H4          5.7850   -1.1440    1.7000 ha        1 08C      0.147500
     22 H2          2.3680    0.8770    3.4510 ha        1 08C      0.147500
     23 H5          6.9080   -1.1650    3.9370 ha        1 08C      0.150500
     24 HA          3.4710    0.8570    5.6610 ha        1 08C      0.150500
     25 HAA1        6.0940    0.1810    8.0660 h1        1 08C      0.048033
     26 HAA2        4.3850   -0.1790    7.4880 h1        1 08C      0.048033
     27 HAA3        5.1640    1.4380    7.0960 h1        1 08C      0.048033
     28 H12         5.1240    0.8990   -2.2950 ha        1 08C      0.153000
     29 H9          0.3140   -0.4790   -2.6330 ha        1 08C      0.158000
     30 H11         3.9730    0.8900   -4.4990 ha        1 08C      0.137000
     31 H10         1.5870    0.2090   -4.6860 ha        1 08C      0.139000
@<TRIPOS>BOND
     1    1    2 2   
     2    2    3 1   
     3    2   14 1   
     4    3    4 1   
     5    3   20 1   
     6    4    5 1   
     7    4   12 2   
     8    5    6 ar  
     9    5   11 ar  
    10    6    7 ar  
    11    6   21 1   
    12    7    8 ar  
    13    7   23 1   
    14    8    9 1   
    15    8   10 ar  
    16    9   19 1   
    17   10   11 ar  
    18   10   24 1   
    19   11   22 1   
    20   12   13 1   
    21   13   14 ar  
    22   13   15 ar  
    23   14   18 ar  
    24   15   16 ar  
    25   15   28 1   
    26   16   17 ar  
    27   16   30 1   
    28   17   18 ar  
    29   17   31 1   
    30   18   29 1   
    31   19   25 1   
    32   19   26 1   
    33   19   27 1   
@<TRIPOS>SUBSTRUCTURE
     1 08C         1 TEMP              0 ****  ****    0 ROOT
