@<TRIPOS>MOLECULE
08D
   28    29     1     0     0
SMALL
bcc


@<TRIPOS>ATOM
      1 O12        -0.0300   -0.1350    0.1620 o         1 08D     -0.649800
      2 S10         1.3610   -0.1120   -0.0180 sy        1 08D      1.534200
      3 O11         2.1440    0.0050    1.1550 o         1 08D     -0.649800
      4 C4          1.8520   -1.4250   -0.8940 ca        1 08D     -0.482500
      5 C3          3.1540   -1.9370   -0.7610 ca        1 08D      0.050000
      6 C2          3.5740   -3.0540   -1.4540 ca        1 08D     -0.245500
      7 C5          0.9730   -2.0930   -1.7630 ca        1 08D      0.050000
      8 C6          1.3630   -3.2140   -2.4720 ca        1 08D     -0.245500
      9 C1          2.6840   -3.7210   -2.3420 ca        1 08D      0.254600
     10 N7          3.1040   -4.7980   -3.0840 nh        1 08D     -0.857200
     11 N13         1.8060    1.1860   -0.9470 nh        1 08D     -0.841800
     12 C15         1.3260    1.5390   -2.1940 cc        1 08D      0.581200
     13 N19         0.4580    0.8140   -2.9610 nd        1 08D     -0.425300
     14 O18         0.2340    1.4780   -4.0790 os        1 08D     -0.117100
     15 C17         0.9640    2.6900   -4.0940 cd        1 08D      0.292000
     16 C16         1.6760    2.7760   -2.9190 cc        1 08D     -0.389600
     17 C20         0.8080    3.5350   -5.2770 c3        1 08D     -0.143400
     18 H1          3.8520   -1.4370   -0.0640 ha        1 08D      0.157500
     19 H2          4.6010   -3.4260   -1.3210 ha        1 08D      0.140000
     20 H3         -0.0610   -1.7150   -1.8720 ha        1 08D      0.157500
     21 H4          0.6450   -3.7080   -3.1450 ha        1 08D      0.140000
     22 H5          2.4270   -5.3390   -3.5620 hn        1 08D      0.426300
     23 H6          3.9610   -5.2340   -2.8480 hn        1 08D      0.426300
     24 H7          2.4870    1.8270   -0.6020 hn        1 08D      0.459800
     25 H8          2.3430    3.5540   -2.5680 ha        1 08D      0.175000
     26 H9          0.3130    4.4980   -4.9940 hc        1 08D      0.067367
     27 H10         0.1800    3.0240   -6.0500 hc        1 08D      0.067367
     28 H11         1.8110    3.7630   -5.7180 hc        1 08D      0.067367
@<TRIPOS>BOND
     1    1    2 2   
     2    2    3 2   
     3    2    4 1   
     4    2   11 1   
     5    4    5 ar  
     6    4    7 ar  
     7    5    6 ar  
     8    5   18 1   
     9    6    9 ar  
    10    6   19 1   
    11    7    8 ar  
    12    7   20 1   
    13    8    9 ar  
    14    8   21 1   
    15    9   10 1   
    16   10   22 1   
    17   10   23 1   
    18   11   12 1   
    19   11   24 1   
    20   12   13 2   
    21   12   16 1   
    22   13   14 1   
    23   14   15 1   
    24   15   16 2   
    25   15   17 1   
    26   16   25 1   
    27   17   26 1   
    28   17   27 1   
    29   17   28 1   
@<TRIPOS>SUBSTRUCTURE
     1 08D         1 TEMP              0 ****  ****    0 ROOT
