@<TRIPOS>MOLECULE
08D
   28    29     1     0     0
SMALL
bcc


@<TRIPOS>ATOM
      1 O12         0.0650   -0.0990    0.2400 o         1 08D     -0.649300
      2 S10         1.4480   -0.0810    0.0070 sy        1 08D      1.535200
      3 O11         2.2760    0.0540    1.1450 o         1 08D     -0.649300
      4 C4          1.9030   -1.4070   -0.8700 ca        1 08D     -0.484500
      5 C3          3.2120   -1.9110   -0.7920 ca        1 08D      0.051500
      6 C2          3.6050   -3.0350   -1.4900 ca        1 08D     -0.247000
      7 C5          0.9860   -2.0930   -1.6830 ca        1 08D      0.051500
      8 C6          1.3460   -3.2210   -2.3950 ca        1 08D     -0.247000
      9 C1          2.6730   -3.7250   -2.3160 ca        1 08D      0.258600
     10 N7          3.0350   -4.8690   -2.9830 nv        1 08D     -0.861200
     11 N13         1.8570    1.2030   -0.9590 nu        1 08D     -0.841800
     12 C15         1.3390    1.5300   -2.1970 cc        1 08D      0.581200
     13 N19         0.4650    0.7800   -2.9330 nd        1 08D     -0.425300
     14 O18         0.2020    1.4250   -4.0540 os        1 08D     -0.118100
     15 C17         0.9100    2.6480   -4.1040 cd        1 08D      0.291000
     16 C16         1.6500    2.7620   -2.9480 cc        1 08D     -0.389600
     17 C20         0.7050    3.4770   -5.2900 c3        1 08D     -0.143400
     18 H1          3.9410   -1.3970   -0.1380 ha        1 08D      0.157000
     19 H2          4.6380   -3.4020   -1.4000 ha        1 08D      0.140000
     20 H3         -0.0540   -1.7190   -1.7490 ha        1 08D      0.157000
     21 H4          0.5990   -3.7300   -3.0220 ha        1 08D      0.140000
     22 H5          2.4200   -5.2440   -3.6610 hn        1 08D      0.428300
     23 H6          3.9910   -5.1150   -3.0320 hn        1 08D      0.428300
     24 H7          2.5390    1.8570   -0.6420 hn        1 08D      0.459800
     25 H8          2.3130    3.5560   -2.6260 ha        1 08D      0.175000
     26 H9         -0.0590    4.2670   -5.0730 hc        1 08D      0.067367
     27 H10         0.3400    2.8580   -6.1470 hc        1 08D      0.067367
     28 H11         1.6640    3.9750   -5.5790 hc        1 08D      0.067367
@<TRIPOS>BOND
     1    1    2 2   
     2    2    3 2   
     3    2    4 1   
     4    2   11 1   
     5    4    5 ar  
     6    4    7 ar  
     7    5    6 ar  
     8    5   18 1   
     9    6    9 ar  
    10    6   19 1   
    11    7    8 ar  
    12    7   20 1   
    13    8    9 ar  
    14    8   21 1   
    15    9   10 1   
    16   10   22 1   
    17   10   23 1   
    18   11   12 1   
    19   11   24 1   
    20   12   13 2   
    21   12   16 1   
    22   13   14 1   
    23   14   15 1   
    24   15   16 2   
    25   15   17 1   
    26   16   25 1   
    27   17   26 1   
    28   17   27 1   
    29   17   28 1   
@<TRIPOS>SUBSTRUCTURE
     1 08D         1 TEMP              0 ****  ****    0 ROOT
