@<TRIPOS>MOLECULE
08D
   28    21     1     0     0
SMALL
bcc


@<TRIPOS>ATOM
      1 O12        -2.3860   -0.1680    0.3290 o         1 08D     -0.922000
      2 S10        -0.9820   -0.3160    0.5930 ss        1 08D      2.884000
      3 O11        -0.9800   -0.4660    2.0210 o         1 08D     -0.922000
      4 C4         -0.3240   -1.7560   -0.2070 c1        1 08D     -0.377500
      5 C3         -1.1830   -2.7060   -0.7370 c1        1 08D     -0.103000
      6 C2         -0.6710   -3.8600   -1.3090 c1        1 08D     -0.103000
      7 C5          1.0460   -1.9600   -0.2490 c1        1 08D     -0.103000
      8 C6          1.5580   -3.1140   -0.8210 c1        1 08D     -0.103000
      9 C1          0.6990   -4.0640   -1.3510 c1        1 08D     -0.377500
     10 N7          1.2220   -5.2600   -1.9070 n2        1 08D     -0.361000
     11 N13        -0.1460    1.0200    0.1340 n2        1 08D     -0.785000
     12 C15        -0.4670    2.2850    0.6910 c2        1 08D      0.044000
     13 N19        -1.5600    2.5710    1.4290 n2        1 08D     -0.067000
     14 O18        -1.5140    3.9200    1.7590 os        1 08D     -0.056000
     15 C17        -0.3900    4.4460    1.2180 c1        1 08D      0.000000
     16 C16         0.2690    3.4420    0.5530 c1        1 08D     -0.258000
     17 C20         0.0800    5.8780    1.3590 c2        1 08D     -0.166000
     18 H1         -2.1480   -2.5630   -0.7070 ha        1 08D      0.148500
     19 H2         -1.2750   -4.5290   -1.6820 ha        1 08D      0.148500
     20 H3          1.6510   -1.2910    0.1250 ha        1 08D      0.148500
     21 H4          2.5230   -3.2570   -0.8500 ha        1 08D      0.148500
     22 H5          0.6600   -5.9510   -2.1140 hn        1 08D      0.220000
     23 H6          2.1200   -5.3420   -2.0530 hn        1 08D      0.220000
     24 H7          0.5410    0.9460   -0.4610 hn        1 08D      0.252000
     25 H8          1.1110    3.5320    0.0670 DU        1 08D      0.172000
     26 H9          0.9200    5.8970    1.8650 ha        1 08D      0.106333
     27 H10        -0.6000    6.4000    1.8350 ha        1 08D      0.106333
     28 H11         0.2260    6.2630    0.4700 ha        1 08D      0.106333
@<TRIPOS>BOND
     1    1    2 1   
     2    2    3 1   
     3    4    7 1   
     4    5    6 1   
     5    5   18 1   
     6    6   19 1   
     7    7   20 1   
     8    8    9 1   
     9    8   21 1   
    10   10   22 1   
    11   10   23 1   
    12   11   12 1   
    13   11   24 1   
    14   12   13 1   
    15   12   16 1   
    16   13   14 1   
    17   14   15 1   
    18   15   16 1   
    19   17   26 1   
    20   17   27 1   
    21   17   28 1   
@<TRIPOS>SUBSTRUCTURE
     1 08D         1 TEMP              0 ****  ****    0 ROOT
