@<TRIPOS>MOLECULE
08D
   30    31     1     0     0
SMALL
bcc


@<TRIPOS>ATOM
      1 O12         0.0740    0.2340   -0.5660 o         1 08D     -0.524300
      2 S10         1.3740   -0.0760   -0.2750 sy        1 08D      1.457200
      3 O11         1.9520    0.0840    0.9620 o         1 08D     -0.524300
      4 C4          1.9020   -1.4460   -1.0310 ca        1 08D     -0.437500
      5 C3          3.0390   -2.1310   -0.5640 ca        1 08D      0.039000
      6 C2          3.4310   -3.3480   -1.1140 ca        1 08D     -0.121000
      7 C5          1.1610   -2.0190   -2.0780 ca        1 08D      0.039000
      8 C6          1.5340   -3.2380   -2.6490 ca        1 08D     -0.121000
      9 C1          2.6680   -3.9020   -2.1580 ca        1 08D      0.048600
     10 N7          3.0530   -5.1990   -2.7240 n4        1 08D     -0.723000
     11 N13         2.3910    1.2500   -1.2390 n4        1 08D     -0.652600
     12 C15         1.7410    1.6780   -2.4480 cc        1 08D      0.359200
     13 N19         1.2860    0.8230   -3.4170 nd        1 08D     -0.365300
     14 O18         0.7370    1.5320   -4.3570 os        1 08D     -0.058100
     15 C17         0.8070    2.9230   -4.0590 cd        1 08D      0.369000
     16 C16         1.4500    3.0530   -2.8360 cc        1 08D     -0.343600
     17 C20         0.2230    3.8300   -5.0420 c3        1 08D     -0.174400
     18 H1          3.6280   -1.7150    0.2810 ha        1 08D      0.206500
     19 H2          4.3270   -3.8570   -0.7110 ha        1 08D      0.194000
     20 H3          0.2470   -1.5140   -2.4580 ha        1 08D      0.206500
     21 H4          0.9200   -3.6510   -3.4710 ha        1 08D      0.194000
     22 H5          4.0780   -5.3020   -2.7160 hn        1 08D      0.485800
     23 H6          2.6380   -5.9570   -2.1610 hn        1 08D      0.485800
     24 H7          3.3290    0.9160   -1.4710 hn        1 08D      0.470800
     25 H8          1.6850    3.9610   -2.2850 ha        1 08D      0.214000
     26 H9         -0.6310    4.3940   -4.5780 hc        1 08D      0.105367
     27 H10         0.9930    4.5700   -5.3840 hc        1 08D      0.105367
     28 H11        -0.1600    3.2690   -5.9330 hc        1 08D      0.105367
     29 H73         2.7150   -5.2820   -3.6940 hn        1 08D      0.485800
     30 H132        2.5120    2.0800   -0.6460 hn        1 08D      0.470800
@<TRIPOS>BOND
     1    1    2 2   
     2    2    3 2   
     3    2    4 1   
     4    2   11 1   
     5    4    5 ar  
     6    4    7 ar  
     7    5    6 ar  
     8    5   18 1   
     9    6    9 ar  
    10    6   19 1   
    11    7    8 ar  
    12    7   20 1   
    13    8    9 ar  
    14    8   21 1   
    15    9   10 1   
    16   10   22 1   
    17   10   23 1   
    18   10   29 1   
    19   11   12 1   
    20   11   24 1   
    21   11   30 1   
    22   12   13 2   
    23   12   16 1   
    24   13   14 1   
    25   14   15 1   
    26   15   16 2   
    27   15   17 1   
    28   16   25 1   
    29   17   26 1   
    30   17   27 1   
    31   17   28 1   
@<TRIPOS>SUBSTRUCTURE
     1 08D         1 TEMP              0 ****  ****    0 ROOT
