@<TRIPOS>MOLECULE
08D
   28    29     1     0     0
SMALL
bcc


@<TRIPOS>ATOM
      1 O12         0.0520    2.0450   -1.5160 o         1 08D     -0.649800
      2 S10        -0.2860    1.7940   -0.1780 sy        1 08D      1.534200
      3 O11        -0.7600    2.8980    0.5690 o         1 08D     -0.649800
      4 C4         -1.3640    0.5440   -0.0800 ca        1 08D     -0.482500
      5 C3         -2.2530    0.4400    1.0020 ca        1 08D      0.050500
      6 C2         -3.1870   -0.5740    1.0870 ca        1 08D     -0.245500
      7 C5         -1.4520   -0.4250   -1.0940 ca        1 08D      0.050500
      8 C6         -2.3750   -1.4530   -1.0400 ca        1 08D     -0.245500
      9 C1         -3.2640   -1.5600    0.0630 ca        1 08D      0.254600
     10 N7         -4.1460   -2.6090    0.1610 nh        1 08D     -0.857200
     11 N13         1.0360    1.2570    0.6650 nh        1 08D     -0.841800
     12 C15         1.8680    0.2000    0.3500 cc        1 08D      0.580200
     13 N19         1.6950   -0.6900   -0.6720 nd        1 08D     -0.424300
     14 O18         2.6960   -1.5500   -0.6520 os        1 08D     -0.117100
     15 C17         3.5850   -1.2560    0.4080 cd        1 08D      0.291000
     16 C16         3.1030   -0.1530    1.0780 cc        1 08D     -0.387600
     17 C20         4.7510   -2.1250    0.5480 c3        1 08D     -0.142400
     18 H1         -2.2140    1.2070    1.7980 ha        1 08D      0.157500
     19 H2         -3.8680   -0.6190    1.9490 ha        1 08D      0.140000
     20 H3         -0.7690   -0.3540   -1.9620 ha        1 08D      0.157500
     21 H4         -2.4110   -2.1940   -1.8520 ha        1 08D      0.140000
     22 H5         -4.2960   -3.1800   -0.6330 hn        1 08D      0.426300
     23 H6         -4.8660   -2.5640    0.8390 hn        1 08D      0.426300
     24 H7          1.3140    1.7310    1.4970 hn        1 08D      0.459800
     25 H8          3.5090    0.3660    1.9380 ha        1 08D      0.175000
     26 H9          4.4500   -3.2000    0.4600 hc        1 08D      0.067033
     27 H10         5.4930   -1.9020   -0.2610 hc        1 08D      0.067033
     28 H11         5.2350   -1.9590    1.5410 hc        1 08D      0.067033
@<TRIPOS>BOND
     1    1    2 2   
     2    2    3 2   
     3    2    4 1   
     4    2   11 1   
     5    4    5 ar  
     6    4    7 ar  
     7    5    6 ar  
     8    5   18 1   
     9    6    9 ar  
    10    6   19 1   
    11    7    8 ar  
    12    7   20 1   
    13    8    9 ar  
    14    8   21 1   
    15    9   10 1   
    16   10   22 1   
    17   10   23 1   
    18   11   12 1   
    19   11   24 1   
    20   12   13 2   
    21   12   16 1   
    22   13   14 1   
    23   14   15 1   
    24   15   16 2   
    25   15   17 1   
    26   16   25 1   
    27   17   26 1   
    28   17   27 1   
    29   17   28 1   
@<TRIPOS>SUBSTRUCTURE
     1 08D         1 TEMP              0 ****  ****    0 ROOT
