@<TRIPOS>MOLECULE
08E
   42    45     1     0     0
SMALL
bcc


@<TRIPOS>ATOM
      1 C10         0.2510    2.7480    0.8980 ca        1 08E     -0.139000
      2 C9         -0.7600    3.6260    0.5380 ca        1 08E     -0.136000
      3 C21         3.9790    1.6690    0.4260 ca        1 08E     -0.287300
      4 C2         -2.2430    1.7810   -0.0960 ca        1 08E     -0.070000
      5 C25         3.5600   -0.5900   -0.2970 ca        1 08E     -0.263300
      6 C22         4.9840    1.7360   -0.5480 ca        1 08E      0.412200
      7 C4         -1.2430    0.8720    0.2480 ca        1 08E     -0.043800
      8 C8         -1.1300   -0.5740    0.2080 cc        1 08E     -0.134200
      9 C20         3.2540    0.4760    0.5420 ca        1 08E     -0.042300
     10 C5          0.0190    1.3730    0.7570 ca        1 08E     -0.057200
     11 C3         -1.9850    3.1400    0.0490 ca        1 08E     -0.015600
     12 C7          0.1550   -0.9020    0.6850 cd        1 08E     -0.027300
     13 C24         4.6090   -0.4380   -1.2570 ca        1 08E      0.613200
     14 C18        -2.6980   -3.5500   -1.4760 cd        1 08E     -0.217000
     15 C17        -1.7350   -2.6010   -1.0210 cd        1 08E     -0.068000
     16 C19        -4.0180   -3.3770   -1.1580 cc        1 08E     -0.038400
     17 C1         -2.1080   -1.5140   -0.2730 cc        1 08E     -0.077200
     18 C15        -3.5300   -1.3260    0.0670 c         1 08E      0.685700
     19 C11         0.8430   -2.2580    0.8560 c         1 08E      0.923800
     20 N23         5.3070    0.7370   -1.3870 nb        1 08E     -0.736000
     21 N6          0.8370    0.2720    1.0370 na        1 08E     -0.057400
     22 N16        -4.4350   -2.2920   -0.4210 n         1 08E     -0.450100
     23 N27         4.9760   -1.5480   -2.0380 nh        1 08E     -0.924500
     24 O28        -4.0370   -0.4020    0.7370 o         1 08E     -0.665500
     25 O13         1.1870   -2.8660   -0.1960 o         1 08E     -0.805300
     26 O14         1.0750   -2.6460    2.0280 o         1 08E     -0.805300
     27 CL2        -3.1980    4.2720   -0.3790 cl        1 08E     -0.150400
     28 H1          1.2110    3.1210    1.2780 ha        1 08E      0.124000
     29 H2         -0.6020    4.7100    0.6360 ha        1 08E      0.125000
     30 H4         -3.2200    1.4160   -0.4480 ha        1 08E      0.159000
     31 H6          5.5740    2.6600   -0.6830 h4        1 08E      0.003100
     32 H7         -2.3690   -4.4150   -2.0640 ha        1 08E      0.140000
     33 H8         -0.6640   -2.7720   -1.2540 ha        1 08E      0.200000
     34 H9         -4.8050   -4.0840   -1.4710 h4        1 08E      0.129000
     35 H13         4.2420   -2.2160   -2.1340 hn        1 08E      0.400300
     36 H14         5.4460   -1.3370   -2.8890 hn        1 08E      0.400300
     37 H10        -5.3930   -2.2040   -0.1690 hn        1 08E      0.314500
     38 C12         2.1660    0.3290    1.5730 c3        1 08E      0.075600
     39 H3          3.7610    2.5320    1.0670 ha        1 08E      0.132000
     40 H11         2.3410   -0.6360    2.1450 h1        1 08E      0.083700
     41 H12         2.2190    1.1960    2.2930 h1        1 08E      0.083700
     42 H5          2.9850   -1.5350   -0.2280 ha        1 08E      0.205000
@<TRIPOS>BOND
     1    1    2 ar  
     2    1   10 ar  
     3    1   28 1   
     4    2   11 ar  
     5    2   29 1   
     6    3    6 ar  
     7    3    9 ar  
     8    3   39 1   
     9    4    7 ar  
    10    4   11 ar  
    11    4   30 1   
    12    5    9 ar  
    13    5   13 ar  
    14    5   42 1   
    15    6   20 ar  
    16    6   31 1   
    17    7    8 1   
    18    7   10 ar  
    19    8   12 2   
    20    8   17 1   
    21    9   38 1   
    22   10   21 1   
    23   11   27 1   
    24   12   19 1   
    25   12   21 1   
    26   13   20 ar  
    27   13   23 1   
    28   14   15 1   
    29   14   16 2   
    30   14   32 1   
    31   15   17 2   
    32   15   33 1   
    33   16   22 1   
    34   16   34 1   
    35   17   18 1   
    36   18   22 1   
    37   18   24 2   
    38   19   25 1   
    39   19   26 1   
    40   21   38 1   
    41   22   37 1   
    42   23   35 1   
    43   23   36 1   
    44   38   40 1   
    45   38   41 1   
@<TRIPOS>SUBSTRUCTURE
     1 08E         1 TEMP              0 ****  ****    0 ROOT
