@<TRIPOS>MOLECULE
08E
   42    29     1     0     0
SMALL
bcc


@<TRIPOS>ATOM
      1 C10         2.1620   -0.2460   -1.9860 c1        1 08E     -0.132750
      2 C9          3.5530   -0.3010   -1.9660 c1        1 08E     -0.132750
      3 C21        -3.1260   -0.1990   -1.9520 c1        1 08E     -0.122000
      4 C2          3.5170   -0.3820    0.4460 c1        1 08E     -0.070000
      5 C25        -1.5970    1.5450   -2.4530 c1        1 08E     -0.215000
      6 C22        -4.1290    0.4890   -2.6250 c1        1 08E     -0.051000
      7 C4          2.1090   -0.3270    0.4270 c1        1 08E     -0.021500
      8 C8          1.1660   -0.2900    1.4450 c1        1 08E     -0.145000
      9 C20        -1.8660    0.3340   -1.8710 c1        1 08E     -0.047000
     10 C5          1.4380   -0.2600   -0.7750 c1        1 08E     -0.021500
     11 C3          4.2310   -0.3680   -0.7500 c1        1 08E     -0.094000
     12 C7         -0.0890   -0.2000    0.8620 c1        1 08E      0.016000
     13 C24        -2.6030    2.2310   -3.1250 c1        1 08E      0.061000
     14 C18         1.8590   -0.4280    4.1680 c1        1 08E     -0.132750
     15 C17         0.7130    0.3930    3.4740 c1        1 08E     -0.122000
     16 C19         1.5560   -1.8630    4.4260 c1        1 08E     -0.132750
     17 C1          0.1870   -0.1610    2.6180 c1        1 08E     -0.047000
     18 C15        -0.4820   -1.6420    3.0930 c1        1 08E      0.349000
     19 C11        -1.4150    0.3000    1.4360 c1        1 08E      0.349000
     20 C12        -0.9030   -0.7580   -1.3930 c2        1 08E      0.008000
     21 N23        -3.8600    1.6980   -3.2050 n1        1 08E     -0.204000
     22 N6          0.0750   -0.1810   -0.5040 n2        1 08E     -0.150000
     23 N16         0.4040   -2.4950    3.5660 n1        1 08E     -0.294000
     24 N27        -2.6790    3.3850   -3.9760 n3        1 08E     -0.308000
     25 O28        -1.3780   -1.5210    3.9100 o         1 08E     -0.458000
     26 O13        -2.4080   -0.4780    1.5030 o         1 08E     -0.458000
     27 O14        -1.5170    1.4920    1.8440 os        1 08E     -0.551000
     28 CL2         5.9740   -0.3400   -0.8870 cl        1 08E     -0.072000
     29 H1          1.6850   -0.1990   -2.8420 ha        1 08E      0.130000
     30 H2          4.0550   -0.2840   -2.8070 ha        1 08E      0.130000
     31 H3         -3.3200   -1.0670   -1.5350 ha        1 08E      0.204500
     32 H4          3.9950   -0.4290    1.3020 ha        1 08E      0.159000
     33 H5         -0.6950    1.9290   -2.3950 ha        1 08E      0.133000
     34 H6         -5.0300    0.1070   -2.6830 ha        1 08E      0.155000
     35 H7          2.5380    0.0360    4.7070 ha        1 08E      0.130000
     36 H8          0.7400    1.3740    3.4790 ha        1 08E      0.204500
     37 H9          2.2400   -2.4360    4.8340 ha        1 08E      0.130000
     38 H11        -0.4450   -1.1560   -2.1700 h4        1 08E      0.124500
     39 H12        -1.4080   -1.4560   -0.9160 h4        1 08E      0.124500
     40 H13        -1.9090    3.8130   -4.2390 hn        1 08E      0.173500
     41 H14        -3.4950    3.6950   -4.2560 hn        1 08E      0.173500
     42 H10         0.1580   -3.3530    3.7730 hn        1 08E      0.228000
@<TRIPOS>BOND
     1    1    2 1   
     2    1   29 1   
     3    2   30 1   
     4    3    9 1   
     5    3   31 1   
     6    4   11 1   
     7    4   32 1   
     8    5   13 1   
     9    5   33 1   
    10    6   21 1   
    11    6   34 1   
    12    7   10 1   
    13    8   12 1   
    14   11   28 1   
    15   12   22 1   
    16   13   24 1   
    17   14   16 1   
    18   14   35 1   
    19   15   17 1   
    20   15   36 1   
    21   16   37 1   
    22   18   25 1   
    23   19   26 1   
    24   20   22 1   
    25   20   38 1   
    26   20   39 1   
    27   23   42 1   
    28   24   40 1   
    29   24   41 1   
@<TRIPOS>SUBSTRUCTURE
     1 08E         1 TEMP              0 ****  ****    0 ROOT
