@<TRIPOS>MOLECULE
08E
   42    42     1     0     0
SMALL
bcc


@<TRIPOS>ATOM
      1 C10        -0.5470   -0.0170    1.1270 c3        1 08E     -0.006000
      2 C9          0.2740    1.1430    0.9440 c1        1 08E     -0.120000
      3 C21        -2.1530    4.3300   -3.8050 c2        1 08E     -0.279000
      4 C2          0.5390   -1.5610    3.6950 c1        1 08E     -0.169000
      5 C25        -4.0830    2.6350    0.3410 c2        1 08E     -0.108000
      6 C22        -2.5800    3.7690   -2.7030 c1        1 08E     -0.005000
      7 C4         -0.6170   -0.8290    3.5790 c2        1 08E     -0.213000
      8 C8         -1.5690   -0.6770    4.6820 c2        1 08E     -0.013000
      9 C20        -3.0080    1.9320    0.9910 c2        1 08E     -0.193000
     10 C5         -1.1630   -0.0890    2.4790 c2        1 08E      0.002000
     11 C3          0.9760    2.0990    0.7800 c1        1 08E     -0.202000
     12 C7         -2.6260    0.1180    4.2340 c2        1 08E     -0.075000
     13 C24        -4.0130    3.2470   -0.8840 c2        1 08E      0.004000
     14 C18         1.6970    0.4190    7.0060 c1        1 08E     -0.287000
     15 C17        -2.0300   -1.1070    7.0750 c2        1 08E     -0.169000
     16 C19         1.3670   -0.7040    6.7370 c1        1 08E     -0.038000
     17 C1         -1.3380   -1.3240    5.9490 c2        1 08E     -0.066000
     18 C15        -0.2320   -2.3380    5.9430 c2        1 08E      0.405000
     19 C11        -3.9110    0.5770    4.9230 c2        1 08E      0.384000
     20 N23        -2.8180    3.1470   -1.6510 n2        1 08E     -0.087000
     21 N6         -2.3580    0.4790    2.8760 na        1 08E     -0.037000
     22 N16         1.0180   -1.9870    6.5200 n         1 08E     -0.225000
     23 N27        -5.0980    4.0380   -1.3730 n3        1 08E     -0.327000
     24 O28        -0.4010   -3.5340    5.6440 o         1 08E     -0.370000
     25 O13        -3.8060    1.1560    6.0330 o         1 08E     -0.537000
     26 O14        -4.9980    0.3610    4.3190 o         1 08E     -0.537000
     27 CL2         1.9050    3.3780    0.5620 cl        1 08E      0.151000
     28 H1         -1.3430   -0.0460    0.3260 hc        1 08E      0.122000
     29 H2          0.0940   -0.9400    0.9990 hc        1 08E      0.122000
     30 H4          1.1970   -1.6850    2.8260 ha        1 08E      0.039000
     31 H6         -2.3350    3.8820   -4.7880 ha        1 08E      0.143000
     32 H7         -2.8610   -0.3830    7.1200 ha        1 08E      0.142000
     33 H8          1.9640    1.4140    7.2350 ha        1 08E      0.222000
     34 H9         -1.7960   -1.6380    8.0070 ha        1 08E      0.142000
     35 H13        -5.8980    3.9710   -0.7780 hn        1 08E      0.166500
     36 H14        -5.3380    3.8140   -2.3180 hn        1 08E      0.166500
     37 H10         1.7780   -2.5720    6.2230 hn        1 08E      0.222000
     38 C12        -3.2630    1.2330    2.1250 c2        1 08E     -0.019000
     39 H3         -1.5770    5.2640   -3.7850 ha        1 08E      0.143000
     40 H11        -4.2890    1.2160    2.5760 h4        1 08E      0.221000
     41 H12        -2.0020    2.0060    0.5480 ha        1 08E      0.149000
     42 H5         -5.0340    2.6820    0.9040 ha        1 08E      0.137000
@<TRIPOS>BOND
     1    1    2 1   
     2    1   10 1   
     3    1   28 1   
     4    1   29 1   
     5    2   11 1   
     6    3    6 1   
     7    3   31 1   
     8    3   39 1   
     9    4    7 1   
    10    4   30 1   
    11    5    9 1   
    12    5   13 1   
    13    5   42 1   
    14    6   20 1   
    15    7    8 1   
    16    7   10 1   
    17    8   12 1   
    18    8   17 1   
    19    9   38 1   
    20    9   41 1   
    21   10   21 1   
    22   11   27 1   
    23   12   19 1   
    24   12   21 1   
    25   13   20 1   
    26   13   23 1   
    27   14   16 1   
    28   14   33 1   
    29   15   17 1   
    30   15   32 1   
    31   15   34 1   
    32   16   22 1   
    33   17   18 1   
    34   18   22 1   
    35   18   24 1   
    36   19   25 1   
    37   19   26 1   
    38   21   38 1   
    39   22   37 1   
    40   23   35 1   
    41   23   36 1   
    42   38   40 1   
@<TRIPOS>SUBSTRUCTURE
     1 08E         1 TEMP              0 ****  ****    0 ROOT
