@<TRIPOS>MOLECULE
08E
   43    44     1     0     0
SMALL
bcc


@<TRIPOS>ATOM
      1 C10         0.7080   -0.1080    0.1050 c3        1 08E     -0.003000
      2 C9          1.6990    0.8500   -0.2800 c1        1 08E     -0.161000
      3 C21        -2.8530    1.3750   -0.8410 c2        1 08E     -0.141000
      4 C2          0.1640   -1.9210    2.6540 c1        1 08E     -0.133000
      5 C25        -3.3940    2.6210    1.1440 c2        1 08E     -0.106000
      6 C22        -4.1880    0.8970   -0.8240 c2        1 08E     -0.050000
      7 C4         -0.2790   -0.6290    2.4540 c2        1 08E     -0.215000
      8 C8         -1.1290    0.1240    3.3770 c2        1 08E      0.031000
      9 C20        -2.4410    2.2040    0.1960 c2        1 08E     -0.058000
     10 C5         -0.0330    0.2530    1.3440 c2        1 08E      0.010000
     11 C3          2.5510    1.6240   -0.6090 c1        1 08E     -0.176000
     12 C7         -1.2880    1.4110    2.8540 c2        1 08E     -0.146000
     13 C24        -4.5940    1.8870    1.2100 c2        1 08E     -0.059000
     14 C18        -1.1610    1.0830    7.8480 c1        1 08E     -0.228000
     15 C17        -1.2050   -1.4620    5.2450 c2        1 08E     -0.116000
     16 C19        -2.0780    0.9020    7.0970 c1        1 08E     -0.069000
     17 C1         -1.7290   -0.4260    4.5710 c2        1 08E     -0.095000
     18 C15        -3.0320    0.1660    5.0050 c2        1 08E      0.418000
     19 C11        -1.9160    2.6310    3.4760 c2        1 08E      0.389000
     20 N23        -5.0300    1.0700    0.2030 n2        1 08E     -0.127000
     21 N6         -0.6280    1.4700    1.5920 na        1 08E     -0.079000
     22 N16        -3.1490    0.6740    6.3080 n         1 08E     -0.217000
     23 N27        -5.2940    1.8990    2.5020 n4        1 08E     -0.037000
     24 O28        -4.0720    0.1230    4.3100 o         1 08E     -0.438000
     25 O13        -3.0190    2.4890    4.1110 o         1 08E     -0.554000
     26 O14        -1.3830    3.7530    3.3050 o         1 08E     -0.554000
     27 CL2         3.6820    2.6580   -1.0470 cl        1 08E      0.179000
     28 H1         -0.0300   -0.2430   -0.7400 hc        1 08E      0.122500
     29 H2          1.2080   -1.1070    0.2760 hc        1 08E      0.122500
     30 H4          0.8800   -2.3500    1.9390 ha        1 08E      0.039000
     31 H7         -1.6860   -1.8790    6.1400 ha        1 08E      0.143500
     32 H8         -0.2820   -1.9620    4.9050 ha        1 08E      0.143500
     33 H9         -0.3460    1.2470    8.5020 ha        1 08E      0.234000
     34 H13        -5.9040    2.7100    2.5730 hn        1 08E      0.279333
     35 H14        -4.5350    1.9340    3.2630 hn        1 08E      0.279333
     36 H10        -3.9220    1.2940    6.4590 hn        1 08E      0.241000
     37 C12        -0.9970    2.4430    0.5790 c3        1 08E     -0.007000
     38 H3         -2.1640    1.0520   -1.6330 ha        1 08E      0.161000
     39 H11        -0.8750    3.4730    1.0340 h1        1 08E      0.148500
     40 H12        -0.3160    2.3340   -0.3090 h1        1 08E      0.148500
     41 H5         -3.1620    3.4380    1.8550 ha        1 08E      0.220000
     42 H273       -5.8280    1.0360    2.6380 hn        1 08E      0.279333
     43 H6         -4.5780    0.2810   -1.6560 h4        1 08E      0.180000
@<TRIPOS>BOND
     1    1    2 1   
     2    1   10 1   
     3    1   28 1   
     4    1   29 1   
     5    2   11 1   
     6    3    6 1   
     7    3    9 1   
     8    3   38 1   
     9    4    7 1   
    10    4   30 1   
    11    5    9 1   
    12    5   13 1   
    13    5   41 1   
    14    6   20 1   
    15    6   43 1   
    16    7    8 1   
    17    7   10 1   
    18    8   12 1   
    19    8   17 1   
    20    9   37 1   
    21   10   21 1   
    22   11   27 1   
    23   12   19 1   
    24   12   21 1   
    25   13   20 1   
    26   13   23 1   
    27   14   16 1   
    28   14   33 1   
    29   15   17 1   
    30   15   31 1   
    31   15   32 1   
    32   16   22 1   
    33   17   18 1   
    34   18   22 1   
    35   18   24 1   
    36   19   25 1   
    37   19   26 1   
    38   21   37 1   
    39   22   36 1   
    40   23   34 1   
    41   23   35 1   
    42   23   42 1   
    43   37   39 1   
    44   37   40 1   
@<TRIPOS>SUBSTRUCTURE
     1 08E         1 TEMP              0 ****  ****    0 ROOT
