@<TRIPOS>MOLECULE
08E
   42    42     1     0     0
SMALL
bcc


@<TRIPOS>ATOM
      1 C10        -0.0850    1.3570    0.6600 c3        1 08E     -0.019000
      2 C9         -0.4360    0.4910   -0.4250 c1        1 08E     -0.113000
      3 C21        -1.9100    3.8060   -1.9090 c2        1 08E     -0.279000
      4 C2          1.7850    0.7720    2.8590 c1        1 08E     -0.179000
      5 C25        -4.6070    1.5380    0.1710 c2        1 08E     -0.154000
      6 C22        -3.1470    3.5870   -1.5430 c1        1 08E      0.020000
      7 C4          0.4300    0.5800    3.0370 c2        1 08E     -0.212000
      8 C8         -0.3590    0.0790    4.1630 c2        1 08E     -0.076000
      9 C20        -3.2710    1.4830    0.7000 c2        1 08E     -0.201000
     10 C5         -0.5140    0.8580    1.9930 c2        1 08E      0.058000
     11 C3         -0.6880   -0.2300   -1.3470 c1        1 08E     -0.213000
     12 C7         -1.7020    0.0700    3.7820 c2        1 08E     -0.065000
     13 C24        -5.0780    2.4520   -0.7350 c2        1 08E      0.027000
     14 C18        -1.0580    0.5610    8.7430 c1        1 08E     -0.291000
     15 C17         1.1770    0.4320    6.0300 c2        1 08E     -0.200000
     16 C19        -0.9300   -0.4180    8.0600 c1        1 08E     -0.035000
     17 C1          0.2200   -0.2920    5.4340 c2        1 08E     -0.031000
     18 C15        -0.2530   -1.5720    6.0460 c2        1 08E      0.380000
     19 C11        -2.9200   -0.3630    4.5920 c2        1 08E      0.390000
     20 N23        -4.3470    3.5740   -1.2240 n2        1 08E     -0.128000
     21 N6         -1.7870    0.5610    2.4420 na        1 08E     -0.051000
     22 N16        -0.7310   -1.5700    7.3850 ns        1 08E     -0.218000
     23 N27        -6.4050    2.3260   -1.2450 n8        1 08E     -0.294000
     24 O28        -0.1340   -2.6710    5.4840 o         1 08E     -0.327000
     25 O13        -2.7250   -1.2380    5.4770 o         1 08E     -0.543500
     26 O14        -4.0360    0.1660    4.3430 o         1 08E     -0.543500
     27 Cl2        -1.0380   -1.1900   -2.5740 cl        1 08E      0.147000
     28 H1          1.0480    1.4500    0.7100 hc        1 08E      0.140000
     29 H2         -0.5010    2.3900    0.4790 hc        1 08E      0.140000
     30 H4          2.4590    0.4820    3.6780 ha        1 08E      0.045000
     31 H6         -1.1440    4.1110   -1.1840 ha        1 08E      0.149000
     32 H7          1.5600    1.3620    5.5910 ha        1 08E      0.116500
     33 H8         -1.1900    1.4350    9.3200 ha        1 08E      0.220000
     34 H9          1.6230    0.1400    6.9890 ha        1 08E      0.116500
     35 H13        -6.7460    3.1640   -1.6720 hn        1 08E      0.168000
     36 H14        -7.0300    2.0240   -0.5230 hn        1 08E      0.168000
     37 H10        -1.4580   -2.2510    7.5330 hn        1 08E      0.244000
     38 C12        -3.0120    0.7170    1.7880 c2        1 08E      0.003000
     39 H3         -1.5890    3.6900   -2.9510 ha        1 08E      0.149000
     40 H11        -3.8380    0.1660    2.3060 h4        1 08E      0.219000
     41 H12        -2.4890    2.0660    0.1900 ha        1 08E      0.126000
     42 H5         -5.3080    0.7810    0.5710 ha        1 08E      0.143000
@<TRIPOS>BOND
     1    1    2 1   
     2    1   10 1   
     3    1   28 1   
     4    1   29 1   
     5    2   11 1   
     6    3    6 1   
     7    3   31 1   
     8    3   39 1   
     9    4    7 1   
    10    4   30 1   
    11    5    9 1   
    12    5   13 1   
    13    5   42 1   
    14    6   20 1   
    15    7    8 1   
    16    7   10 1   
    17    8   12 1   
    18    8   17 1   
    19    9   38 1   
    20    9   41 1   
    21   10   21 1   
    22   11   27 1   
    23   12   19 1   
    24   12   21 1   
    25   13   20 1   
    26   13   23 1   
    27   14   16 1   
    28   14   33 1   
    29   15   17 1   
    30   15   32 1   
    31   15   34 1   
    32   16   22 1   
    33   17   18 1   
    34   18   22 1   
    35   18   24 1   
    36   19   25 1   
    37   19   26 1   
    38   21   38 1   
    39   22   37 1   
    40   23   35 1   
    41   23   36 1   
    42   38   40 1   
@<TRIPOS>SUBSTRUCTURE
     1 08E         1 TEMP              0 ****  ****    0 ROOT
