@<TRIPOS>MOLECULE
08F
   65    69     1     0     0
SMALL
bcc


@<TRIPOS>ATOM
      1 S1         -6.2120    0.7170   -1.6760 s6        1 08F      1.470900
      2 O1         -6.0790    1.4740   -2.8560 o         1 08F     -0.650300
      3 O2         -6.8340   -0.5400   -1.7890 o         1 08F     -0.650300
      4 O3         -1.5940   -0.8430    4.1530 o         1 08F     -0.635800
      5 O4         -1.7840    1.3490    3.2170 o         1 08F     -0.635800
      6 C1          1.3000   -2.3400   -0.4160 cc        1 08F     -0.151200
      7 C2          4.4560   -1.8080   -0.8730 ca        1 08F     -0.073000
      8 C3          5.7540   -1.3190   -0.9540 ca        1 08F     -0.007600
      9 C4          3.4770   -0.9960   -0.2960 ca        1 08F     -0.087800
     10 C5          3.8300    0.3110    0.2030 ca        1 08F     -0.026200
     11 N1          2.6860    0.8990    0.7570 na        1 08F     -0.044400
     12 C6          1.6180    0.0000    0.5850 cd        1 08F     -0.097300
     13 C7          2.0610   -1.1720   -0.0390 cc        1 08F     -0.035200
     14 C8          6.0990   -0.0380   -0.4700 ca        1 08F     -0.100000
     15 C9          5.1510    0.7850    0.1090 ca        1 08F     -0.127000
     16 C10         0.2400    0.3410    1.0340 c         1 08F      0.733300
     17 O5         -0.4470    1.1920    0.4400 o         1 08F     -0.585100
     18 C12         0.7890   -3.2250    0.6400 c         1 08F      0.692700
     19 N2          0.1300   -4.3980    0.2220 n         1 08F     -0.431100
     20 C13        -0.0500   -4.6910   -1.1060 cc        1 08F      0.018600
     21 C14         0.4040   -3.8510   -2.0940 cd        1 08F     -0.249000
     22 C15         1.0970   -2.6610   -1.7330 cd        1 08F     -0.013000
     23 O6          0.8770   -3.0320    1.8720 o         1 08F     -0.663500
     24 N3         -0.2440   -0.3250    2.1500 n         1 08F     -0.665300
     25 C16        -2.8480   -0.5820    1.9790 ca        1 08F     -0.365500
     26 C17         2.6770    3.3230    0.2170 ca        1 08F     -0.048300
     27 C18         3.8010    4.1530    0.1500 ca        1 08F     -0.288300
     28 C19         3.8120    5.1650   -0.8240 ca        1 08F      0.436200
     29 N4          2.8220    5.3930   -1.6980 nb        1 08F     -0.718000
     30 C20         1.7090    4.5890   -1.6190 ca        1 08F      0.636200
     31 C21         1.6190    3.5280   -0.6640 ca        1 08F     -0.280300
     32 N5          0.6110    4.8630   -2.4400 nh        1 08F     -0.930500
     33 CL1         6.9700   -2.2830   -1.6530 cl        1 08F     -0.097400
     34 C22        -3.4670   -1.8140    2.2150 ca        1 08F     -0.035000
     35 C23        -4.4980   -2.2500    1.3900 ca        1 08F     -0.137000
     36 C24        -4.9280   -1.4750    0.3160 ca        1 08F     -0.109000
     37 C25        -4.3270   -0.2210    0.0660 ca        1 08F      0.129600
     38 C26        -3.2810    0.2070    0.9110 ca        1 08F     -0.042000
     39 N6         -4.7300    0.5910   -1.0080 nh        1 08F     -0.782500
     40 C27        -7.0790    1.6330   -0.5420 c3        1 08F     -0.374300
     41 H2          4.1950   -2.8090   -1.2460 ha        1 08F      0.152000
     42 H3          7.1410    0.3080   -0.5590 ha        1 08F      0.149000
     43 H4          5.4160    1.7860    0.4780 ha        1 08F      0.145000
     44 H5          1.6080    2.3480    1.8040 h1        1 08F      0.079200
     45 H6          3.4310    2.3830    2.0060 h1        1 08F      0.079200
     46 H7         -0.5790   -5.6350   -1.3320 h4        1 08F      0.157000
     47 H8          0.2430   -4.0930   -3.1520 ha        1 08F      0.158000
     48 H9          1.4740   -2.0040   -2.5340 ha        1 08F      0.153000
     49 H10         0.3490   -1.0770    2.4620 hn        1 08F      0.377500
     50 H11         4.6500    4.0260    0.8310 ha        1 08F      0.140000
     51 H12         4.6810    5.8430   -0.9190 h4        1 08F      0.022100
     52 H13         0.7230    2.8890   -0.6150 ha        1 08F      0.169000
     53 H14         0.7710    5.4640   -3.2160 hn        1 08F      0.410300
     54 H15         0.0350    4.0750   -2.6320 hn        1 08F      0.410300
     55 H16        -3.1380   -2.4330    3.0690 ha        1 08F      0.165000
     56 H17        -4.9830   -3.2200    1.5820 ha        1 08F      0.147000
     57 H18        -5.7390   -1.8530   -0.3330 ha        1 08F      0.177000
     58 H19        -2.7780    1.1780    0.7330 ha        1 08F      0.172000
     59 H20        -3.9940    1.1740   -1.3450 hn        1 08F      0.462800
     60 H21        -8.1510    1.7250   -0.8550 h1        1 08F      0.121367
     61 H22        -7.0970    1.1910    0.4840 h1        1 08F      0.121367
     62 H23        -6.6990    2.6780   -0.4310 h1        1 08F      0.121367
     63 H1         -0.1930   -5.0290    0.9230 hn        1 08F      0.338500
     64 S2         -1.6310   -0.0290    3.0040 sy        1 08F      1.508900
     65 C11         2.5940    2.2430    1.2600 c3        1 08F      0.082600
@<TRIPOS>BOND
     1    1    2 2   
     2    1    3 2   
     3    1   39 1   
     4    1   40 1   
     5    4   64 2   
     6    5   64 2   
     7    6   13 1   
     8    6   18 1   
     9    6   22 2   
    10    7    8 ar  
    11    7    9 ar  
    12    7   41 1   
    13    8   14 ar  
    14    8   33 1   
    15    9   10 ar  
    16    9   13 1   
    17   10   11 1   
    18   10   15 ar  
    19   11   12 1   
    20   11   65 1   
    21   12   13 2   
    22   12   16 1   
    23   14   15 ar  
    24   14   42 1   
    25   15   43 1   
    26   16   17 2   
    27   16   24 1   
    28   18   19 1   
    29   18   23 2   
    30   19   20 1   
    31   19   63 1   
    32   20   21 2   
    33   20   46 1   
    34   21   22 1   
    35   21   47 1   
    36   22   48 1   
    37   24   49 1   
    38   24   64 1   
    39   25   34 ar  
    40   25   38 ar  
    41   25   64 1   
    42   26   27 ar  
    43   26   31 ar  
    44   26   65 1   
    45   27   28 ar  
    46   27   50 1   
    47   28   29 ar  
    48   28   51 1   
    49   29   30 ar  
    50   30   31 ar  
    51   30   32 1   
    52   31   52 1   
    53   32   53 1   
    54   32   54 1   
    55   34   35 ar  
    56   34   55 1   
    57   35   36 ar  
    58   35   56 1   
    59   36   37 ar  
    60   36   57 1   
    61   37   38 ar  
    62   37   39 1   
    63   38   58 1   
    64   39   59 1   
    65   40   60 1   
    66   40   61 1   
    67   40   62 1   
    68   44   65 1   
    69   45   65 1   
@<TRIPOS>SUBSTRUCTURE
     1 08F         1 TEMP              0 ****  ****    0 ROOT
