@<TRIPOS>MOLECULE
08F
   68    68     1     0     0
SMALL
bcc


@<TRIPOS>ATOM
      1 S1         41.1270    9.7560 -100.4240 s6        1 08F      2.780000
      2 O1         40.9050   10.6290  -99.3820 o         1 08F     -0.837500
      3 O2         40.9270    8.3990 -100.3040 o         1 08F     -0.837500
      4 O3         32.7570   10.9000 -104.7020 o         1 08F     -0.267000
      5 O4         33.8390    9.6600 -101.8580 o         1 08F     -0.843000
      6 C1         38.5290    9.7280 -105.7070 c2        1 08F     -0.131000
      7 C2         37.8450   10.8240 -108.7200 c3        1 08F      0.060000
      8 C3         37.4910   11.6980 -109.8820 c2        1 08F     -0.086000
      9 C4         37.4350   11.5040 -107.3840 c3        1 08F     -0.015000
     10 C5         35.9800   11.9570 -107.4480 c2        1 08F     -0.376000
     11 N1         35.2760   11.4500 -106.3020 n3        1 08F     -0.145000
     12 C6         36.2480   10.7680 -105.5120 c2        1 08F     -0.071000
     13 C7         37.4710   10.6370 -106.1270 c2        1 08F     -0.072000
     14 C8         37.3800   13.0380 -109.8260 c2        1 08F     -0.178000
     15 C9         35.5020   12.6200 -108.5150 c1        1 08F      0.237000
     16 C10        35.8280   10.1990 -104.2030 c2        1 08F      0.385000
     17 O5         35.8120    8.9770 -103.9700 o         1 08F     -0.343000
     18 C12        39.9580   10.1460 -105.4570 c2        1 08F      0.390000
     19 N2         40.8090   10.2780 -106.5520 n         1 08F     -0.197000
     20 C13        40.1560   10.4270 -107.7240 c1        1 08F     -0.086000
     21 C14        39.2350   10.5420 -108.4900 c1        1 08F     -0.108000
     22 C15        38.2640    8.4200 -105.5270 c2        1 08F     -0.118000
     23 O6         40.4220   10.2560 -104.2970 o         1 08F     -0.477000
     24 N3         35.4550   11.0950 -103.1980 n         1 08F     -0.706000
     25 C16        36.0820   10.1670 -100.7010 c3        1 08F     -0.612000
     26 C17        31.4850    9.1030 -103.8180 c2        1 08F     -0.277000
     27 C18        30.2160    8.8280 -103.3380 c2        1 08F      0.107000
     28 C19        30.0410    7.7350 -102.3950 c2        1 08F     -0.098000
     29 N4         30.9980    6.9660 -101.9780 n2        1 08F     -0.067000
     30 C20        32.3650    7.2140 -102.4120 c3        1 08F     -0.062000
     31 C21        32.5610    8.2780 -103.4440 c2        1 08F      0.235000
     32 N5         33.2080    6.0510 -102.6490 n3        1 08F     -0.289000
     33 C22      -621.9990  -91.3170    0.8250 c1        1 08F      0.738000
     34 C23      -620.8380  -90.7500    0.3960 c2        1 08F     -0.824000
     35 C24      -619.5280  -90.8240    0.7590 c1        1 08F      0.738000
     36 C25        38.5100   10.4890 -101.0160 c2        1 08F     -0.214000
     37 C26        37.3640    9.8680 -101.3500 c2        1 08F     -0.046000
     38 N6         39.7760   10.2320 -101.6580 n4        1 08F     -0.427000
     39 C27        42.4200   10.1570 -101.3510 c3        1 08F     -1.056000
     40 H2         38.1020   12.3960 -107.2130 hc        1 08F      0.121000
     41 H3         37.6870   13.6290 -108.9490 ha        1 08F      0.154000
     42 H4         37.0510   13.6340 -110.6920 ha        1 08F      0.154000
     43 H5         34.7220   12.1290 -105.8170 hn        1 08F      0.203000
     44 H6         30.8620   10.5060 -105.4070 h4        1 08F      0.151000
     45 H7         37.2870    9.8430 -108.8240 hc        1 08F      0.155000
     46 H8         39.0380    7.6950 -105.2370 ha        1 08F      0.149500
     47 H9         37.2530    8.0050 -105.6690 ha        1 08F      0.149500
     48 H10        37.3220    9.0800 -102.1320 ha        1 08F      0.168000
     49 H11        29.3290    9.4130 -103.6480 ha        1 08F      0.200000
     50 H12        29.0170    7.5320 -102.0050 h4        1 08F      0.224000
     51 H13        33.5810    8.4220 -103.8660 ha        1 08F      0.229000
     52 H14        32.8430    7.7780 -101.4890 h2        1 08F      0.272000
     53 H15        33.3780    5.5550 -101.7930 hn        1 08F      0.192000
     54 H16        36.2090   10.9200  -99.8760 h1        1 08F      0.167500
     55 H17      -621.0040  -90.0330    0.5110 ha        1 08F      0.347000
     56 H18        38.5790   11.2620 -100.2220 hx        1 08F      0.206000
     57 H19        35.7120    9.2210 -100.2100 h1        1 08F      0.167500
     58 H20        40.0380   11.0660 -102.1960 hn        1 08F      0.264000
     59 H21        42.7730   11.2200 -101.2230 h1        1 08F      0.221333
     60 H22        43.3340    9.5350 -101.1040 h1        1 08F      0.221333
     61 H23        42.3220   10.0210 -102.4680 h1        1 08F      0.221333
     62 H1         41.7760   10.5010 -106.4540 hn        1 08F      0.277000
     63 C11        31.7080   10.2600 -104.7290 c2        1 08F      0.241000
     64 H32        35.5230   12.0570 -103.4550 hn        1 08F      0.258000
     65 H53        32.7960    5.4310 -103.3220 hn        1 08F      0.192000
     66 H62        39.6750    9.4860 -102.3580 hn        1 08F      0.264000
     67 S2         34.7820   10.8090 -101.7290 s4        1 08F      1.579000
     68 CL1        37.1730   10.8610 -111.3220 cl        1 08F      0.043000
@<TRIPOS>BOND
     1    1    2 1   
     2    1    3 1   
     3    1   38 1   
     4    1   39 1   
     5    4   63 1   
     6    5   67 1   
     7    6   13 1   
     8    6   18 1   
     9    6   22 1   
    10    7    8 1   
    11    7    9 1   
    12    7   21 1   
    13    7   45 1   
    14    8   14 1   
    15    8   68 1   
    16    9   10 1   
    17    9   13 1   
    18    9   40 1   
    19   10   11 1   
    20   10   15 1   
    21   11   12 1   
    22   11   43 1   
    23   12   13 1   
    24   12   16 1   
    25   14   41 1   
    26   14   42 1   
    27   16   17 1   
    28   16   24 1   
    29   18   19 1   
    30   18   23 1   
    31   19   20 1   
    32   19   62 1   
    33   20   21 1   
    34   22   46 1   
    35   22   47 1   
    36   24   64 1   
    37   24   67 1   
    38   25   37 1   
    39   25   54 1   
    40   25   57 1   
    41   25   67 1   
    42   26   27 1   
    43   26   31 1   
    44   26   63 1   
    45   27   28 1   
    46   27   49 1   
    47   28   29 1   
    48   28   50 1   
    49   29   30 1   
    50   30   31 1   
    51   30   32 1   
    52   30   52 1   
    53   31   51 1   
    54   32   53 1   
    55   32   65 1   
    56   33   34 1   
    57   34   35 1   
    58   34   55 1   
    59   36   37 1   
    60   36   38 1   
    61   36   56 1   
    62   37   48 1   
    63   38   58 1   
    64   38   66 1   
    65   39   59 1   
    66   39   60 1   
    67   39   61 1   
    68   44   63 1   
@<TRIPOS>SUBSTRUCTURE
     1 08F         1 TEMP              0 ****  ****    0 ROOT
