@<TRIPOS>MOLECULE
08F
   65    49     1     0     0
SMALL
bcc


@<TRIPOS>ATOM
      1 S1         -4.7770   -3.2730    5.9840 ss        1 08F      2.846000
      2 O1         -5.8870   -2.5270    5.4480 o         1 08F     -0.924750
      3 O2         -5.0390   -4.5850    5.4540 o         1 08F     -0.924750
      4 S2          0.0860   -1.9080    1.5730 ss        1 08F      2.846000
      5 O3          0.6440   -3.0630    0.9170 o         1 08F     -0.924750
      6 O4          1.0140   -1.7300    2.6610 o         1 08F     -0.924750
      7 C1          3.0120    3.1460   -0.0360 c1        1 08F     -0.153000
      8 C2          2.3100    4.3800   -1.6200 c1        1 08F     -0.043000
      9 C3          1.8400    5.2030   -2.6400 c1        1 08F     -0.093000
     10 C4          1.8980    3.0320   -1.5550 c1        1 08F     -0.026500
     11 C5          1.0300    2.5310   -2.5000 c1        1 08F     -0.026500
     12 N1          0.7590    1.2040   -2.1760 n1        1 08F     -0.148000
     13 C6          1.4590    0.8920   -1.0340 c1        1 08F     -0.087000
     14 C7          2.1670    2.0210   -0.6430 c1        1 08F      0.008000
     15 C8          0.9620    4.6960   -3.5970 c1        1 08F     -0.120250
     16 C9          0.5550    3.3660   -3.5330 c1        1 08F     -0.120250
     17 C10         1.3060    0.1110    0.2810 c1        1 08F      0.367000
     18 C11        -0.2520    0.5420   -2.9700 c2        1 08F      0.017000
     19 O5          2.2510    0.0130    1.0440 o         1 08F     -0.339500
     20 C12         2.4180    3.6790    1.2810 c1        1 08F      0.367000
     21 N2          2.4330    2.7650    2.3290 n2        1 08F     -0.282000
     22 C13         3.7400    2.0090    2.4980 c2        1 08F      0.016000
     23 C14         4.5580    1.7270    1.2220 c1        1 08F     -0.249000
     24 C15         4.3220    2.6770    0.0580 c1        1 08F     -0.002000
     25 O6          2.9780    4.6860    1.6700 o         1 08F     -0.339500
     26 N3          0.0780   -0.5850    0.5640 n1        1 08F     -0.845500
     27 C16        -1.5690   -2.2400    2.1770 c1        1 08F     -0.816000
     28 C17         0.3970   -0.0600   -4.2330 c1        1 08F     -0.052000
     29 C18         1.6070    0.4090   -4.6700 c1        1 08F     -0.120250
     30 C19         2.1460   -0.0620   -5.8640 c1        1 08F     -0.120250
     31 N4          1.4670   -0.9930   -6.6010 n1        1 08F     -0.193000
     32 C20         0.2590   -1.4620   -6.1660 c1        1 08F      0.132000
     33 C21        -0.2820   -0.9930   -4.9720 c1        1 08F     -0.229000
     34 N5         -0.4340   -2.4580   -6.9230 n3        1 08F     -0.323000
     35 CL1         2.3130    6.8540   -2.9600 cl        1 08F     -0.018000
     36 C22        -2.3450   -3.0370    1.3420 c2        1 08F     -0.041000
     37 C23        -3.4380   -3.7280    1.8580 c1        1 08F     -0.126000
     38 C24        -3.7550   -3.6210    3.2090 c1        1 08F     -0.107000
     39 C25        -2.9790   -2.8240    4.0450 c1        1 08F      0.058000
     40 C26        -1.8860   -2.1320    3.5290 c2        1 08F     -0.056000
     41 N6         -3.3320   -2.6790    5.4310 n1        1 08F     -0.845500
     42 C27        -4.8010   -3.2780    7.7700 c2        1 08F     -0.955000
     43 H2          2.9270    4.7370   -0.9470 ha        1 08F      0.164000
     44 H3          0.6310    5.2760   -4.3160 ha        1 08F      0.148250
     45 H4         -0.0630    3.0100   -4.2060 ha        1 08F      0.148250
     46 H5         -0.9400    1.1930   -3.2340 ha        1 08F      0.105000
     47 H6         -0.6660   -0.1750   -2.4410 ha        1 08F      0.105000
     48 H7          3.8410    1.3850    3.2480 h4        1 08F      0.153000
     49 H8          5.4310    1.2930    1.3320 ha        1 08F      0.158000
     50 H9          4.8310    2.5420   -0.7710 ha        1 08F      0.171000
     51 H10        -0.7140   -0.2680    0.2330 hn        1 08F      0.256500
     52 H11         2.0930    1.0750   -4.1430 ha        1 08F      0.148250
     53 H12         3.0140    0.2750   -6.1780 ha        1 08F      0.148250
     54 H13        -1.1490   -1.3310   -4.6600 ha        1 08F      0.139000
     55 H14        -1.2340   -2.7890   -6.6200 hn        1 08F      0.216500
     56 H15        -0.0700   -2.7800   -7.7000 hn        1 08F      0.216500
     57 H16        -2.1220   -3.1130    0.3900 ha        1 08F      0.157000
     58 H17        -3.9860   -4.2910    1.2680 ha        1 08F      0.153000
     59 H18        -4.5250   -4.1080    3.5720 ha        1 08F      0.183000
     60 H19        -1.3380   -1.5700    4.1190 ha        1 08F      0.162000
     61 H20        -2.7870   -2.2030    5.9940 hn        1 08F      0.256500
     62 H21        -5.7290   -3.2100    8.0850 ha        1 08F      0.161000
     63 H22        -4.2840   -2.5140    8.1060 ha        1 08F      0.161000
     64 H23        -4.4040   -4.1130    8.1000 ha        1 08F      0.161000
     65 H1          2.0110    2.9780    3.1160 hn        1 08F      0.248000
@<TRIPOS>BOND
     1    1    2 1   
     2    1    3 1   
     3    4    5 1   
     4    4    6 1   
     5    7   14 1   
     6    7   24 1   
     7    8    9 1   
     8    8   43 1   
     9    9   35 1   
    10   10   11 1   
    11   12   13 1   
    12   13   14 1   
    13   15   16 1   
    14   15   44 1   
    15   16   45 1   
    16   17   19 1   
    17   18   28 1   
    18   18   46 1   
    19   18   47 1   
    20   20   25 1   
    21   21   22 1   
    22   21   65 1   
    23   22   23 1   
    24   22   48 1   
    25   23   49 1   
    26   24   50 1   
    27   26   51 1   
    28   27   36 1   
    29   27   40 1   
    30   28   33 1   
    31   29   30 1   
    32   29   52 1   
    33   30   53 1   
    34   31   32 1   
    35   32   34 1   
    36   33   54 1   
    37   34   55 1   
    38   34   56 1   
    39   36   37 1   
    40   36   57 1   
    41   37   58 1   
    42   38   39 1   
    43   38   59 1   
    44   39   40 1   
    45   40   60 1   
    46   41   61 1   
    47   42   62 1   
    48   42   63 1   
    49   42   64 1   
@<TRIPOS>SUBSTRUCTURE
     1 08F         1 TEMP              0 ****  ****    0 ROOT
