@<TRIPOS>MOLECULE
08H
   35    28     1     0     0
SMALL
bcc


@<TRIPOS>ATOM
      1 CAS        -0.1440   -0.3570    0.6510 c1        1 08H     -0.093000
      2 CAJ         0.8020   -1.1740    1.2920 c2        1 08H     -0.082000
      3 CAP         1.8640   -0.5980    1.9960 c1        1 08H     -0.072000
      4 CLAB        3.4370   -1.2730    2.0420 cl        1 08H      0.006000
      5 CAH         1.9850    0.7850    2.0610 c2        1 08H     -0.098000
      6 CAI         1.0340    1.6100    1.4160 c1        1 08H     -0.140000
      7 CAU        -0.0260    1.0310    0.7140 c1        1 08H      0.078000
      8 NAV        -1.3070    1.6460    0.7320 n2        1 08H     -0.140000
      9 CAR        -1.6690    2.6030    1.6870 c1        1 08H     -0.077000
     10 CAA        -1.5170    3.5600    2.8940 c2        1 08H     -0.149000
     11 NAM        -2.8380    2.2520    2.1950 n2        1 08H     -0.073000
     12 NAN        -3.2350    1.0840    1.5810 n2        1 08H     -0.073000
     13 CAT        -2.2740    0.7300    0.6840 c1        1 08H     -0.077000
     14 CAK        -2.6840    0.4460   -0.7550 c2        1 08H     -0.024000
     15 NAL        -1.9140   -0.6950   -1.1570 n2        1 08H     -0.158000
     16 CAO        -0.5640   -0.8110   -0.7550 c1        1 08H      0.076000
     17 CAQ         0.4620   -1.5140   -1.6760 c1        1 08H     -0.063000
     18 CAF         0.7430   -2.8640   -1.4930 c1        1 08H     -0.119250
     19 CAD         1.5480   -3.5310   -2.3920 c1        1 08H     -0.119250
     20 CAC         2.0790   -2.8540   -3.4820 c1        1 08H     -0.119250
     21 CAE         1.7990   -1.5100   -3.6640 c1        1 08H     -0.119250
     22 CAG         0.9880   -0.8400   -2.7570 c1        1 08H     -0.106000
     23 H1          0.6830   -2.1510    1.2950 ha        1 08H      0.168000
     24 H2          2.7410    1.1950    2.5630 ha        1 08H      0.157000
     25 H3          1.1230    2.6180    1.4600 ha        1 08H      0.154000
     26 H4         -1.2080    3.0740    3.6460 ha        1 08H      0.104000
     27 H5         -0.8790    4.2540    2.6760 ha        1 08H      0.104000
     28 H6         -2.4120    3.9800    3.1080 ha        1 08H      0.104000
     29 H7         -2.7280    1.2020   -1.3780 h4        1 08H      0.128500
     30 H8         -3.6310    0.1770   -0.7390 h4        1 08H      0.128500
     31 H12         0.3710   -3.3390   -0.7290 ha        1 08H      0.138500
     32 H13         1.7510   -4.5130   -2.2570 ha        1 08H      0.138500
     33 H14         2.6600   -3.3350   -4.1320 ha        1 08H      0.138500
     34 H15         2.1760   -1.0270   -4.4400 ha        1 08H      0.138500
     35 H16         0.7840    0.1390   -2.8880 ha        1 08H      0.138000
@<TRIPOS>BOND
     1    1    2 1   
     2    1    7 1   
     3    2    3 1   
     4    2   23 1   
     5    3    5 1   
     6    5    6 1   
     7    5   24 1   
     8    6   25 1   
     9    8    9 1   
    10    8   13 1   
    11    9   11 1   
    12   10   26 1   
    13   10   27 1   
    14   10   28 1   
    15   11   12 1   
    16   12   13 1   
    17   14   15 1   
    18   14   29 1   
    19   14   30 1   
    20   15   16 1   
    21   17   22 1   
    22   18   19 1   
    23   18   31 1   
    24   19   32 1   
    25   20   21 1   
    26   20   33 1   
    27   21   34 1   
    28   22   35 1   
@<TRIPOS>SUBSTRUCTURE
     1 08H         1 TEMP              0 ****  ****    0 ROOT
