@<TRIPOS>MOLECULE
08H
   35    38     1     0     0
SMALL
bcc


@<TRIPOS>ATOM
      1 CAS        -0.0240    0.0140   -0.0460 ca        1 08H     -0.176900
      2 CAJ         1.3760   -0.0350   -0.1110 ca        1 08H     -0.082000
      3 CAP         2.1430   -0.1300    1.0490 ca        1 08H      0.006400
      4 CLAB        3.8350   -0.1900    0.9420 cl        1 08H     -0.072400
      5 CAH         1.5210   -0.1780    2.3010 ca        1 08H     -0.098000
      6 CAI         0.1360   -0.1380    2.3840 ca        1 08H     -0.140000
      7 CAU        -0.6600   -0.0400    1.2180 ca        1 08H      0.032800
      8 NAV        -2.0600   -0.0190    1.3350 na        1 08H     -0.271800
      9 CAR        -2.8610    0.5210    2.3720 cc        1 08H      0.382800
     10 CAA        -2.3770    1.3590    3.4920 c3        1 08H     -0.125400
     11 NAM        -4.1580    0.1620    2.1250 nd        1 08H     -0.345000
     12 NAN        -4.2260   -0.5570    1.0230 nd        1 08H     -0.327000
     13 CAT        -2.9770   -0.7020    0.4990 cc        1 08H      0.354800
     14 CAK        -2.5710   -1.3780   -0.7740 c3        1 08H      0.085500
     15 NAL        -1.8400   -0.5270   -1.6700 n2        1 08H     -0.570900
     16 CAO        -0.7600    0.0960   -1.3340 ce        1 08H      0.531500
     17 CAQ        -0.1180    0.9870   -2.3380 ca        1 08H     -0.146900
     18 CAF         0.1530    0.5210   -3.6290 ca        1 08H     -0.099000
     19 CAD         0.7430    1.3720   -4.5640 ca        1 08H     -0.135000
     20 CAC         1.0510    2.6880   -4.2190 ca        1 08H     -0.115000
     21 CAE         0.7690    3.1560   -2.9350 ca        1 08H     -0.135000
     22 CAG         0.1860    2.3100   -1.9940 ca        1 08H     -0.099000
     23 H1          1.8680    0.0060   -1.0980 ha        1 08H      0.168000
     24 H2          2.1230   -0.2560    3.2200 ha        1 08H      0.157000
     25 H3         -0.3410   -0.1980    3.3760 ha        1 08H      0.154000
     26 H4         -3.1600    2.1130    3.7640 hc        1 08H      0.064700
     27 H5         -1.4380    1.8990    3.2150 hc        1 08H      0.064700
     28 H6         -2.1800    0.7160    4.3870 hc        1 08H      0.064700
     29 H7         -1.9850   -2.3100   -0.5190 h1        1 08H      0.089200
     30 H8         -3.5030   -1.6910   -1.3310 h1        1 08H      0.089200
     31 H12        -0.1070   -0.5110   -3.9100 ha        1 08H      0.142000
     32 H13         0.9570    1.0040   -5.5780 ha        1 08H      0.136500
     33 H14         1.5120    3.3580   -4.9600 ha        1 08H      0.135000
     34 H15         1.0040    4.1960   -2.6640 ha        1 08H      0.136500
     35 H16        -0.0400    2.6810   -0.9830 ha        1 08H      0.142000
@<TRIPOS>BOND
     1    1    2 ar  
     2    1    7 ar  
     3    1   16 1   
     4    2    3 ar  
     5    2   23 1   
     6    3    4 1   
     7    3    5 ar  
     8    5    6 ar  
     9    5   24 1   
    10    6    7 ar  
    11    6   25 1   
    12    7    8 1   
    13    8    9 1   
    14    8   13 1   
    15    9   10 1   
    16    9   11 2   
    17   10   26 1   
    18   10   27 1   
    19   10   28 1   
    20   11   12 1   
    21   12   13 2   
    22   13   14 1   
    23   14   15 1   
    24   14   29 1   
    25   14   30 1   
    26   15   16 2   
    27   16   17 1   
    28   17   18 ar  
    29   17   22 ar  
    30   18   19 ar  
    31   18   31 1   
    32   19   20 ar  
    33   19   32 1   
    34   20   21 ar  
    35   20   33 1   
    36   21   22 ar  
    37   21   34 1   
    38   22   35 1   
@<TRIPOS>SUBSTRUCTURE
     1 08H         1 TEMP              0 ****  ****    0 ROOT
