@<TRIPOS>MOLECULE
08H
   35    38     1     0     0
SMALL
bcc


@<TRIPOS>ATOM
      1 CAS        -0.0210    0.0190   -0.0430 ca        1 08H     -0.176900
      2 CAJ         1.3790   -0.0270   -0.1050 ca        1 08H     -0.082000
      3 CAP         2.1440   -0.1170    1.0560 ca        1 08H      0.006400
      4 ClAB        3.8360   -0.1730    0.9520 cl        1 08H     -0.072400
      5 CAH         1.5200   -0.1640    2.3070 ca        1 08H     -0.098000
      6 CAI         0.1350   -0.1270    2.3880 ca        1 08H     -0.140000
      7 CAU        -0.6590   -0.0340    1.2210 ca        1 08H      0.032800
      8 NAV        -2.0590   -0.0160    1.3350 na        1 08H     -0.271800
      9 CAR        -2.8640    0.5250    2.3700 cc        1 08H      0.382800
     10 CAA        -2.3830    1.3670    3.4880 c3        1 08H     -0.125400
     11 NAM        -4.1590    0.1620    2.1220 nd        1 08H     -0.345000
     12 NAN        -4.2240   -0.5600    1.0210 nd        1 08H     -0.327000
     13 CAT        -2.9730   -0.7030    0.4990 cc        1 08H      0.354800
     14 CAK        -2.5630   -1.3810   -0.7710 c3        1 08H      0.085500
     15 NAL        -1.8330   -0.5310   -1.6680 n2        1 08H     -0.570900
     16 CAO        -0.7550    0.0960   -1.3320 ce        1 08H      0.531500
     17 CAQ        -0.1140    0.9870   -2.3370 ca        1 08H     -0.146900
     18 CAF         0.1590    0.5190   -3.6270 ca        1 08H     -0.099000
     19 CAD         0.7480    1.3700   -4.5630 ca        1 08H     -0.135000
     20 CAC         1.0530    2.6860   -4.2200 ca        1 08H     -0.115000
     21 CAE         0.7700    3.1560   -2.9370 ca        1 08H     -0.135000
     22 CAG         0.1870    2.3110   -1.9950 ca        1 08H     -0.099000
     23 H1          1.8720    0.0130   -1.0910 ha        1 08H      0.168000
     24 H2          2.1210   -0.2380    3.2280 ha        1 08H      0.157000
     25 H3         -0.3440   -0.1860    3.3790 ha        1 08H      0.154000
     26 H4         -2.1860    0.7260    4.3850 hc        1 08H      0.064700
     27 H5         -1.4450    1.9090    3.2120 hc        1 08H      0.064700
     28 H6         -3.1680    2.1190    3.7570 hc        1 08H      0.064700
     29 H7         -3.4940   -1.6980   -1.3290 h1        1 08H      0.089200
     30 H8         -1.9750   -2.3110   -0.5140 h1        1 08H      0.089200
     31 H12        -0.0980   -0.5140   -3.9060 ha        1 08H      0.142000
     32 H13         0.9640    1.0000   -5.5760 ha        1 08H      0.136500
     33 H14         1.5140    3.3560   -4.9610 ha        1 08H      0.135000
     34 H15         1.0020    4.1970   -2.6670 ha        1 08H      0.136500
     35 H16        -0.0410    2.6830   -0.9850 ha        1 08H      0.142000
@<TRIPOS>BOND
     1    1    2 ar  
     2    1    7 ar  
     3    1   16 1   
     4    2    3 ar  
     5    2   23 1   
     6    3    4 1   
     7    3    5 ar  
     8    5    6 ar  
     9    5   24 1   
    10    6    7 ar  
    11    6   25 1   
    12    7    8 1   
    13    8    9 1   
    14    8   13 1   
    15    9   10 1   
    16    9   11 2   
    17   10   26 1   
    18   10   27 1   
    19   10   28 1   
    20   11   12 1   
    21   12   13 2   
    22   13   14 1   
    23   14   15 1   
    24   14   29 1   
    25   14   30 1   
    26   15   16 2   
    27   16   17 1   
    28   17   18 ar  
    29   17   22 ar  
    30   18   19 ar  
    31   18   31 1   
    32   19   20 ar  
    33   19   32 1   
    34   20   21 ar  
    35   20   33 1   
    36   21   22 ar  
    37   21   34 1   
    38   22   35 1   
@<TRIPOS>SUBSTRUCTURE
     1 08H         1 TEMP              0 ****  ****    0 ROOT
