@<TRIPOS>MOLECULE
08H
   35    38     1     0     0
SMALL
bcc


@<TRIPOS>ATOM
      1 CAS        -0.0720    0.2630   -0.3710 ca        1 08H     -0.176900
      2 CAJ        -1.0830    1.2130   -0.5660 ca        1 08H     -0.082000
      3 CAP        -0.8160    2.5760   -0.4490 ca        1 08H      0.006400
      4 CLAB       -2.0580    3.7060   -0.6930 cl        1 08H     -0.072400
      5 CAH         0.4730    3.0150   -0.1330 ca        1 08H     -0.098000
      6 CAI         1.4880    2.0880    0.0580 ca        1 08H     -0.140000
      7 CAU         1.2380    0.7010   -0.0560 ca        1 08H      0.032800
      8 NAV         2.2920   -0.2110    0.1260 na        1 08H     -0.271800
      9 CAR         3.4220   -0.1120    0.9760 cc        1 08H      0.382800
     10 CAA         3.6370    0.9240    2.0110 c3        1 08H     -0.125400
     11 NAM         4.2490   -1.1640    0.6920 nd        1 08H     -0.345000
     12 NAN         3.7260   -1.9060   -0.2640 nd        1 08H     -0.327000
     13 CAT         2.5330   -1.3710   -0.6500 cc        1 08H      0.354800
     14 CAK         1.5520   -1.9010   -1.6500 c3        1 08H      0.085500
     15 NAL         0.2350   -2.1000   -1.1160 n2        1 08H     -0.570900
     16 CAO        -0.4430   -1.1670   -0.5350 ce        1 08H      0.531500
     17 CAQ        -1.7800   -1.5080    0.0210 ca        1 08H     -0.146900
     18 CAF        -2.7280   -2.1690   -0.7680 ca        1 08H     -0.099000
     19 CAD        -3.9730   -2.4950   -0.2290 ca        1 08H     -0.135000
     20 CAC        -4.2700   -2.1750    1.0950 ca        1 08H     -0.115000
     21 CAE        -3.3200   -1.5260    1.8850 ca        1 08H     -0.135000
     22 CAG        -2.0770   -1.1920    1.3530 ca        1 08H     -0.099000
     23 H1         -2.1020    0.8680   -0.8130 ha        1 08H      0.168000
     24 H2          0.6900    4.0910   -0.0410 ha        1 08H      0.157000
     25 H3          2.5050    2.4500    0.2860 ha        1 08H      0.154000
     26 H4          2.6650    1.3380    2.3760 hc        1 08H      0.064700
     27 H5          4.1880    0.4800    2.8780 hc        1 08H      0.064700
     28 H6          4.2550    1.7570    1.5890 hc        1 08H      0.064700
     29 H7          1.5360   -1.2090   -2.5440 h1        1 08H      0.089200
     30 H8          1.9040   -2.9170   -1.9990 h1        1 08H      0.089200
     31 H12        -2.4900   -2.4400   -1.8080 ha        1 08H      0.142000
     32 H13        -4.7180   -3.0120   -0.8520 ha        1 08H      0.136500
     33 H14        -5.2510   -2.4370    1.5180 ha        1 08H      0.135000
     34 H15        -3.5500   -1.2810    2.9330 ha        1 08H      0.136500
     35 H16        -1.3270   -0.6850    1.9770 ha        1 08H      0.142000
@<TRIPOS>BOND
     1    1    2 ar  
     2    1    7 ar  
     3    1   16 1   
     4    2    3 ar  
     5    2   23 1   
     6    3    4 1   
     7    3    5 ar  
     8    5    6 ar  
     9    5   24 1   
    10    6    7 ar  
    11    6   25 1   
    12    7    8 1   
    13    8    9 1   
    14    8   13 1   
    15    9   10 1   
    16    9   11 2   
    17   10   26 1   
    18   10   27 1   
    19   10   28 1   
    20   11   12 1   
    21   12   13 2   
    22   13   14 1   
    23   14   15 1   
    24   14   29 1   
    25   14   30 1   
    26   15   16 2   
    27   16   17 1   
    28   17   18 ar  
    29   17   22 ar  
    30   18   19 ar  
    31   18   31 1   
    32   19   20 ar  
    33   19   32 1   
    34   20   21 ar  
    35   20   33 1   
    36   21   22 ar  
    37   21   34 1   
    38   22   35 1   
@<TRIPOS>SUBSTRUCTURE
     1 08H         1 TEMP              0 ****  ****    0 ROOT
