@<TRIPOS>MOLECULE
08H
   35    38     1     0     0
SMALL
bcc


@<TRIPOS>ATOM
      1 CAS        -0.0220    0.0190   -0.0440 ca        1 08H     -0.176900
      2 CAJ         1.3770   -0.0290   -0.1080 ca        1 08H     -0.082000
      3 CAP         2.1450   -0.1210    1.0520 ca        1 08H      0.006400
      4 CLAB        3.8370   -0.1790    0.9450 cl        1 08H     -0.072400
      5 CAH         1.5230   -0.1680    2.3040 ca        1 08H     -0.098000
      6 CAI         0.1380   -0.1290    2.3860 ca        1 08H     -0.140000
      7 CAU        -0.6580   -0.0340    1.2210 ca        1 08H      0.032800
      8 NAV        -2.0580   -0.0140    1.3380 na        1 08H     -0.271800
      9 CAR        -2.8600    0.5280    2.3740 cc        1 08H      0.382800
     10 CAA        -2.3760    1.3690    3.4920 c3        1 08H     -0.125400
     11 NAM        -4.1560    0.1680    2.1280 nd        1 08H     -0.345000
     12 NAN        -4.2240   -0.5530    1.0270 nd        1 08H     -0.327000
     13 CAT        -2.9740   -0.6990    0.5030 cc        1 08H      0.354800
     14 CAK        -2.5680   -1.3770   -0.7680 c3        1 08H      0.085500
     15 NAL        -1.8380   -0.5280   -1.6660 n2        1 08H     -0.570900
     16 CAO        -0.7580    0.0970   -1.3320 ce        1 08H      0.531500
     17 CAQ        -0.1170    0.9860   -2.3370 ca        1 08H     -0.146900
     18 CAF         0.1560    0.5170   -3.6270 ca        1 08H     -0.099000
     19 CAD         0.7450    1.3660   -4.5640 ca        1 08H     -0.135000
     20 CAC         1.0510    2.6830   -4.2230 ca        1 08H     -0.115000
     21 CAE         0.7670    3.1550   -2.9400 ca        1 08H     -0.135000
     22 CAG         0.1850    2.3110   -1.9970 ca        1 08H     -0.099000
     23 H1          1.8700    0.0100   -1.0960 ha        1 08H      0.168000
     24 H2          2.1250   -0.2430    3.2230 ha        1 08H      0.157000
     25 H3         -0.3390   -0.1870    3.3790 ha        1 08H      0.154000
     26 H4         -2.1780    0.7280    4.3880 hc        1 08H      0.064700
     27 H5         -3.1590    2.1220    3.7630 hc        1 08H      0.064700
     28 H6         -1.4370    1.9090    3.2150 hc        1 08H      0.064700
     29 H7         -3.5000   -1.6920   -1.3250 h1        1 08H      0.089200
     30 H8         -1.9810   -2.3080   -0.5120 h1        1 08H      0.089200
     31 H12        -0.1020   -0.5160   -3.9050 ha        1 08H      0.142000
     32 H13         0.9620    0.9950   -5.5770 ha        1 08H      0.136500
     33 H14         1.5120    3.3520   -4.9650 ha        1 08H      0.135000
     34 H15         1.0000    4.1960   -2.6720 ha        1 08H      0.136500
     35 H16        -0.0430    2.6840   -0.9880 ha        1 08H      0.142000
@<TRIPOS>BOND
     1    1    2 ar  
     2    1    7 ar  
     3    1   16 1   
     4    2    3 ar  
     5    2   23 1   
     6    3    4 1   
     7    3    5 ar  
     8    5    6 ar  
     9    5   24 1   
    10    6    7 ar  
    11    6   25 1   
    12    7    8 1   
    13    8    9 1   
    14    8   13 1   
    15    9   10 1   
    16    9   11 2   
    17   10   26 1   
    18   10   27 1   
    19   10   28 1   
    20   11   12 1   
    21   12   13 2   
    22   13   14 1   
    23   14   15 1   
    24   14   29 1   
    25   14   30 1   
    26   15   16 2   
    27   16   17 1   
    28   17   18 ar  
    29   17   22 ar  
    30   18   19 ar  
    31   18   31 1   
    32   19   20 ar  
    33   19   32 1   
    34   20   21 ar  
    35   20   33 1   
    36   21   22 ar  
    37   21   34 1   
    38   22   35 1   
@<TRIPOS>SUBSTRUCTURE
     1 08H         1 TEMP              0 ****  ****    0 ROOT
