@<TRIPOS>MOLECULE
08J
   36    39     1     0     0
SMALL
bcc


@<TRIPOS>ATOM
      1 CAU        -0.0110    0.0370   -0.0230 ca        1 08J     -0.175900
      2 CAK         1.3890    0.0460   -0.0590 ca        1 08J     -0.086000
      3 CAP         2.1370   -0.0230    1.1140 ca        1 08J      0.003400
      4 ClAC        3.8330   -0.0110    1.0400 cl        1 08J     -0.078400
      5 CAH         1.4930   -0.1060    2.3520 ca        1 08J     -0.097000
      6 CAI         0.1070   -0.1220    2.4070 ca        1 08J     -0.145000
      7 CAV        -0.6730   -0.0440    1.2280 ca        1 08J      0.044800
      8 NAW        -2.0750   -0.0670    1.3230 na        1 08J     -0.140000
      9 CAR        -2.8940    0.4740    2.3510 cc        1 08J      0.427800
     10 CAA        -2.3980    1.3490    3.4440 c3        1 08J     -0.128400
     11 NAN        -4.1890    0.1200    2.1600 nd        1 08J     -0.662000
     12 CAJ        -4.2250   -0.6530    1.0050 cd        1 08J      0.322200
     13 CAS        -2.9350   -0.7850    0.4680 cc        1 08J     -0.223900
     14 CAL        -2.4850   -1.4430   -0.7850 c3        1 08J      0.180100
     15 NAM        -1.7740   -0.5730   -1.6820 n2        1 08J     -0.560900
     16 CAO        -0.7260    0.0900   -1.3230 ce        1 08J      0.528500
     17 CAT        -0.0960    0.9940   -2.3240 ca        1 08J     -0.170900
     18 CAG         0.6820    0.4560   -3.3530 ca        1 08J     -0.087000
     19 CAE         1.2760    1.2850   -4.3010 ca        1 08J     -0.147000
     20 CAD         1.0880    2.6670   -4.2370 ca        1 08J     -0.096000
     21 CAF         0.3060    3.2240   -3.2320 ca        1 08J     -0.168000
     22 CAQ        -0.2970    2.3900   -2.2700 ca        1 08J      0.153900
     23 FAB        -1.0650    2.9470   -1.3050 f         1 08J     -0.129900
     24 H1          1.9000    0.1090   -1.0360 ha        1 08J      0.162000
     25 H2          2.0790   -0.1670    3.2830 ha        1 08J      0.155000
     26 H3         -0.3860   -0.2120    3.3890 ha        1 08J      0.154000
     27 H4         -3.1800    2.1060    3.7030 hc        1 08J      0.062367
     28 H5         -1.4660    1.8860    3.1400 hc        1 08J      0.062367
     29 H6         -2.1870    0.7330    4.3540 hc        1 08J      0.062367
     30 H7         -5.1600   -1.0620    0.6220 h4        1 08J      0.047100
     31 H8         -3.4000   -1.7910   -1.3490 h1        1 08J      0.075700
     32 H9         -1.8640   -2.3550   -0.5350 h1        1 08J      0.075700
     33 H10         0.8170   -0.6350   -3.4130 ha        1 08J      0.145000
     34 H11         1.8880    0.8490   -5.1040 ha        1 08J      0.140000
     35 H12         1.5560    3.3210   -4.9890 ha        1 08J      0.140000
     36 H13         0.1440    4.3110   -3.1780 ha        1 08J      0.152000
@<TRIPOS>BOND
     1    1    2 ar  
     2    1    7 ar  
     3    1   16 1   
     4    2    3 ar  
     5    2   24 1   
     6    3    4 1   
     7    3    5 ar  
     8    5    6 ar  
     9    5   25 1   
    10    6    7 ar  
    11    6   26 1   
    12    7    8 1   
    13    8    9 1   
    14    8   13 1   
    15    9   10 1   
    16    9   11 2   
    17   10   27 1   
    18   10   28 1   
    19   10   29 1   
    20   11   12 1   
    21   12   13 2   
    22   12   30 1   
    23   13   14 1   
    24   14   15 1   
    25   14   31 1   
    26   14   32 1   
    27   15   16 2   
    28   16   17 1   
    29   17   18 ar  
    30   17   22 ar  
    31   18   19 ar  
    32   18   33 1   
    33   19   20 ar  
    34   19   34 1   
    35   20   21 ar  
    36   20   35 1   
    37   21   22 ar  
    38   21   36 1   
    39   22   23 1   
@<TRIPOS>SUBSTRUCTURE
     1 08J         1 TEMP              0 ****  ****    0 ROOT
