@<TRIPOS>MOLECULE
08J
   36    39     1     0     0
SMALL
bcc


@<TRIPOS>ATOM
      1 CAU        -0.0110    0.0360   -0.0240 ca        1 08J     -0.175900
      2 CAK         1.3890    0.0450   -0.0620 ca        1 08J     -0.086000
      3 CAP         2.1380   -0.0250    1.1110 ca        1 08J      0.003400
      4 CLAC        3.8340   -0.0130    1.0360 cl        1 08J     -0.078400
      5 CAH         1.4950   -0.1090    2.3500 ca        1 08J     -0.097000
      6 CAI         0.1090   -0.1250    2.4050 ca        1 08J     -0.145000
      7 CAV        -0.6720   -0.0460    1.2270 ca        1 08J      0.044800
      8 NAW        -2.0740   -0.0680    1.3230 na        1 08J     -0.140000
      9 CAR        -2.8920    0.4720    2.3530 cc        1 08J      0.427800
     10 CAA        -2.3940    1.3450    3.4460 c3        1 08J     -0.128400
     11 NAN        -4.1860    0.1190    2.1630 nd        1 08J     -0.662000
     12 CAJ        -4.2250   -0.6530    1.0070 cd        1 08J      0.322200
     13 CAS        -2.9350   -0.7850    0.4680 cc        1 08J     -0.223900
     14 CAL        -2.4860   -1.4420   -0.7850 c3        1 08J      0.180100
     15 NAM        -1.7750   -0.5710   -1.6820 n2        1 08J     -0.560900
     16 CAO        -0.7280    0.0910   -1.3240 ce        1 08J      0.528500
     17 CAT        -0.0980    0.9960   -2.3240 ca        1 08J     -0.170900
     18 CAG         0.6790    0.4580   -3.3540 ca        1 08J     -0.087000
     19 CAE         1.2730    1.2890   -4.3020 ca        1 08J     -0.147000
     20 CAD         1.0850    2.6700   -4.2370 ca        1 08J     -0.096000
     21 CAF         0.3050    3.2270   -3.2310 ca        1 08J     -0.168000
     22 CAQ        -0.2980    2.3920   -2.2690 ca        1 08J      0.153900
     23 FAB        -1.0650    2.9480   -1.3020 f         1 08J     -0.129900
     24 H1          1.8990    0.1090   -1.0390 ha        1 08J      0.162000
     25 H2          2.0820   -0.1710    3.2800 ha        1 08J      0.155000
     26 H3         -0.3830   -0.2160    3.3880 ha        1 08J      0.154000
     27 H4         -1.4630    1.8830    3.1420 hc        1 08J      0.062367
     28 H5         -3.1760    2.1030    3.7070 hc        1 08J      0.062367
     29 H6         -2.1830    0.7290    4.3560 hc        1 08J      0.062367
     30 H7         -5.1600   -1.0620    0.6250 h4        1 08J      0.047100
     31 H8         -3.4010   -1.7890   -1.3480 h1        1 08J      0.075700
     32 H9         -1.8650   -2.3540   -0.5370 h1        1 08J      0.075700
     33 H10         0.8130   -0.6330   -3.4150 ha        1 08J      0.145000
     34 H11         1.8840    0.8530   -5.1060 ha        1 08J      0.140000
     35 H12         1.5530    3.3250   -4.9880 ha        1 08J      0.140000
     36 H13         0.1430    4.3130   -3.1750 ha        1 08J      0.152000
@<TRIPOS>BOND
     1    1    2 ar  
     2    1    7 ar  
     3    1   16 1   
     4    2    3 ar  
     5    2   24 1   
     6    3    4 1   
     7    3    5 ar  
     8    5    6 ar  
     9    5   25 1   
    10    6    7 ar  
    11    6   26 1   
    12    7    8 1   
    13    8    9 1   
    14    8   13 1   
    15    9   10 1   
    16    9   11 2   
    17   10   27 1   
    18   10   28 1   
    19   10   29 1   
    20   11   12 1   
    21   12   13 2   
    22   12   30 1   
    23   13   14 1   
    24   14   15 1   
    25   14   31 1   
    26   14   32 1   
    27   15   16 2   
    28   16   17 1   
    29   17   18 ar  
    30   17   22 ar  
    31   18   19 ar  
    32   18   33 1   
    33   19   20 ar  
    34   19   34 1   
    35   20   21 ar  
    36   20   35 1   
    37   21   22 ar  
    38   21   36 1   
    39   22   23 1   
@<TRIPOS>SUBSTRUCTURE
     1 08J         1 TEMP              0 ****  ****    0 ROOT
