@<TRIPOS>MOLECULE
08J
   36    39     1     0     0
SMALL
bcc


@<TRIPOS>ATOM
      1 CAU         0.0070    0.3680   -0.4430 ca        1 08J     -0.175900
      2 CAK        -0.9600    1.3800   -0.5070 ca        1 08J     -0.086000
      3 CAP        -0.6240    2.7100   -0.2600 ca        1 08J      0.003400
      4 CLAC       -1.8160    3.9150   -0.3440 cl        1 08J     -0.078400
      5 CAH         0.6950    3.0530    0.0540 ca        1 08J     -0.097000
      6 CAI         1.6670    2.0650    0.1160 ca        1 08J     -0.145000
      7 CAV         1.3460    0.7070   -0.1230 ca        1 08J      0.044800
      8 NAW         2.3580   -0.2660   -0.0540 na        1 08J     -0.140000
      9 CAR         3.4930   -0.2930    0.8010 cc        1 08J      0.427800
     10 CAA         3.7090    0.6400    1.9360 c3        1 08J     -0.128400
     11 NAN         4.3160   -1.3160    0.4650 nd        1 08J     -0.662000
     12 CAJ         3.7230   -1.9670   -0.6130 cd        1 08J      0.322200
     13 CAS         2.5150   -1.3400   -0.9540 cc        1 08J     -0.223900
     14 CAL         1.4990   -1.7120   -1.9710 c3        1 08J      0.180100
     15 NAM         0.1790   -1.9150   -1.4350 n2        1 08J     -0.560900
     16 CAO        -0.4360   -1.0170   -0.7430 ce        1 08J      0.528500
     17 CAT        -1.7810   -1.3520   -0.2030 ca        1 08J     -0.170900
     18 CAG        -2.8900   -1.3560   -1.0540 ca        1 08J     -0.087000
     19 CAE        -4.1570   -1.6720   -0.5670 ca        1 08J     -0.147000
     20 CAD        -4.3270   -2.0000    0.7780 ca        1 08J     -0.096000
     21 CAF        -3.2370   -2.0180    1.6410 ca        1 08J     -0.168000
     22 CAQ        -1.9530   -1.7000    1.1540 ca        1 08J      0.153900
     23 FAB        -0.9000   -1.7330    2.0040 f         1 08J     -0.129900
     24 H1         -2.0010    1.1110   -0.7560 ha        1 08J      0.162000
     25 H2          0.9680    4.1030    0.2450 ha        1 08J      0.155000
     26 H3          2.7070    2.3550    0.3410 ha        1 08J      0.154000
     27 H4          2.7390    1.0430    2.3190 hc        1 08J      0.062367
     28 H5          4.2290    0.1040    2.7700 hc        1 08J      0.062367
     29 H6          4.3570    1.4920    1.6070 hc        1 08J      0.062367
     30 H7          4.1840   -2.8400   -1.0740 h4        1 08J      0.047100
     31 H8          1.4820   -0.9380   -2.7950 h1        1 08J      0.075700
     32 H9          1.8040   -2.6990   -2.4280 h1        1 08J      0.075700
     33 H10        -2.7530   -1.1130   -2.1190 ha        1 08J      0.145000
     34 H11        -5.0210   -1.6680   -1.2470 ha        1 08J      0.140000
     35 H12        -5.3270   -2.2520    1.1610 ha        1 08J      0.140000
     36 H13        -3.3580   -2.2850    2.7010 ha        1 08J      0.152000
@<TRIPOS>BOND
     1    1    2 ar  
     2    1    7 ar  
     3    1   16 1   
     4    2    3 ar  
     5    2   24 1   
     6    3    4 1   
     7    3    5 ar  
     8    5    6 ar  
     9    5   25 1   
    10    6    7 ar  
    11    6   26 1   
    12    7    8 1   
    13    8    9 1   
    14    8   13 1   
    15    9   10 1   
    16    9   11 2   
    17   10   27 1   
    18   10   28 1   
    19   10   29 1   
    20   11   12 1   
    21   12   13 2   
    22   12   30 1   
    23   13   14 1   
    24   14   15 1   
    25   14   31 1   
    26   14   32 1   
    27   15   16 2   
    28   16   17 1   
    29   17   18 ar  
    30   17   22 ar  
    31   18   19 ar  
    32   18   33 1   
    33   19   20 ar  
    34   19   34 1   
    35   20   21 ar  
    36   20   35 1   
    37   21   22 ar  
    38   21   36 1   
    39   22   23 1   
@<TRIPOS>SUBSTRUCTURE
     1 08J         1 TEMP              0 ****  ****    0 ROOT
