@<TRIPOS>MOLECULE
08J
   36    39     1     0     0
SMALL
bcc


@<TRIPOS>ATOM
      1 CAU        -0.0120    0.0350   -0.0240 ca        1 08J     -0.175900
      2 CAK         1.3890    0.0480   -0.0590 ca        1 08J     -0.086000
      3 CAP         2.1360   -0.0190    1.1150 ca        1 08J      0.003400
      4 CLAC        3.8310   -0.0020    1.0430 cl        1 08J     -0.078400
      5 CAH         1.4900   -0.1040    2.3530 ca        1 08J     -0.097000
      6 CAI         0.1040   -0.1240    2.4060 ca        1 08J     -0.145000
      7 CAV        -0.6740   -0.0480    1.2260 ca        1 08J      0.044800
      8 NAW        -2.0760   -0.0740    1.3200 na        1 08J     -0.140000
      9 CAR        -2.8980    0.4640    2.3470 cc        1 08J      0.427800
     10 CAA        -2.4050    1.3400    3.4410 c3        1 08J     -0.128400
     11 NAN        -4.1910    0.1070    2.1550 nd        1 08J     -0.662000
     12 CAJ        -4.2250   -0.6660    0.9990 cd        1 08J      0.322200
     13 CAS        -2.9340   -0.7950    0.4630 cc        1 08J     -0.223900
     14 CAL        -2.4810   -1.4510   -0.7890 c3        1 08J      0.180100
     15 NAM        -1.7710   -0.5790   -1.6850 n2        1 08J     -0.560900
     16 CAO        -0.7260    0.0870   -1.3250 ce        1 08J      0.528500
     17 CAT        -0.0970    0.9930   -2.3250 ca        1 08J     -0.170900
     18 CAG         0.6840    0.4570   -3.3530 ca        1 08J     -0.087000
     19 CAE         1.2770    1.2880   -4.3000 ca        1 08J     -0.147000
     20 CAD         1.0850    2.6690   -4.2370 ca        1 08J     -0.096000
     21 CAF         0.3000    3.2240   -3.2330 ca        1 08J     -0.168000
     22 CAQ        -0.3020    2.3880   -2.2710 ca        1 08J      0.153900
     23 FAB        -1.0730    2.9420   -1.3070 f         1 08J     -0.129900
     24 H1          1.9000    0.1130   -1.0350 ha        1 08J      0.162000
     25 H2          2.0750   -0.1640    3.2840 ha        1 08J      0.155000
     26 H3         -0.3890   -0.2160    3.3880 ha        1 08J      0.154000
     27 H4         -2.1940    0.7250    4.3510 hc        1 08J      0.062367
     28 H5         -3.1900    2.0950    3.7000 hc        1 08J      0.062367
     29 H6         -1.4750    1.8800    3.1380 hc        1 08J      0.062367
     30 H7         -5.1590   -1.0780    0.6160 h4        1 08J      0.047100
     31 H8         -1.8580   -2.3610   -0.5390 h1        1 08J      0.075700
     32 H9         -3.3940   -1.8020   -1.3530 h1        1 08J      0.075700
     33 H10         0.8220   -0.6340   -3.4130 ha        1 08J      0.145000
     34 H11         1.8910    0.8540   -5.1030 ha        1 08J      0.140000
     35 H12         1.5520    3.3240   -4.9870 ha        1 08J      0.140000
     36 H13         0.1340    4.3100   -3.1790 ha        1 08J      0.152000
@<TRIPOS>BOND
     1    1    2 ar  
     2    1    7 ar  
     3    1   16 1   
     4    2    3 ar  
     5    2   24 1   
     6    3    4 1   
     7    3    5 ar  
     8    5    6 ar  
     9    5   25 1   
    10    6    7 ar  
    11    6   26 1   
    12    7    8 1   
    13    8    9 1   
    14    8   13 1   
    15    9   10 1   
    16    9   11 2   
    17   10   27 1   
    18   10   28 1   
    19   10   29 1   
    20   11   12 1   
    21   12   13 2   
    22   12   30 1   
    23   13   14 1   
    24   14   15 1   
    25   14   31 1   
    26   14   32 1   
    27   15   16 2   
    28   16   17 1   
    29   17   18 ar  
    30   17   22 ar  
    31   18   19 ar  
    32   18   33 1   
    33   19   20 ar  
    34   19   34 1   
    35   20   21 ar  
    36   20   35 1   
    37   21   22 ar  
    38   21   36 1   
    39   22   23 1   
@<TRIPOS>SUBSTRUCTURE
     1 08J         1 TEMP              0 ****  ****    0 ROOT
