@<TRIPOS>MOLECULE
08J
   36    29     1     0     0
SMALL
bcc


@<TRIPOS>ATOM
      1 CAU         0.2790    0.0160    0.4740 c1        1 08J     -0.092000
      2 CAK         1.1200    0.8870    1.2160 c2        1 08J     -0.086000
      3 CAP         1.9990    0.3690    2.1550 c1        1 08J     -0.075000
      4 CLAC        3.6340    0.9590    2.3710 cl        1 08J     -0.000000
      5 CAH         2.0610   -1.0250    2.3760 c1        1 08J     -0.126500
      6 CAI         1.2410   -1.8810    1.6530 c1        1 08J     -0.126500
      7 CAV         0.3360   -1.3510    0.6870 c1        1 08J      0.090000
      8 NAW        -0.9350   -1.9460    0.4740 n2        1 08J     -0.128500
      9 CAR        -1.5260   -2.8020    1.3700 c1        1 08J     -0.018000
     10 CAA        -1.7010   -3.7480    2.5700 c2        1 08J     -0.152000
     11 NAN        -2.8340   -2.3810    1.5710 n2        1 08J     -0.128500
     12 CAJ        -3.0410   -1.2890    0.8130 c1        1 08J     -0.135000
     13 CAS        -1.8550   -1.0110    0.1220 c1        1 08J     -0.135000
     14 CAL        -1.9670   -0.8990   -1.4100 c2        1 08J     -0.031000
     15 NAM        -0.6920   -0.4770   -1.8750 n2        1 08J     -0.148000
     16 CAO         0.1170    0.3430   -1.0630 c1        1 08J      0.073000
     17 CAT         0.7070    1.6570   -1.6380 c2        1 08J     -0.087000
     18 CAG         1.4790    1.6240   -2.7750 c2        1 08J     -0.087000
     19 CAE         1.9010    2.8130   -3.3660 c1        1 08J     -0.147000
     20 CAD         1.5430    4.0330   -2.8050 c1        1 08J     -0.126500
     21 CAF         0.7710    4.0660   -1.6670 c1        1 08J     -0.126500
     22 CAQ         0.3490    2.8760   -1.0780 c1        1 08J      0.119000
     23 FAB        -0.4550    2.9060   -0.0350 f         1 08J     -0.095000
     24 H1          1.0020    1.8670    1.1420 ha        1 08J      0.162000
     25 H2          2.6840   -1.3870    3.0410 ha        1 08J      0.150250
     26 H3          1.2860   -2.8900    1.8140 ha        1 08J      0.150250
     27 H4         -2.6350   -4.0920    2.5870 ha        1 08J      0.101667
     28 H5         -1.5150   -3.2530    3.4110 ha        1 08J      0.101667
     29 H6         -1.0740   -4.5030    2.4870 ha        1 08J      0.101667
     30 H7         -3.8920   -0.7690    0.7540 DU        1 08J      0.184000
     31 H8         -2.6760   -0.3020   -1.8230 h4        1 08J      0.115000
     32 H9         -2.2360   -1.7650   -1.7430 h4        1 08J      0.115000
     33 H10         1.7320    0.7610   -3.1720 ha        1 08J      0.145000
     34 H11         2.4260    2.7900   -4.1390 ha        1 08J      0.140000
     35 H12         1.8450    4.8810   -3.2260 ha        1 08J      0.150250
     36 H13         0.5190    4.9230   -1.2720 ha        1 08J      0.150250
@<TRIPOS>BOND
     1    1    2 1   
     2    1    7 1   
     3    2    3 1   
     4    2   24 1   
     5    3    4 1   
     6    5    6 1   
     7    5   25 1   
     8    6   26 1   
     9    8    9 1   
    10    8   13 1   
    11    9   11 1   
    12   10   27 1   
    13   10   28 1   
    14   10   29 1   
    15   11   12 1   
    16   12   13 1   
    17   14   15 1   
    18   14   31 1   
    19   14   32 1   
    20   15   16 1   
    21   16   17 1   
    22   17   18 1   
    23   17   22 1   
    24   18   19 1   
    25   18   33 1   
    26   19   34 1   
    27   20   21 1   
    28   20   35 1   
    29   21   36 1   
@<TRIPOS>SUBSTRUCTURE
     1 08J         1 TEMP              0 ****  ****    0 ROOT
