@<TRIPOS>MOLECULE
08K
   37    40     1     0     0
SMALL
bcc


@<TRIPOS>ATOM
      1 ClA        -0.1130    0.3180    0.0700 cl        1 08K     -0.074400
      2 CAP         1.5780    0.1850    0.0080 ca        1 08K      0.006400
      3 CAJ         2.3180    0.1830    1.1900 ca        1 08K     -0.083000
      4 CAS         3.7150    0.0780    1.1620 ca        1 08K     -0.177500
      5 CAO         4.4200    0.0290    2.4620 cc        1 08K      0.250000
      6 CAQ         3.8200    0.8690    3.5300 ca        1 08K     -0.162500
      7 CAG         3.4340    0.3000    4.7490 ca        1 08K     -0.100500
      8 CAE         2.8800    1.1050    5.7450 ca        1 08K     -0.134000
      9 CAC         2.7210    2.4740    5.5330 ca        1 08K     -0.116000
     10 CAD         3.1160    3.0430    4.3220 ca        1 08K     -0.134000
     11 CAF         3.6660    2.2450    3.3200 ca        1 08K     -0.100500
     12 NAL         5.4720   -0.6750    2.7880 nd        1 08K     -0.248400
     13 NAK         6.0990   -1.5140    1.9130 na        1 08K      0.013200
     14 C23         7.1160   -2.3690    2.5490 c3        1 08K      0.009600
     15 CAT         6.6090   -0.8760    0.7260 cc        1 08K      0.410000
     16 NAV         5.7740   -0.1360   -0.1610 na        1 08K     -0.275800
     17 CAR         6.6530    0.3000   -1.1850 cc        1 08K      0.380800
     18 CAA         6.2790    1.1530   -2.3360 c3        1 08K     -0.122400
     19 NAM         7.9050   -0.1640   -0.8950 nd        1 08K     -0.339000
     20 NAN         7.8920   -0.8510    0.2270 nd        1 08K     -0.351000
     21 CAU         4.3750   -0.0280   -0.0870 ca        1 08K      0.041800
     22 CAI         3.6070   -0.0400   -1.2730 ca        1 08K     -0.141000
     23 CAH         2.2230    0.0710   -1.2260 ca        1 08K     -0.098000
     24 H1          1.8040    0.2650    2.1630 ha        1 08K      0.167000
     25 H2          3.5720   -0.7780    4.9220 ha        1 08K      0.142500
     26 H3          2.5740    0.6550    6.7010 ha        1 08K      0.137000
     27 H4          2.2870    3.1060    6.3220 ha        1 08K      0.135000
     28 H5          2.9970    4.1240    4.1570 ha        1 08K      0.137000
     29 H6          3.9810    2.6950    2.3660 ha        1 08K      0.142500
     30 H7          8.0080   -1.8000    2.9200 h1        1 08K      0.060033
     31 H8          6.6370   -2.9080    3.4070 h1        1 08K      0.060033
     32 H9          7.4400   -3.1130    1.7760 h1        1 08K      0.060033
     33 H10         6.0260    0.5100   -3.2160 hc        1 08K      0.064367
     34 H11         5.4010    1.8000   -2.0900 hc        1 08K      0.064367
     35 H12         7.1430    1.8090   -2.6140 hc        1 08K      0.064367
     36 H13         4.0990   -0.1530   -2.2520 ha        1 08K      0.154000
     37 H14         1.6420    0.0600   -2.1620 ha        1 08K      0.157000
@<TRIPOS>BOND
     1    1    2 1   
     2    2    3 ar  
     3    2   23 ar  
     4    3    4 ar  
     5    3   24 1   
     6    4    5 1   
     7    4   21 ar  
     8    5    6 1   
     9    5   12 2   
    10    6    7 ar  
    11    6   11 ar  
    12    7    8 ar  
    13    7   25 1   
    14    8    9 ar  
    15    8   26 1   
    16    9   10 ar  
    17    9   27 1   
    18   10   11 ar  
    19   10   28 1   
    20   11   29 1   
    21   12   13 1   
    22   13   14 1   
    23   13   15 1   
    24   14   30 1   
    25   14   31 1   
    26   14   32 1   
    27   15   16 1   
    28   15   20 2   
    29   16   17 1   
    30   16   21 1   
    31   17   18 1   
    32   17   19 2   
    33   18   33 1   
    34   18   34 1   
    35   18   35 1   
    36   19   20 1   
    37   21   22 ar  
    38   22   23 ar  
    39   22   36 1   
    40   23   37 1   
@<TRIPOS>SUBSTRUCTURE
     1 08K         1 TEMP              0 ****  ****    0 ROOT
