@<TRIPOS>MOLECULE
08K
   37    40     1     0     0
SMALL
bcc


@<TRIPOS>ATOM
      1 CLA        -0.1180    0.2500    0.0890 cl        1 08K     -0.074400
      2 CAP         1.5740    0.1400    0.0200 ca        1 08K      0.006400
      3 CAJ         2.3190    0.1530    1.1990 ca        1 08K     -0.083000
      4 CAS         3.7170    0.0660    1.1660 ca        1 08K     -0.177500
      5 CAO         4.4280    0.0320    2.4630 cc        1 08K      0.250000
      6 CAQ         3.8210    0.8680    3.5300 ca        1 08K     -0.162500
      7 CAG         3.4480    0.2980    4.7530 ca        1 08K     -0.100500
      8 CAE         2.8870    1.0980    5.7480 ca        1 08K     -0.134000
      9 CAC         2.7070    2.4640    5.5320 ca        1 08K     -0.116000
     10 CAD         3.0890    3.0340    4.3170 ca        1 08K     -0.134000
     11 CAF         3.6460    2.2410    3.3160 ca        1 08K     -0.100500
     12 NAL         5.4910   -0.6560    2.7880 nd        1 08K     -0.248400
     13 NAK         6.1260   -1.4900    1.9130 na        1 08K      0.013200
     14 C23         7.1570   -2.3280    2.5480 c3        1 08K      0.009600
     15 CAT         6.6230   -0.8490    0.7220 cc        1 08K      0.410000
     16 NAV         5.7740   -0.1240   -0.1650 na        1 08K     -0.275800
     17 CAR         6.6430    0.3210   -1.1930 cc        1 08K      0.380800
     18 CAA         6.2520    1.1640   -2.3460 c3        1 08K     -0.122400
     19 NAM         7.9020   -0.1260   -0.9070 nd        1 08K     -0.339000
     20 NAN         7.9030   -0.8080    0.2180 nd        1 08K     -0.351000
     21 CAU         4.3740   -0.0350   -0.0850 ca        1 08K      0.041800
     22 CAI         3.6010   -0.0620   -1.2680 ca        1 08K     -0.141000
     23 CAH         2.2160    0.0300   -1.2160 ca        1 08K     -0.098000
     24 H1          1.8080    0.2310    2.1740 ha        1 08K      0.167000
     25 H2          3.6010   -0.7770    4.9300 ha        1 08K      0.142500
     26 H3          2.5910    0.6480    6.7080 ha        1 08K      0.137000
     27 H4          2.2680    3.0930    6.3200 ha        1 08K      0.135000
     28 H5          2.9550    4.1130    4.1480 ha        1 08K      0.137000
     29 H6          3.9500    2.6910    2.3590 ha        1 08K      0.142500
     30 H7          8.0430   -1.7460    2.9140 h1        1 08K      0.060033
     31 H8          7.4890   -3.0710    1.7770 h1        1 08K      0.060033
     32 H9          6.6890   -2.8700    3.4100 h1        1 08K      0.060033
     33 H10         5.3660    1.8000   -2.0990 hc        1 08K      0.064367
     34 H11         7.1060    1.8300   -2.6300 hc        1 08K      0.064367
     35 H12         6.0050    0.5140   -3.2230 hc        1 08K      0.064367
     36 H13         4.0910   -0.1720   -2.2490 ha        1 08K      0.154000
     37 H14         1.6310    0.0080   -2.1500 ha        1 08K      0.157000
@<TRIPOS>BOND
     1    1    2 1   
     2    2    3 ar  
     3    2   23 ar  
     4    3    4 ar  
     5    3   24 1   
     6    4    5 1   
     7    4   21 ar  
     8    5    6 1   
     9    5   12 2   
    10    6    7 ar  
    11    6   11 ar  
    12    7    8 ar  
    13    7   25 1   
    14    8    9 ar  
    15    8   26 1   
    16    9   10 ar  
    17    9   27 1   
    18   10   11 ar  
    19   10   28 1   
    20   11   29 1   
    21   12   13 1   
    22   13   14 1   
    23   13   15 1   
    24   14   30 1   
    25   14   31 1   
    26   14   32 1   
    27   15   16 1   
    28   15   20 2   
    29   16   17 1   
    30   16   21 1   
    31   17   18 1   
    32   17   19 2   
    33   18   33 1   
    34   18   34 1   
    35   18   35 1   
    36   19   20 1   
    37   21   22 ar  
    38   22   23 ar  
    39   22   36 1   
    40   23   37 1   
@<TRIPOS>SUBSTRUCTURE
     1 08K         1 TEMP              0 ****  ****    0 ROOT
