@<TRIPOS>MOLECULE
08K
   37    31     1     0     0
SMALL
bcc


@<TRIPOS>ATOM
      1 CLA        -2.3260    2.2930   -3.0530 cl        1 08K      0.004000
      2 CAP        -0.7390    1.7980   -2.5160 c2        1 08K     -0.072000
      3 CAJ        -0.6750    1.6800   -1.1260 c1        1 08K     -0.083000
      4 CAS        -0.3760    0.4420   -0.5410 c1        1 08K     -0.070000
      5 CAO         0.5290    0.4180    0.7130 c1        1 08K      0.035000
      6 CAQ         1.1960    1.7080    1.2010 c1        1 08K     -0.055000
      7 CAG         2.5080    1.9830    0.8480 c1        1 08K     -0.119500
      8 CAE         3.1540    3.0900    1.3860 c1        1 08K     -0.119500
      9 CAC         2.4850    3.9200    2.2770 c1        1 08K     -0.119500
     10 CAD         1.1730    3.6450    2.6300 c1        1 08K     -0.119500
     11 CAF         0.5270    2.5390    2.0930 c1        1 08K     -0.107000
     12 NAL         0.7400   -0.8000    1.4140 n1        1 08K     -0.069000
     13 NAK        -0.2790   -1.7200    1.5180 n2        1 08K     -0.122000
     14 C23        -0.4560   -2.6170    2.6370 c3        1 08K     -0.089000
     15 CAT        -1.2260   -1.5670    0.4350 c2        1 08K     -0.005000
     16 NAV        -0.6540   -1.8400   -0.7460 n2        1 08K     -0.144000
     17 CAR        -1.4880   -2.6670   -1.4360 c1        1 08K     -0.065000
     18 CAA        -1.4260   -3.8260   -2.4050 c2        1 08K     -0.146000
     19 NAM        -2.5710   -2.8970   -0.6700 n2        1 08K     -0.076000
     20 NAN        -2.4160   -2.2210    0.4870 n2        1 08K     -0.088000
     21 CAU        -0.1440   -0.6670   -1.3440 c1        1 08K      0.087000
     22 CAI        -0.2090   -0.5460   -2.7440 c2        1 08K     -0.141000
     23 CAH        -0.5060    0.6860   -3.3230 c2        1 08K     -0.098000
     24 H1         -0.8340    2.4570   -0.5640 ha        1 08K      0.167000
     25 H2          2.9790    1.3990    0.2210 ha        1 08K      0.138750
     26 H3          4.0790    3.2840    1.1370 ha        1 08K      0.138750
     27 H4          2.9400    4.6990    2.6550 ha        1 08K      0.138750
     28 H5          0.7040    4.2290    3.2560 ha        1 08K      0.138750
     29 H6         -0.3980    2.3450    2.3420 ha        1 08K      0.139000
     30 H7          0.3290   -2.5660    3.2260 h1        1 08K      0.099333
     31 H8         -1.2600   -2.3590    3.1390 h1        1 08K      0.099333
     32 H9         -0.5590   -3.5400    2.3050 h1        1 08K      0.099333
     33 H10        -0.4900   -4.0870   -2.5420 ha        1 08K      0.103667
     34 H11        -1.9290   -4.5880   -2.0380 ha        1 08K      0.103667
     35 H12        -1.8190   -3.5570   -3.2620 ha        1 08K      0.103667
     36 H13        -0.0460   -1.3260   -3.3100 ha        1 08K      0.154000
     37 H14        -0.5200    0.7780   -4.2990 ha        1 08K      0.157000
@<TRIPOS>BOND
     1    1    2 1   
     2    2    3 1   
     3    2   23 1   
     4    3   24 1   
     5    4   21 1   
     6    5   12 1   
     7    6   11 1   
     8    7    8 1   
     9    7   25 1   
    10    8   26 1   
    11    9   10 1   
    12    9   27 1   
    13   10   28 1   
    14   11   29 1   
    15   13   14 1   
    16   13   15 1   
    17   14   30 1   
    18   14   31 1   
    19   14   32 1   
    20   15   16 1   
    21   15   20 1   
    22   16   17 1   
    23   17   19 1   
    24   18   33 1   
    25   18   34 1   
    26   18   35 1   
    27   19   20 1   
    28   21   22 1   
    29   22   23 1   
    30   22   36 1   
    31   23   37 1   
@<TRIPOS>SUBSTRUCTURE
     1 08K         1 TEMP              0 ****  ****    0 ROOT
