@<TRIPOS>MOLECULE
08K
   37    40     1     0     0
SMALL
bcc


@<TRIPOS>ATOM
      1 CLA        -2.3040    3.5130   -1.0770 cl        1 08K     -0.071400
      2 CAP        -1.0100    2.5040   -0.6470 ca        1 08K      0.004400
      3 CAJ        -1.1920    1.1220   -0.6000 ca        1 08K     -0.080000
      4 CAS        -0.1370    0.2690   -0.2470 ca        1 08K     -0.199500
      5 CAO        -0.4090   -1.1860   -0.2700 cc        1 08K      0.236000
      6 CAQ        -1.7720   -1.5650    0.1850 ca        1 08K     -0.167500
      7 CAG        -2.5920   -2.3650   -0.6180 ca        1 08K     -0.097000
      8 CAE        -3.8640   -2.7230   -0.1710 ca        1 08K     -0.134000
      9 CAC        -4.3140   -2.2970    1.0790 ca        1 08K     -0.113000
     10 CAD        -3.4900   -1.5100    1.8850 ca        1 08K     -0.134000
     11 CAF        -2.2210   -1.1430    1.4420 ca        1 08K     -0.097000
     12 NAL         0.3790   -2.1550   -0.6570 nd        1 08K     -0.209400
     13 NAK         1.6870   -2.0610   -0.9950 na        1 08K      0.046200
     14 C23         2.0130   -1.8390   -2.4100 c3        1 08K     -0.023400
     15 CAT         2.5330   -1.2750   -0.1320 cc        1 08K      0.384000
     16 NAV         2.2170    0.0110    0.4110 na        1 08K     -0.295800
     17 CAR         3.2930    0.2970    1.2840 cc        1 08K      0.384800
     18 CAA         3.4160    1.4940    2.1470 c3        1 08K     -0.124400
     19 NAM         4.1750   -0.7450    1.2210 nd        1 08K     -0.348000
     20 NAN         3.7380   -1.6720    0.3950 nd        1 08K     -0.301000
     21 CAU         1.1280    0.8250    0.0640 ca        1 08K      0.034800
     22 CAI         1.2940    2.2280    0.0020 ca        1 08K     -0.142000
     23 CAH         0.2370    3.0580   -0.3460 ca        1 08K     -0.095000
     24 H1         -2.1780    0.6870   -0.8400 ha        1 08K      0.169000
     25 H2         -2.2330   -2.7180   -1.5970 ha        1 08K      0.143000
     26 H3         -4.5090   -3.3500   -0.8040 ha        1 08K      0.137500
     27 H4         -5.3150   -2.5850    1.4310 ha        1 08K      0.136000
     28 H5         -3.8400   -1.1810    2.8740 ha        1 08K      0.137500
     29 H6         -1.5700   -0.5270    2.0810 ha        1 08K      0.143000
     30 H7          1.4880   -2.6210   -3.0190 h1        1 08K      0.057700
     31 H8          1.7200   -0.8220   -2.7820 h1        1 08K      0.057700
     32 H9          3.1210   -1.9720   -2.5190 h1        1 08K      0.057700
     33 H10         3.9650    1.2260    3.0860 hc        1 08K      0.064700
     34 H11         3.9980    2.2880    1.6130 hc        1 08K      0.064700
     35 H12         2.4110    1.8990    2.4220 hc        1 08K      0.064700
     36 H13         2.2770    2.6790    0.2150 ha        1 08K      0.155000
     37 H14         0.3890    4.1480   -0.3890 ha        1 08K      0.158000
@<TRIPOS>BOND
     1    1    2 1   
     2    2    3 ar  
     3    2   23 ar  
     4    3    4 ar  
     5    3   24 1   
     6    4    5 1   
     7    4   21 ar  
     8    5    6 1   
     9    5   12 2   
    10    6    7 ar  
    11    6   11 ar  
    12    7    8 ar  
    13    7   25 1   
    14    8    9 ar  
    15    8   26 1   
    16    9   10 ar  
    17    9   27 1   
    18   10   11 ar  
    19   10   28 1   
    20   11   29 1   
    21   12   13 1   
    22   13   14 1   
    23   13   15 1   
    24   14   30 1   
    25   14   31 1   
    26   14   32 1   
    27   15   16 1   
    28   15   20 2   
    29   16   17 1   
    30   16   21 1   
    31   17   18 1   
    32   17   19 2   
    33   18   33 1   
    34   18   34 1   
    35   18   35 1   
    36   19   20 1   
    37   21   22 ar  
    38   22   23 ar  
    39   22   36 1   
    40   23   37 1   
@<TRIPOS>SUBSTRUCTURE
     1 08K         1 TEMP              0 ****  ****    0 ROOT
