@<TRIPOS>MOLECULE
08K
   37    40     1     0     0
SMALL
bcc


@<TRIPOS>ATOM
      1 CLA        -0.1130    0.3020    0.0710 cl        1 08K     -0.074400
      2 CAP         1.5780    0.1750    0.0090 ca        1 08K      0.006400
      3 CAJ         2.3190    0.1760    1.1900 ca        1 08K     -0.083000
      4 CAS         3.7160    0.0750    1.1620 ca        1 08K     -0.177500
      5 CAO         4.4210    0.0290    2.4620 cc        1 08K      0.250000
      6 CAQ         3.8180    0.8670    3.5300 ca        1 08K     -0.162500
      7 CAG         3.4340    0.2960    4.7490 ca        1 08K     -0.100500
      8 CAE         2.8780    1.0970    5.7450 ca        1 08K     -0.134000
      9 CAC         2.7140    2.4660    5.5340 ca        1 08K     -0.116000
     10 CAD         3.1070    3.0370    4.3230 ca        1 08K     -0.134000
     11 CAF         3.6590    2.2420    3.3210 ca        1 08K     -0.100500
     12 NAL         5.4760   -0.6710    2.7880 nd        1 08K     -0.248400
     13 NAK         6.1060   -1.5080    1.9120 na        1 08K      0.013200
     14 C23         7.1260   -2.3590    2.5470 c3        1 08K      0.009600
     15 CAT         6.6140   -0.8680    0.7250 cc        1 08K      0.410000
     16 NAV         5.7760   -0.1310   -0.1620 na        1 08K     -0.275800
     17 CAR         6.6530    0.3090   -1.1850 cc        1 08K      0.380800
     18 CAA         6.2750    1.1610   -2.3360 c3        1 08K     -0.122400
     19 NAM         7.9060   -0.1510   -0.8960 nd        1 08K     -0.339000
     20 NAN         7.8960   -0.8380    0.2260 nd        1 08K     -0.351000
     21 CAU         4.3760   -0.0280   -0.0870 ca        1 08K      0.041800
     22 CAI         3.6070   -0.0420   -1.2720 ca        1 08K     -0.141000
     23 CAH         2.2240    0.0640   -1.2260 ca        1 08K     -0.098000
     24 H1          1.8050    0.2550    2.1640 ha        1 08K      0.167000
     25 H2          3.5760   -0.7820    4.9220 ha        1 08K      0.142500
     26 H3          2.5730    0.6470    6.7010 ha        1 08K      0.137000
     27 H4          2.2780    3.0960    6.3230 ha        1 08K      0.135000
     28 H5          2.9840    4.1180    4.1580 ha        1 08K      0.137000
     29 H6          3.9730    2.6930    2.3680 ha        1 08K      0.142500
     30 H7          8.0170   -1.7880    2.9190 h1        1 08K      0.060033
     31 H8          6.6500   -2.9000    3.4060 h1        1 08K      0.060033
     32 H9          7.4530   -3.1030    1.7750 h1        1 08K      0.060033
     33 H10         6.0240    0.5160   -3.2170 hc        1 08K      0.064367
     34 H11         5.3950    1.8040   -2.0900 hc        1 08K      0.064367
     35 H12         7.1370    1.8190   -2.6140 hc        1 08K      0.064367
     36 H13         4.1000   -0.1540   -2.2520 ha        1 08K      0.154000
     37 H14         1.6420    0.0510   -2.1610 ha        1 08K      0.157000
@<TRIPOS>BOND
     1    1    2 1   
     2    2    3 ar  
     3    2   23 ar  
     4    3    4 ar  
     5    3   24 1   
     6    4    5 1   
     7    4   21 ar  
     8    5    6 1   
     9    5   12 2   
    10    6    7 ar  
    11    6   11 ar  
    12    7    8 ar  
    13    7   25 1   
    14    8    9 ar  
    15    8   26 1   
    16    9   10 ar  
    17    9   27 1   
    18   10   11 ar  
    19   10   28 1   
    20   11   29 1   
    21   12   13 1   
    22   13   14 1   
    23   13   15 1   
    24   14   30 1   
    25   14   31 1   
    26   14   32 1   
    27   15   16 1   
    28   15   20 2   
    29   16   17 1   
    30   16   21 1   
    31   17   18 1   
    32   17   19 2   
    33   18   33 1   
    34   18   34 1   
    35   18   35 1   
    36   19   20 1   
    37   21   22 ar  
    38   22   23 ar  
    39   22   36 1   
    40   23   37 1   
@<TRIPOS>SUBSTRUCTURE
     1 08K         1 TEMP              0 ****  ****    0 ROOT
