@<TRIPOS>MOLECULE
08M
   30    30     1     0     0
SMALL
bcc


@<TRIPOS>ATOM
      1 C21         5.3070   -0.0390    0.3110 c         1 08M      0.888600
      2 O22         6.2910    0.2130   -0.4400 o         1 08M     -0.841800
      3 C23         3.9640    0.7230    0.0430 c3        1 08M      0.016500
      4 N24         3.9960    1.6150   -1.1090 n3        1 08M     -0.893800
      5 C31         2.8360   -0.3070   -0.0200 c3        1 08M     -0.063400
      6 C32         1.4720    0.3420    0.0760 c3        1 08M     -0.092400
      7 C33         0.3840   -0.7320    0.1060 c3        1 08M      0.078000
      8 N34        -0.9430   -0.1940    0.3040 n         1 08M     -0.531900
      9 C35        -2.0490   -0.7610   -0.2590 c         1 08M      0.563600
     10 O36        -2.0100   -1.8290   -0.9110 o         1 08M     -0.624100
     11 C37        -3.3930   -0.1010   -0.0500 ca        1 08M      0.250500
     12 N38        -3.5060    1.1550    0.4470 nb        1 08M     -0.618000
     13 C39        -4.7560    1.6380    0.5750 ca        1 08M      0.272900
     14 C40        -5.8990    0.8790    0.2140 ca        1 08M      0.286900
     15 N41        -5.7940   -0.3710   -0.2820 nb        1 08M     -0.642000
     16 C42        -4.5460   -0.8590   -0.4150 ca        1 08M      0.329900
     17 H18         3.7920    1.3780    0.9470 h1        1 08M      0.039700
     18 H19         4.8810    2.0950   -1.0860 hn        1 08M      0.331800
     19 H24         2.9060   -0.9020   -0.9680 hc        1 08M      0.051700
     20 H25         2.9900   -1.0170    0.8370 hc        1 08M      0.051700
     21 H26         1.4250    0.9660    1.0070 hc        1 08M      0.043700
     22 H27         1.3110    1.0270   -0.7960 hc        1 08M      0.043700
     23 H28         0.4040   -1.3180   -0.8570 h1        1 08M      0.057200
     24 H29         0.5980   -1.4530    0.9470 h1        1 08M      0.057200
     25 H30        -1.0060    0.6940    0.7460 hn        1 08M      0.326500
     26 H31        -4.8480    2.6610    0.9770 h4        1 08M      0.032100
     27 H32        -6.9180    1.2870    0.3250 h4        1 08M      0.029100
     28 H33        -4.4310   -1.8790   -0.8270 h4        1 08M      0.064100
     29 H2          4.0040    1.0560   -1.9440 hn        1 08M      0.331800
     30 OXT         5.3330   -0.8460    1.2810 o         1 08M     -0.841800
@<TRIPOS>BOND
     1    1    2 1   
     2    1    3 1   
     3    1   30 1   
     4    3    4 1   
     5    3    5 1   
     6    3   17 1   
     7    4   18 1   
     8    4   29 1   
     9    5    6 1   
    10    5   19 1   
    11    5   20 1   
    12    6    7 1   
    13    6   21 1   
    14    6   22 1   
    15    7    8 1   
    16    7   23 1   
    17    7   24 1   
    18    8    9 1   
    19    8   25 1   
    20    9   10 2   
    21    9   11 1   
    22   11   12 ar  
    23   11   16 ar  
    24   12   13 ar  
    25   13   14 ar  
    26   13   26 1   
    27   14   15 ar  
    28   14   27 1   
    29   15   16 ar  
    30   16   28 1   
@<TRIPOS>SUBSTRUCTURE
     1 08M         1 TEMP              0 ****  ****    0 ROOT
