@<TRIPOS>MOLECULE
08M
   30    26     1     0     0
SMALL
bcc


@<TRIPOS>ATOM
      1 C21         1.7610   -2.1200   -4.0110 c1        1 08M      0.775000
      2 O22         2.4840   -1.4510   -4.7350 o         1 08M     -0.810000
      3 C23         2.0200   -2.1760   -2.5190 c2        1 08M      0.128200
      4 N24         3.3030   -2.7200   -2.2770 nh        1 08M     -0.480100
      5 C31         1.9490   -0.7890   -1.9450 c3        1 08M     -0.138700
      6 C32         1.0610   -0.8040   -0.7060 c3        1 08M     -0.092400
      7 C33         0.6350    0.5800   -0.3890 c3        1 08M      0.078000
      8 N34        -0.2980    0.5670    0.7490 n         1 08M     -0.531900
      9 C35        -0.7820    1.8440    1.3210 c         1 08M      0.622300
     10 O36        -0.1990    2.9140    1.0410 o         1 08M     -0.624100
     11 C37        -1.9470    1.8450    2.3220 cg        1 08M     -0.071200
     12 N38        -1.7390    1.4420    3.6100 n1        1 08M     -0.429800
     13 C39        -2.7280    1.4940    4.4860 c1        1 08M      0.263300
     14 C40        -3.9790    1.9590    4.0960 c1        1 08M      0.263300
     15 N41        -4.1820    2.3580    2.8190 n1        1 08M     -0.429800
     16 C42        -3.1850    2.3050    1.9350 c1        1 08M     -0.012500
     17 H18         1.3140   -2.7610   -2.0770 h4        1 08M     -0.050200
     18 H19         3.2220   -3.5190   -1.9650 hn        1 08M      0.176700
     19 H24         2.8880   -0.4760   -1.6880 hc        1 08M      0.051700
     20 H25         1.5700   -0.1740   -2.6150 hc        1 08M      0.051700
     21 H26         1.5850   -1.1840    0.0790 hc        1 08M      0.043700
     22 H27         0.2580   -1.3700   -0.8770 hc        1 08M      0.043700
     23 H28         0.1920    0.9700   -1.1630 h1        1 08M      0.057200
     24 H29         1.4010    1.1000   -0.1680 h1        1 08M      0.057200
     25 H30        -0.5970   -0.2140    1.0750 hn        1 08M      0.326500
     26 H31        -2.5770    1.2000    5.4190 ha        1 08M      0.110000
     27 H32        -4.6420    2.1080    4.7390 ha        1 08M      0.110000
     28 H33        -3.3360    2.5930    1.0090 ha        1 08M      0.143500
     29 H2          3.7700   -2.7460   -3.0510 hn        1 08M      0.176700
     30 OXT         0.7800   -2.7770   -4.5130 o         1 08M     -0.810000
@<TRIPOS>BOND
     1    1    2 2   
     2    1   30 2   
     3    3    4 2   
     4    3    5 1   
     5    3   17 1   
     6    4   18 1   
     7    4   29 1   
     8    5    6 1   
     9    5   19 1   
    10    5   20 1   
    11    6    7 1   
    12    6   21 1   
    13    6   22 1   
    14    7    8 1   
    15    7   23 1   
    16    7   24 1   
    17    8    9 1   
    18    8   25 1   
    19    9   10 2   
    20    9   11 1   
    21   11   16 3   
    22   12   13 3   
    23   13   26 1   
    24   14   15 3   
    25   14   27 1   
    26   16   28 1   
@<TRIPOS>SUBSTRUCTURE
     1 08M         1 TEMP              0 ****  ****    0 ROOT
