@<TRIPOS>MOLECULE
08P
   17    16     1     0     0
SMALL
bcc


@<TRIPOS>ATOM
      1 OAY        -3.5490    0.6110   -0.0740 o         1 08P     -0.831300
      2 CAS        -2.7670   -0.3400    0.1930 c         1 08P      0.875600
      3 OAX        -3.0460   -1.3130    0.9450 o         1 08P     -0.831300
      4 CAR        -1.3600   -0.3220   -0.4680 c         1 08P      0.555100
      5 OAW        -1.1800   -0.7340   -1.6370 o         1 08P     -0.687100
      6 N          -0.3150    0.1360    0.3090 n         1 08P     -0.545900
      7 CA          1.0410    0.2970   -0.1400 c3        1 08P     -0.011300
      8 C           1.6780    1.6690    0.3020 c         1 08P      0.906600
      9 O           1.3490    2.1720    1.4120 o         1 08P     -0.848300
     10 OXT         2.5410    2.1710   -0.4740 o         1 08P     -0.848300
     11 CB          2.0060   -0.7630    0.4110 c3        1 08P      0.039700
     12 S           2.0230   -2.2400   -0.5900 sh        1 08P     -0.405900
     13 H          -0.5320    0.6030    1.1600 hn        1 08P      0.315500
     14 HA          1.0620    0.2490   -1.2670 h1        1 08P      0.079700
     15 HB2         3.0360   -0.3300    0.3990 h1        1 08P      0.051200
     16 HB3         1.7440   -1.0340    1.4600 h1        1 08P      0.051200
     17 H3          3.0660   -2.8220   -0.0360 hs        1 08P      0.133800
@<TRIPOS>BOND
     1    1    2 1   
     2    2    3 1   
     3    2    4 1   
     4    4    5 2   
     5    4    6 1   
     6    6    7 1   
     7    6   13 1   
     8    7    8 1   
     9    7   11 1   
    10    7   14 1   
    11    8    9 1   
    12    8   10 1   
    13   11   12 1   
    14   11   15 1   
    15   11   16 1   
    16   12   17 1   
@<TRIPOS>SUBSTRUCTURE
     1 08P         1 TEMP              0 ****  ****    0 ROOT
