@<TRIPOS>MOLECULE
08P
   17    15     1     0     0
SMALL
bcc


@<TRIPOS>ATOM
      1 OAY        -2.2210    1.1840    3.1030 o         1 08P     -0.797500
      2 CAS        -0.9830    1.1200    2.8870 c1        1 08P      0.814000
      3 OAX        -0.1810    0.9950    3.8490 o         1 08P     -0.797500
      4 CAR        -0.4580    1.1910    1.4690 c1        1 08P      0.475500
      5 OAW        -0.1600    2.2640    0.9850 o         1 08P     -0.690500
      6 N          -0.3190    0.0040    0.7050 n3        1 08P     -0.384400
      7 CA          0.1590    0.0720   -0.6310 c3        1 08P     -0.073000
      8 C           1.6710    0.1060   -0.6240 c         1 08P      0.902600
      9 O           2.2850    0.9460   -1.3320 o         1 08P     -0.849800
     10 OXT         2.3150   -0.7030    0.0940 o         1 08P     -0.849800
     11 CB         -0.3150   -1.1420   -1.3980 c3        1 08P      0.055700
     12 S           0.4310   -1.1520   -3.0070 sh        1 08P     -0.586900
     13 H          -0.5440   -0.8010    1.0680 hn        1 08P      0.284700
     14 HA         -0.1830    0.8820   -1.0590 h1        1 08P      0.058700
     15 HB2        -1.2880   -1.1100   -1.4900 h1        1 08P      0.063700
     16 HB3        -0.0590   -1.9530   -0.9150 h1        1 08P      0.063700
     17 H3         -0.1500   -1.9020   -3.7040 hs        1 08P      0.310800
@<TRIPOS>BOND
     1    1    2 2   
     2    2    3 2   
     3    4    5 2   
     4    4    6 2   
     5    6    7 1   
     6    6   13 1   
     7    7    8 1   
     8    7   11 1   
     9    7   14 1   
    10    8    9 1   
    11    8   10 1   
    12   11   12 1   
    13   11   15 1   
    14   11   16 1   
    15   12   17 1   
@<TRIPOS>SUBSTRUCTURE
     1 08P         1 TEMP              0 ****  ****    0 ROOT
