@<TRIPOS>MOLECULE
08Q
   44    45     1     0     0
SMALL
bcc


@<TRIPOS>ATOM
      1 P          -0.5300    0.1010    0.4140 p5        1 08Q      1.294700
      2 OP1         0.8090    0.2370    0.9920 o         1 08Q     -0.735000
      3 C8'        -0.3060   -3.5420    0.5390 c3        1 08Q     -0.035300
      4 C7'         0.4750   -2.3860   -0.0680 c3        1 08Q      0.089800
      5 C5'        -2.7190    0.0670    1.8320 c3        1 08Q      0.171400
      6 O5'        -1.5340   -0.6050    1.4960 os        1 08Q     -0.585200
      7 C4'        -2.6780    0.4700    3.3090 c3        1 08Q      0.106100
      8 O4'        -2.0020    1.7380    3.3940 os        1 08Q     -0.417600
      9 C3'        -4.0850    0.6680    3.9100 c3        1 08Q      0.118100
     10 O3'        -4.2820   -0.3780    4.8450 oh        1 08Q     -0.590800
     11 C2'        -4.0600    2.0510    4.5650 c3        1 08Q     -0.148400
     12 C1'        -2.6150    2.5700    4.3810 c3        1 08Q      0.327500
     13 N1         -1.8190    2.5830    5.6150 n         1 08Q     -0.399000
     14 C2         -2.2640    3.4180    6.6720 c         1 08Q      0.807500
     15 O2         -3.3220    4.0800    6.5710 o         1 08Q     -0.659500
     16 N3         -1.4940    3.4790    7.8400 n         1 08Q     -0.583500
     17 C4         -0.2890    2.7680    8.0050 c         1 08Q      0.717700
     18 N4         -0.3610   -1.3570   -0.7050 n4        1 08Q     -0.711100
     19 O4          0.3250    2.8910    9.0780 o         1 08Q     -0.612500
     20 C5          0.1350    1.9360    6.8670 cc        1 08Q     -0.263400
     21 C7          1.3980    1.1860    7.0100 c3        1 08Q     -0.028900
     22 C6         -0.6300    1.8840    5.7390 cd        1 08Q      0.053600
     23 S           0.7970   -4.7560    1.1730 sh        1 08Q     -0.326900
     24 OP3        -1.3140    0.9960   -0.4460 o         1 08Q     -0.735000
     25 H1         -0.9090   -4.0730   -0.2400 h1        1 08Q      0.093700
     26 H2         -1.0080   -3.1780    1.3320 h1        1 08Q      0.093700
     27 H3          1.2020   -2.8080   -0.8230 hx        1 08Q      0.112200
     28 H4          1.0860   -1.8670    0.7380 hx        1 08Q      0.112200
     29 H5         -2.8630    0.9670    1.1720 h1        1 08Q      0.068200
     30 H6         -3.5680   -0.6610    1.6920 h1        1 08Q      0.068200
     31 H7         -2.0910   -0.2800    3.9050 h1        1 08Q      0.094700
     32 H8         -4.8820    0.6140    3.1190 h1        1 08Q      0.052700
     33 H9         -5.1180   -0.2020    5.2930 ho        1 08Q      0.411000
     34 H10        -4.3620    2.0050    5.6410 hc        1 08Q      0.085700
     35 H11        -4.7560    2.7530    4.0440 hc        1 08Q      0.085700
     36 H12        -2.5940    3.6180    3.9550 h2        1 08Q      0.103700
     37 H13        -1.8230    4.0730    8.5700 hn        1 08Q      0.351500
     38 H14        -1.2770   -1.7270   -0.9290 hn        1 08Q      0.428800
     39 H15         2.1990    1.8580    7.4100 hc        1 08Q      0.051367
     40 H16         1.7330    0.7680    6.0290 hc        1 08Q      0.051367
     41 H17         1.2630    0.3440    7.7340 hc        1 08Q      0.051367
     42 H18        -0.3340    1.2820    4.8560 h4        1 08Q      0.189000
     43 H19         1.1960   -4.1440    2.2780 hs        1 08Q      0.214800
     44 H42         0.0650   -1.0510   -1.5730 hn        1 08Q      0.428800
@<TRIPOS>BOND
     1    1    2 1   
     2    1    6 1   
     3    1   18 1   
     4    1   24 1   
     5    3    4 1   
     6    3   23 1   
     7    3   25 1   
     8    3   26 1   
     9    4   18 1   
    10    4   27 1   
    11    4   28 1   
    12    5    6 1   
    13    5    7 1   
    14    5   29 1   
    15    5   30 1   
    16    7    8 1   
    17    7    9 1   
    18    7   31 1   
    19    8   12 1   
    20    9   10 1   
    21    9   11 1   
    22    9   32 1   
    23   10   33 1   
    24   11   12 1   
    25   11   34 1   
    26   11   35 1   
    27   12   13 1   
    28   12   36 1   
    29   13   14 1   
    30   13   22 1   
    31   14   15 2   
    32   14   16 1   
    33   16   17 1   
    34   16   37 1   
    35   17   19 2   
    36   17   20 1   
    37   18   38 1   
    38   18   44 1   
    39   20   21 1   
    40   20   22 2   
    41   21   39 1   
    42   21   40 1   
    43   21   41 1   
    44   22   42 1   
    45   23   43 1   
@<TRIPOS>SUBSTRUCTURE
     1 08Q         1 TEMP              0 ****  ****    0 ROOT
