@<TRIPOS>MOLECULE
08Q
   44    45     1     0     0
SMALL
bcc


@<TRIPOS>ATOM
      1 P          -0.5200    0.1000    0.4150 p5        1 08Q      1.294700
      2 OP1         0.8180    0.2270    1.0000 o         1 08Q     -0.735000
      3 C8'        -0.3290   -3.5440    0.5330 c3        1 08Q     -0.035300
      4 C7'         0.4670   -2.3930   -0.0650 c3        1 08Q      0.089800
      5 C5'        -2.7150    0.0770    1.8250 c3        1 08Q      0.171400
      6 O5'        -1.5330   -0.6010    1.4910 os        1 08Q     -0.585200
      7 C4'        -2.6760    0.4770    3.3030 c3        1 08Q      0.106100
      8 O4'        -1.9920    1.7410    3.3940 os        1 08Q     -0.417600
      9 C3'        -4.0840    0.6820    3.9000 c3        1 08Q      0.118100
     10 O3'        -4.2910   -0.3660    4.8300 oh        1 08Q     -0.590800
     11 C2'        -4.0520    2.0630    4.5590 c3        1 08Q     -0.148400
     12 C1'        -2.6040    2.5740    4.3810 c3        1 08Q      0.327500
     13 N1         -1.8110    2.5790    5.6170 n         1 08Q     -0.399000
     14 C2         -2.2550    3.4130    6.6750 c         1 08Q      0.807500
     15 O2         -3.3080    4.0820    6.5730 o         1 08Q     -0.659500
     16 N3         -1.4870    3.4670    7.8450 n         1 08Q     -0.583500
     17 C4         -0.2870    2.7490    8.0110 c         1 08Q      0.717700
     18 N4         -0.3540   -1.3560   -0.7060 n4        1 08Q     -0.711100
     19 O4          0.3250    2.8650    9.0860 o         1 08Q     -0.612500
     20 C5          0.1360    1.9180    6.8720 cc        1 08Q     -0.263400
     21 C7          1.3950    1.1600    7.0160 c3        1 08Q     -0.028900
     22 C6         -0.6260    1.8730    5.7420 cd        1 08Q      0.053600
     23 S           0.7590   -4.7700    1.1730 sh        1 08Q     -0.326900
     24 OP3        -1.2940    1.0020   -0.4460 o         1 08Q     -0.735000
     25 H1         -1.0340   -3.1770    1.3210 h1        1 08Q      0.093700
     26 H2         -0.9300   -4.0680   -0.2530 h1        1 08Q      0.093700
     27 H3          1.0760   -1.8820    0.7480 hx        1 08Q      0.111700
     28 H4          1.1970   -2.8190   -0.8140 hx        1 08Q      0.111700
     29 H5         -2.8500    0.9800    1.1660 h1        1 08Q      0.068200
     30 H6         -3.5670   -0.6450    1.6800 h1        1 08Q      0.068200
     31 H7         -2.0950   -0.2780    3.9000 h1        1 08Q      0.094700
     32 H8         -4.8780    0.6360    3.1050 h1        1 08Q      0.052700
     33 H9         -5.1280   -0.1850    5.2770 ho        1 08Q      0.411000
     34 H10        -4.3570    2.0160    5.6340 hc        1 08Q      0.085700
     35 H11        -4.7430    2.7710    4.0380 hc        1 08Q      0.085700
     36 H12        -2.5750    3.6230    3.9580 h2        1 08Q      0.103700
     37 H13        -1.8150    4.0600    8.5760 hn        1 08Q      0.351500
     38 H14         0.0820   -1.0510   -1.5690 hn        1 08Q      0.428800
     39 H15         1.7290    0.7410    6.0360 hc        1 08Q      0.051367
     40 H16         2.1980    1.8270    7.4190 hc        1 08Q      0.051367
     41 H17         1.2540    0.3180    7.7400 hc        1 08Q      0.051367
     42 H18        -0.3310    1.2710    4.8580 h4        1 08Q      0.189000
     43 H19         1.1520   -4.1650    2.2830 hs        1 08Q      0.214800
     44 H42        -1.2720   -1.7180   -0.9390 hn        1 08Q      0.428800
@<TRIPOS>BOND
     1    1    2 1   
     2    1    6 1   
     3    1   18 1   
     4    1   24 1   
     5    3    4 1   
     6    3   23 1   
     7    3   25 1   
     8    3   26 1   
     9    4   18 1   
    10    4   27 1   
    11    4   28 1   
    12    5    6 1   
    13    5    7 1   
    14    5   29 1   
    15    5   30 1   
    16    7    8 1   
    17    7    9 1   
    18    7   31 1   
    19    8   12 1   
    20    9   10 1   
    21    9   11 1   
    22    9   32 1   
    23   10   33 1   
    24   11   12 1   
    25   11   34 1   
    26   11   35 1   
    27   12   13 1   
    28   12   36 1   
    29   13   14 1   
    30   13   22 1   
    31   14   15 2   
    32   14   16 1   
    33   16   17 1   
    34   16   37 1   
    35   17   19 2   
    36   17   20 1   
    37   18   38 1   
    38   18   44 1   
    39   20   21 1   
    40   20   22 2   
    41   21   39 1   
    42   21   40 1   
    43   21   41 1   
    44   22   42 1   
    45   23   43 1   
@<TRIPOS>SUBSTRUCTURE
     1 08Q         1 TEMP              0 ****  ****    0 ROOT
