@<TRIPOS>MOLECULE
08Q
   43    41     1     0     0
SMALL
bcc


@<TRIPOS>ATOM
      1 P           0.4550    0.0810   -3.6660 p3        1 08Q      2.610000
      2 OP1         1.6240   -0.8540   -3.7760 o         1 08Q     -1.180000
      3 C8'         1.0380    2.8120   -6.3410 c3        1 08Q     -0.270000
      4 C7'         1.5620    1.6330   -5.5550 c3        1 08Q     -0.016000
      5 C5'        -0.7530   -0.7660   -1.5340 c3        1 08Q      0.060000
      6 O5'         0.0470    0.2450   -2.1320 os        1 08Q     -0.752000
      7 C4'        -0.5770   -0.7230    0.0070 c3        1 08Q     -0.048000
      8 O4'        -1.3590    0.1420    0.5220 os        1 08Q     -0.274000
      9 C3'        -1.0110   -2.0930    0.6370 c3        1 08Q      0.027000
     10 O3'         0.0740   -2.7600    1.1050 oh        1 08Q     -0.380000
     11 C2'        -1.9320   -1.7420    1.7680 c3        1 08Q     -0.204000
     12 C1'        -1.7930   -0.4410    1.9320 c3        1 08Q      0.147000
     13 N1         -0.7870   -0.1770    2.9010 n         1 08Q     -0.270000
     14 C2          0.1470    0.9410    2.6990 c2        1 08Q      0.397000
     15 O2          0.1890    1.5100    1.6280 o         1 08Q     -0.386000
     16 N3          1.0390    1.3580    3.7860 n         1 08Q     -0.370000
     17 C4          1.0680    0.6230    5.0050 c1        1 08Q      0.359000
     18 N4          0.8680    1.5520   -4.2850 n2        1 08Q     -0.877000
     19 O4          1.8380    0.9440    5.8930 o         1 08Q     -0.368000
     20 C5          0.1660   -0.5180    5.1940 c1        1 08Q     -0.266000
     21 C7          0.1550   -1.2670    6.5210 c2        1 08Q     -0.143000
     22 C6         -0.7870   -0.8870    4.1290 c2        1 08Q      0.059000
     23 S           1.9530    2.9590   -7.8780 sh        1 08Q     -0.081000
     24 OP3        -0.7090   -0.4780   -4.4370 o         1 08Q     -1.180000
     25 H1          1.1470    3.6160   -5.8250 h1        1 08Q      0.111500
     26 H2          0.1020    2.6790   -6.5350 h1        1 08Q      0.111500
     27 H3          2.5190    1.7470   -5.3970 h1        1 08Q      0.092000
     28 H4          1.4100    0.7990   -6.0690 h1        1 08Q      0.092000
     29 H5         -0.4750   -1.6480   -1.8710 h1        1 08Q      0.075000
     30 H6         -1.6950   -0.6130   -1.7590 h1        1 08Q      0.075000
     31 H7          0.3550   -0.5200    0.2400 h1        1 08Q      0.110000
     32 H8         -1.4820   -2.6340   -0.0250 h1        1 08Q      0.126000
     33 H9          0.0820   -3.5860    0.7750 ho        1 08Q      0.278000
     34 H10        -1.6670   -2.2190    2.5850 hc        1 08Q      0.108500
     35 H11        -2.8610   -1.9580    1.5310 hc        1 08Q      0.108500
     36 H12        -2.6430   -0.0450    2.2140 h2        1 08Q      0.154000
     37 H13         1.5660    2.1070    3.6880 hn        1 08Q      0.254000
     38 H14         0.6760    2.3130   -3.8200 hn        1 08Q      0.206000
     39 H15         1.0650   -1.4870    6.7760 ha        1 08Q      0.083333
     40 H16        -0.3680   -2.0960    6.4250 ha        1 08Q      0.083333
     41 H17        -0.2530   -0.7010    7.2150 ha        1 08Q      0.083333
     42 H18        -1.4430   -1.6170    4.2810 h4        1 08Q      0.210000
     43 H19         1.4520    3.7690   -8.5540 hs        1 08Q      0.044000
@<TRIPOS>BOND
     1    1    2 1   
     2    1    6 1   
     3    1   24 1   
     4    3    4 1   
     5    3   23 1   
     6    3   25 1   
     7    3   26 1   
     8    4   18 1   
     9    4   27 1   
    10    4   28 1   
    11    5    6 1   
    12    5    7 1   
    13    5   29 1   
    14    5   30 1   
    15    7    8 1   
    16    7    9 1   
    17    7   31 1   
    18    8   12 1   
    19    9   10 1   
    20    9   11 1   
    21    9   32 1   
    22   10   33 1   
    23   11   12 1   
    24   11   34 1   
    25   11   35 1   
    26   12   13 1   
    27   12   36 1   
    28   13   14 1   
    29   13   22 1   
    30   14   15 1   
    31   14   16 1   
    32   16   17 1   
    33   16   37 1   
    34   17   19 1   
    35   18   38 1   
    36   20   22 1   
    37   21   39 1   
    38   21   40 1   
    39   21   41 1   
    40   22   42 1   
    41   23   43 1   
@<TRIPOS>SUBSTRUCTURE
     1 08Q         1 TEMP              0 ****  ****    0 ROOT
