@<TRIPOS>MOLECULE
08Q
   43    44     1     0     0
SMALL
bcc


@<TRIPOS>ATOM
      1 P           3.0460    1.1980   -0.4870 p5        1 08Q      1.437700
      2 OP1         2.9400    2.4120   -1.3310 o         1 08Q     -0.853500
      3 C8'         5.2690   -1.6760    0.0830 c3        1 08Q     -0.011300
      4 C7'         4.9890   -0.2450    0.5500 c3        1 08Q      0.223800
      5 C5'         0.9720    0.3970   -1.8670 c3        1 08Q      0.197400
      6 O5'         2.1890    0.0070   -1.3330 os        1 08Q     -0.596200
      7 C4'        -0.2100    0.1050   -0.9190 c3        1 08Q      0.059100
      8 O4'        -1.3430   -0.2580   -1.7350 os        1 08Q     -0.417600
      9 C3'         0.0310   -1.0510    0.0760 c3        1 08Q      0.137100
     10 O3'        -0.0210   -0.5860    1.4110 oh        1 08Q     -0.655800
     11 C2'        -1.1390   -2.0200   -0.1340 c3        1 08Q     -0.120400
     12 C1'        -2.0970   -1.2920   -1.1020 c3        1 08Q      0.296500
     13 N1         -3.2800   -0.7360   -0.4270 n         1 08Q     -0.378000
     14 C2         -4.5500   -0.8860   -1.0350 c         1 08Q      0.806500
     15 O2         -4.7290   -1.6230   -2.0320 o         1 08Q     -0.663500
     16 N3         -5.6470   -0.2200   -0.4640 n         1 08Q     -0.590500
     17 C4         -5.5390    0.6150    0.6620 c         1 08Q      0.720700
     18 N4          4.5590    0.6480   -0.4590 n3        1 08Q     -0.944300
     19 O4         -6.5710    1.1710    1.0830 o         1 08Q     -0.642500
     20 C5         -4.1960    0.7500    1.2430 cc        1 08Q     -0.285400
     21 C7         -4.0510    1.6040    2.4370 c3        1 08Q     -0.021900
     22 C6         -3.1410    0.0980    0.6710 cd        1 08Q      0.059600
     23 S           5.8050   -2.7200    1.4110 sh        1 08Q     -0.433900
     24 OP3         2.3810    1.0690    0.8450 o         1 08Q     -0.853500
     25 H1          4.3660   -2.1150   -0.4040 h1        1 08Q      0.071700
     26 H2          6.1090   -1.6960   -0.6530 h1        1 08Q      0.071700
     27 H3          4.1790   -0.2730    1.3420 h1        1 08Q      0.049700
     28 H4          5.9390    0.1270    1.0420 h1        1 08Q      0.049700
     29 H5          0.9860    1.5000   -2.0980 h1        1 08Q      0.044200
     30 H6          0.8120   -0.1820   -2.8210 h1        1 08Q      0.044200
     31 H7         -0.4900    1.0370   -0.3550 h1        1 08Q      0.064700
     32 H8          1.0160   -1.5520   -0.1200 h1        1 08Q      0.084700
     33 H9          0.7490    0.0020    1.5370 ho        1 08Q      0.480000
     34 H10        -0.7820   -2.9560   -0.6280 hc        1 08Q      0.069200
     35 H11        -1.6150   -2.2890    0.8390 hc        1 08Q      0.069200
     36 H12        -2.4680   -1.9540   -1.9390 h2        1 08Q      0.114700
     37 H13        -6.5300   -0.3370   -0.9100 hn        1 08Q      0.340500
     38 H14         5.2180    0.8580   -1.1590 hn        1 08Q      0.411800
     39 H15        -4.5260    2.6010    2.2530 hc        1 08Q      0.045367
     40 H16        -4.5670    1.1340    3.3110 hc        1 08Q      0.045367
     41 H17        -2.9750    1.7570    2.6940 hc        1 08Q      0.045367
     42 H18        -2.1020    0.1840    1.0690 h4        1 08Q      0.210000
     43 H19         4.8310   -2.4920    2.2760 hs        1 08Q      0.214800
@<TRIPOS>BOND
     1    1    2 1   
     2    1    6 1   
     3    1   18 1   
     4    1   24 1   
     5    3    4 1   
     6    3   23 1   
     7    3   25 1   
     8    3   26 1   
     9    4   18 1   
    10    4   27 1   
    11    4   28 1   
    12    5    6 1   
    13    5    7 1   
    14    5   29 1   
    15    5   30 1   
    16    7    8 1   
    17    7    9 1   
    18    7   31 1   
    19    8   12 1   
    20    9   10 1   
    21    9   11 1   
    22    9   32 1   
    23   10   33 1   
    24   11   12 1   
    25   11   34 1   
    26   11   35 1   
    27   12   13 1   
    28   12   36 1   
    29   13   14 1   
    30   13   22 1   
    31   14   15 2   
    32   14   16 1   
    33   16   17 1   
    34   16   37 1   
    35   17   19 2   
    36   17   20 1   
    37   18   38 1   
    38   20   21 1   
    39   20   22 2   
    40   21   39 1   
    41   21   40 1   
    42   21   41 1   
    43   22   42 1   
    44   23   43 1   
@<TRIPOS>SUBSTRUCTURE
     1 08Q         1 TEMP              0 ****  ****    0 ROOT
