@<TRIPOS>MOLECULE
08Q
   44    45     1     0     0
SMALL
bcc


@<TRIPOS>ATOM
      1 P          -0.5120    0.0920    0.4130 p5        1 08Q      1.294700
      2 OP1         0.8240    0.2320    0.9970 o         1 08Q     -0.735000
      3 C8'        -0.2910   -3.5500    0.5480 c3        1 08Q     -0.035300
      4 C7'         0.4960   -2.3960   -0.0550 c3        1 08Q      0.089800
      5 C5'        -2.7080    0.0580    1.8210 c3        1 08Q      0.171400
      6 O5'        -1.5210   -0.6130    1.4910 os        1 08Q     -0.585200
      7 C4'        -2.6740    0.4650    3.2960 c3        1 08Q      0.106100
      8 O4'        -2.0010    1.7340    3.3820 os        1 08Q     -0.417600
      9 C3'        -4.0850    0.6620    3.8910 c3        1 08Q      0.118100
     10 O3'        -4.2840   -0.3830    4.8270 oh        1 08Q     -0.590800
     11 C2'        -4.0640    2.0460    4.5440 c3        1 08Q     -0.148400
     12 C1'        -2.6200    2.5680    4.3640 c3        1 08Q      0.327500
     13 N1         -1.8290    2.5850    5.6010 n         1 08Q     -0.399000
     14 C2         -2.2810    3.4200    6.6550 c         1 08Q      0.807500
     15 O2         -3.3400    4.0800    6.5480 o         1 08Q     -0.659500
     16 N3         -1.5150    3.4860    7.8260 ns        1 08Q     -0.583500
     17 C4         -0.3090    2.7780    7.9970 c         1 08Q      0.717700
     18 N4         -0.3340   -1.3680   -0.7020 ny        1 08Q     -0.711100
     19 O4          0.3000    2.9050    9.0720 o         1 08Q     -0.612500
     20 C5          0.1220    1.9460    6.8620 cc        1 08Q     -0.263400
     21 C7          1.3860    1.1990    7.0110 c3        1 08Q     -0.028900
     22 C6         -0.6380    1.8900    5.7310 cd        1 08Q      0.053600
     23 S           0.8070   -4.7640    1.1930 sh        1 08Q     -0.326900
     24 OP3        -1.2930    0.9830   -0.4530 o         1 08Q     -0.735000
     25 H1         -0.9990   -3.1850    1.3340 h1        1 08Q      0.093700
     26 H2         -0.8870   -4.0830   -0.2350 h1        1 08Q      0.093700
     27 H3          1.2290   -2.8190   -0.8030 hx        1 08Q      0.111700
     28 H4          1.1000   -1.8750    0.7540 hx        1 08Q      0.111700
     29 H5         -2.8500    0.9560    1.1570 h1        1 08Q      0.068200
     30 H6         -3.5550   -0.6720    1.6780 h1        1 08Q      0.068200
     31 H7         -2.0880   -0.2830    3.8970 h1        1 08Q      0.094700
     32 H8         -4.8780    0.6050    3.0960 h1        1 08Q      0.052700
     33 H9         -5.1220   -0.2070    5.2710 ho        1 08Q      0.411000
     34 H10        -4.7600    2.7460    4.0180 hc        1 08Q      0.085700
     35 H11        -4.3710    2.0020    5.6180 hc        1 08Q      0.085700
     36 H12        -2.5990    3.6150    3.9360 h2        1 08Q      0.103700
     37 H13        -1.8490    4.0800    8.5540 hn        1 08Q      0.351500
     38 H14        -1.2490   -1.7380   -0.9330 hn        1 08Q      0.428800
     39 H15         1.2510    0.3570    7.7360 hc        1 08Q      0.051367
     40 H16         2.1830    1.8740    7.4150 hc        1 08Q      0.051367
     41 H17         1.7270    0.7800    6.0330 hc        1 08Q      0.051367
     42 H18        -0.3370    1.2860    4.8500 h4        1 08Q      0.189000
     43 H19         1.1960   -4.1500    2.3000 hs        1 08Q      0.214800
     44 H42         0.0990   -1.0640   -1.5670 hn        1 08Q      0.428800
@<TRIPOS>BOND
     1    1    2 1   
     2    1    6 1   
     3    1   18 1   
     4    1   24 1   
     5    3    4 1   
     6    3   23 1   
     7    3   25 1   
     8    3   26 1   
     9    4   18 1   
    10    4   27 1   
    11    4   28 1   
    12    5    6 1   
    13    5    7 1   
    14    5   29 1   
    15    5   30 1   
    16    7    8 1   
    17    7    9 1   
    18    7   31 1   
    19    8   12 1   
    20    9   10 1   
    21    9   11 1   
    22    9   32 1   
    23   10   33 1   
    24   11   12 1   
    25   11   34 1   
    26   11   35 1   
    27   12   13 1   
    28   12   36 1   
    29   13   14 1   
    30   13   22 1   
    31   14   15 2   
    32   14   16 1   
    33   16   17 1   
    34   16   37 1   
    35   17   19 2   
    36   17   20 1   
    37   18   38 1   
    38   18   44 1   
    39   20   21 1   
    40   20   22 2   
    41   21   39 1   
    42   21   40 1   
    43   21   41 1   
    44   22   42 1   
    45   23   43 1   
@<TRIPOS>SUBSTRUCTURE
     1 08Q         1 TEMP              0 ****  ****    0 ROOT
