@<TRIPOS>MOLECULE
08R
   58    60     1     0     0
SMALL
bcc


@<TRIPOS>ATOM
      1 N02         1.7310    2.2250    0.7980 nv        1 08R     -0.930500
      2 C02         2.3490    1.0220    0.4420 ca        1 08R      0.648200
      3 C03         2.3880   -0.0490    1.3880 ca        1 08R     -0.297300
      4 C04         3.0920   -1.2080    1.0730 ca        1 08R      0.006700
      5 C07         3.1700   -2.3290    2.0370 c3        1 08R     -0.065800
      6 C05         3.7380   -1.2910   -0.1690 ca        1 08R     -0.300300
      7 N01         2.9640    0.9300   -0.7820 nb        1 08R     -0.742000
      8 C06         3.6430   -0.2050   -1.0570 ca        1 08R      0.435600
      9 C08         4.3530   -0.3000   -2.3810 c3        1 08R     -0.110700
     10 C3'         3.7250   -1.3350   -3.2920 c3        1 08R     -0.084700
     11 C2'         2.3160   -0.9280   -3.7870 c3        1 08R      0.142800
     12 N1'         2.3060   -0.8370   -5.2440 n7        1 08R     -0.783200
     13 C5'         3.5240   -1.4570   -5.7420 c3        1 08R      0.125800
     14 C4'         4.5440   -1.5770   -4.5810 c3        1 08R      0.114100
     15 O09         5.5340   -0.5440   -4.6800 os        1 08R     -0.462600
     16 C10         6.6190   -0.8610   -5.5400 c3        1 08R      0.107400
     17 C11         7.4620    0.4160   -5.6470 c3        1 08R      0.101800
     18 N12         7.8210    0.9670   -4.3110 ny        1 08R     -0.762000
     19 C13         8.4900    2.3060   -4.4110 c3        1 08R      0.193100
     20 C21         8.8770    2.8180   -3.0690 ca        1 08R     -0.215300
     21 C22         9.8730    2.1580   -2.3160 ca        1 08R      0.144100
     22 O22        10.3440    0.9820   -2.8690 os        1 08R     -0.386900
     23 C27        11.5130    0.4210   -2.2670 c3        1 08R      0.116700
     24 C26         8.3060    3.9890   -2.5600 ca        1 08R     -0.059000
     25 C25         8.7270    4.5030   -1.3370 ca        1 08R     -0.147000
     26 C24         9.7220    3.8490   -0.6070 ca        1 08R     -0.048000
     27 C23        10.2990    2.6750   -1.0870 ca        1 08R     -0.187000
     28 H1          1.0080    2.1320    1.4750 hn        1 08R      0.412800
     29 H2          1.5320    2.8640    0.0620 hn        1 08R      0.412800
     30 H3          1.8750    0.0430    2.3560 ha        1 08R      0.151000
     31 H4          2.2710   -2.3510    2.7020 hc        1 08R      0.055367
     32 H5          4.0790   -2.2120    2.6800 hc        1 08R      0.055367
     33 H6          3.2410   -3.3090    1.5040 hc        1 08R      0.055367
     34 H7          4.3020   -2.1910   -0.4450 ha        1 08R      0.138000
     35 H8          5.4200   -0.5910   -2.1790 hc        1 08R      0.046200
     36 H9          4.3700    0.6930   -2.9050 hc        1 08R      0.046200
     37 H10         3.6510   -2.3110   -2.7400 hc        1 08R      0.076700
     38 H11         1.5770   -1.7260   -3.4980 h1        1 08R      0.071700
     39 H12         1.9890    0.0350   -3.3120 h1        1 08R      0.071700
     40 H13         2.2540    0.1210   -5.5360 hn        1 08R      0.357800
     41 H15         3.2580   -2.4900   -6.1000 h1        1 08R      0.061200
     42 H16         3.9630   -0.8850   -6.6010 h1        1 08R      0.061200
     43 H17         5.0460   -2.5780   -4.5710 h1        1 08R      0.061700
     44 H18         7.2120   -1.7120   -5.1110 h1        1 08R      0.069700
     45 H19         6.2540   -1.1370   -6.5660 h1        1 08R      0.069700
     46 H20         6.8740    1.2040   -6.1980 hx        1 08R      0.108200
     47 H21         8.4080    0.1930   -6.2150 hx        1 08R      0.108200
     48 H22         6.9620    1.0470   -3.7460 hn        1 08R      0.465800
     49 H24         7.7770    3.0120   -4.9260 hx        1 08R      0.104200
     50 H25         9.4110    2.1720   -5.0510 hx        1 08R      0.104200
     51 H26        11.2730    0.0460   -1.2430 h1        1 08R      0.062033
     52 H27        11.7750   -0.4260   -2.9510 h1        1 08R      0.062033
     53 H28        12.3370    1.1740   -2.2330 h1        1 08R      0.062033
     54 H29         7.5260    4.5140   -3.1350 ha        1 08R      0.147000
     55 H30         8.2750    5.4290   -0.9460 ha        1 08R      0.162000
     56 H31        10.0540    4.2620    0.3600 ha        1 08R      0.161000
     57 H32        11.0810    2.1680   -0.5030 ha        1 08R      0.160000
     58 H122        8.4550    0.3170   -3.8250 hn        1 08R      0.465800
@<TRIPOS>BOND
     1    1    2 1   
     2    1   28 1   
     3    1   29 1   
     4    2    3 ar  
     5    2    7 ar  
     6    3    4 ar  
     7    3   30 1   
     8    4    5 1   
     9    4    6 ar  
    10    5   31 1   
    11    5   32 1   
    12    5   33 1   
    13    6    8 ar  
    14    6   34 1   
    15    7    8 ar  
    16    8    9 1   
    17    9   10 1   
    18    9   35 1   
    19    9   36 1   
    20   10   11 1   
    21   10   14 1   
    22   10   37 1   
    23   11   12 1   
    24   11   38 1   
    25   11   39 1   
    26   12   13 1   
    27   12   40 1   
    28   13   14 1   
    29   13   41 1   
    30   13   42 1   
    31   14   15 1   
    32   14   43 1   
    33   15   16 1   
    34   16   17 1   
    35   16   44 1   
    36   16   45 1   
    37   17   18 1   
    38   17   46 1   
    39   17   47 1   
    40   18   19 1   
    41   18   48 1   
    42   18   58 1   
    43   19   20 1   
    44   19   49 1   
    45   19   50 1   
    46   20   21 ar  
    47   20   24 ar  
    48   21   22 1   
    49   21   27 ar  
    50   22   23 1   
    51   23   51 1   
    52   23   52 1   
    53   23   53 1   
    54   24   25 ar  
    55   24   54 1   
    56   25   26 ar  
    57   25   55 1   
    58   26   27 ar  
    59   26   56 1   
    60   27   57 1   
@<TRIPOS>SUBSTRUCTURE
     1 08R         1 TEMP              0 ****  ****    0 ROOT
