@<TRIPOS>MOLECULE
08R
   57    59     1     0     0
SMALL
bcc


@<TRIPOS>ATOM
      1 N02         5.9110    2.1660    1.2780 nh        1 08R     -0.923500
      2 C02         4.6280    2.1170    0.7060 ca        1 08R      0.630200
      3 C03         4.1420    3.2580   -0.0000 ca        1 08R     -0.302300
      4 C04         2.9150    3.1730   -0.6550 ca        1 08R     -0.006300
      5 C07         2.3860    4.3270   -1.4190 c3        1 08R     -0.060800
      6 C05         2.1940    1.9750   -0.5910 ca        1 08R     -0.293300
      7 N01         3.9130    0.9510    0.7840 nb        1 08R     -0.731000
      8 C06         2.7280    0.8930    0.1360 ca        1 08R      0.449600
      9 C08         1.9230   -0.3780    0.2170 c3        1 08R     -0.113700
     10 C3'         2.6540   -1.5670   -0.3680 c3        1 08R     -0.075700
     11 C2'         3.7280   -2.1460    0.5830 c3        1 08R      0.147800
     12 N1'         3.6930   -3.6050    0.5260 n3        1 08R     -0.789200
     13 C5'         2.3970   -3.9950   -0.0150 c3        1 08R      0.113800
     14 C4'         1.7240   -2.7630   -0.6790 c3        1 08R      0.115100
     15 O09         0.4420   -2.5200   -0.1110 os        1 08R     -0.423600
     16 C10        -0.5630   -3.4000   -0.6150 c3        1 08R      0.122400
     17 C11        -1.8740   -3.0100    0.0740 c3        1 08R      0.163800
     18 N12        -2.3560   -1.7030   -0.3240 n3        1 08R     -0.817200
     19 C13        -3.4680   -1.2430    0.4890 c3        1 08R      0.212100
     20 C21        -3.7280    0.2280    0.3620 ca        1 08R     -0.105300
     21 C22        -4.9680    0.7120   -0.1090 ca        1 08R      0.137100
     22 O22        -5.9040   -0.2510   -0.4350 os        1 08R     -0.325900
     23 C27        -7.1010    0.2160   -1.0470 c3        1 08R      0.114700
     24 C26        -2.7500    1.1520    0.7360 ca        1 08R     -0.101000
     25 C25        -2.9850    2.5240    0.6420 ca        1 08R     -0.163000
     26 C24        -4.2100    2.9880    0.1710 ca        1 08R     -0.096000
     27 C23        -5.2070    2.0890   -0.2040 ca        1 08R     -0.203000
     28 H1          6.1280    1.4310    1.9160 hn        1 08R      0.399800
     29 H2          6.1600    3.0700    1.6120 hn        1 08R      0.399800
     30 H3          4.7300    4.1840   -0.0380 ha        1 08R      0.141000
     31 H4          2.6680    4.2250   -2.4980 hc        1 08R      0.049033
     32 H5          1.2710    4.3700   -1.3510 hc        1 08R      0.049033
     33 H6          2.8040    5.2900   -1.0360 hc        1 08R      0.049033
     34 H7          1.2250    1.8800   -1.0990 ha        1 08R      0.144000
     35 H8          1.6520   -0.5870    1.2870 hc        1 08R      0.067700
     36 H9          0.9610   -0.2300   -0.3440 hc        1 08R      0.067700
     37 H10         3.1440   -1.2570   -1.3300 hc        1 08R      0.056700
     38 H11         4.7440   -1.7500    0.3190 h1        1 08R      0.063200
     39 H12         3.5030   -1.8440    1.6430 h1        1 08R      0.063200
     40 H13         4.4280   -3.9440   -0.0670 hn        1 08R      0.343800
     41 H15         2.4900   -4.8370   -0.7480 h1        1 08R      0.053700
     42 H16         1.7580   -4.3420    0.8440 h1        1 08R      0.053700
     43 H17         1.6250   -2.9090   -1.7870 h1        1 08R      0.042700
     44 H18        -0.6360   -3.2970   -1.7300 h1        1 08R      0.037700
     45 H19        -0.3030   -4.4590   -0.3530 h1        1 08R      0.037700
     46 H20        -2.6550   -3.7670   -0.2200 h1        1 08R      0.039200
     47 H21        -1.7180   -3.0920    1.1910 h1        1 08R      0.039200
     48 H22        -1.6010   -1.0400   -0.3140 hn        1 08R      0.366800
     49 H24        -4.3760   -1.8250    0.1580 h1        1 08R      0.047200
     50 H25        -3.3120   -1.4650    1.5900 h1        1 08R      0.047200
     51 H26        -6.8760    0.7890   -1.9780 h1        1 08R      0.044033
     52 H27        -7.6540   -0.7280   -1.2870 h1        1 08R      0.044033
     53 H28        -7.6880    0.8430   -0.3320 h1        1 08R      0.044033
     54 H29        -1.7820    0.7910    1.1160 ha        1 08R      0.135000
     55 H30        -2.2020    3.2350    0.9420 ha        1 08R      0.133000
     56 H31        -4.3980    4.0690    0.0950 ha        1 08R      0.131000
     57 H32        -6.1700    2.4700   -0.5720 ha        1 08R      0.136000
@<TRIPOS>BOND
     1    1    2 1   
     2    1   28 1   
     3    1   29 1   
     4    2    3 ar  
     5    2    7 ar  
     6    3    4 ar  
     7    3   30 1   
     8    4    5 1   
     9    4    6 ar  
    10    5   31 1   
    11    5   32 1   
    12    5   33 1   
    13    6    8 ar  
    14    6   34 1   
    15    7    8 ar  
    16    8    9 1   
    17    9   10 1   
    18    9   35 1   
    19    9   36 1   
    20   10   11 1   
    21   10   14 1   
    22   10   37 1   
    23   11   12 1   
    24   11   38 1   
    25   11   39 1   
    26   12   13 1   
    27   12   40 1   
    28   13   14 1   
    29   13   41 1   
    30   13   42 1   
    31   14   15 1   
    32   14   43 1   
    33   15   16 1   
    34   16   17 1   
    35   16   44 1   
    36   16   45 1   
    37   17   18 1   
    38   17   46 1   
    39   17   47 1   
    40   18   19 1   
    41   18   48 1   
    42   19   20 1   
    43   19   49 1   
    44   19   50 1   
    45   20   21 ar  
    46   20   24 ar  
    47   21   22 1   
    48   21   27 ar  
    49   22   23 1   
    50   23   51 1   
    51   23   52 1   
    52   23   53 1   
    53   24   25 ar  
    54   24   54 1   
    55   25   26 ar  
    56   25   55 1   
    57   26   27 ar  
    58   26   56 1   
    59   27   57 1   
@<TRIPOS>SUBSTRUCTURE
     1 08R         1 TEMP              0 ****  ****    0 ROOT
