@<TRIPOS>MOLECULE
08R
   59    61     1     0     0
SMALL
bcc


@<TRIPOS>ATOM
      1 N02        -0.4210   -3.4150   -1.1140 n4        1 08R     -0.818300
      2 C02         0.5730   -2.5260   -0.4670 ca        1 08R      0.452200
      3 C03         0.3940   -2.1740    0.8820 ca        1 08R     -0.206300
      4 C04         1.3580   -1.3270    1.4630 ca        1 08R      0.011700
      5 C07         1.2180   -0.9120    2.8760 c3        1 08R     -0.085800
      6 C05         2.4250   -0.8900    0.6760 ca        1 08R     -0.201300
      7 N01         1.6080   -2.1110   -1.2520 nb        1 08R     -0.671000
      8 C06         2.5210   -1.3000   -0.6790 ca        1 08R      0.457600
      9 C08         3.6940   -0.8240   -1.4960 c3        1 08R     -0.123700
     10 C3'         3.2830    0.1480   -2.5830 c3        1 08R     -0.106700
     11 C2'         2.6700    1.4510   -2.0120 c3        1 08R      0.148800
     12 N1'         3.5040    2.5910   -2.3670 n3        1 08R     -0.782200
     13 C5'         4.4300    2.1710   -3.4030 c3        1 08R      0.145800
     14 C4'         4.4670    0.6170   -3.4590 c3        1 08R      0.102100
     15 O09         5.7320    0.2130   -2.9220 os        1 08R     -0.437600
     16 C10         6.3890   -0.8240   -3.6270 c3        1 08R      0.103400
     17 C11         7.3140   -0.2400   -4.7050 c3        1 08R      0.066800
     18 N12         8.2740    0.7500   -4.1530 n4        1 08R     -0.762000
     19 C13         9.0890    1.4130   -5.2290 c3        1 08R      0.196100
     20 C21        10.0510    2.3890   -4.6530 ca        1 08R     -0.225300
     21 C22        11.1170    1.9430   -3.8420 ca        1 08R      0.146100
     22 O22        11.1000    0.5960   -3.5330 os        1 08R     -0.394900
     23 C27        12.3050    0.0570   -2.9810 c3        1 08R      0.116700
     24 C26         9.9600    3.7500   -4.9690 ca        1 08R     -0.062000
     25 C25        10.9180    4.6450   -4.5020 ca        1 08R     -0.145000
     26 C24        11.9760    4.1910   -3.7110 ca        1 08R     -0.042000
     27 C23        12.0820    2.8430   -3.3730 ca        1 08R     -0.184000
     28 H1         -0.8810   -2.9180   -1.8880 hn        1 08R      0.473800
     29 H2          0.0460   -4.2510   -1.4880 hn        1 08R      0.473800
     30 H3         -0.4540   -2.5310    1.4870 ha        1 08R      0.176000
     31 H4          0.8840   -1.7690    3.5130 hc        1 08R      0.081367
     32 H5          2.1860   -0.5260    3.2830 hc        1 08R      0.081367
     33 H6          0.4530   -0.0960    2.9590 hc        1 08R      0.081367
     34 H7          3.1950   -0.2270    1.1030 ha        1 08R      0.180000
     35 H8          4.2100   -1.7050   -1.9660 hc        1 08R      0.075200
     36 H9          4.4360   -0.3320   -0.8110 hc        1 08R      0.075200
     37 H10         2.5290   -0.3460   -3.2530 hc        1 08R      0.078700
     38 H11         1.6590    1.6210   -2.4750 h1        1 08R      0.060200
     39 H12         2.5340    1.3730   -0.8990 h1        1 08R      0.060200
     40 H13         3.9940    2.9440   -1.5650 hn        1 08R      0.368800
     41 H15         4.0430    2.5580   -4.3850 h1        1 08R      0.063700
     42 H16         5.4600    2.5820   -3.2350 h1        1 08R      0.063700
     43 H17         4.3510    0.2520   -4.5120 h1        1 08R      0.064700
     44 H18         5.6730   -1.5310   -4.1220 h1        1 08R      0.088200
     45 H19         6.9790   -1.3750   -2.8430 h1        1 08R      0.088200
     46 H20         6.6960    0.2770   -5.4940 hx        1 08R      0.109200
     47 H21         7.8960   -1.0750   -5.1900 hx        1 08R      0.109200
     48 H22         8.9200    0.2840   -3.4980 hn        1 08R      0.461300
     49 H24         8.3770    1.9140   -5.9450 hx        1 08R      0.105700
     50 H25         9.6490    0.5940   -5.7690 hx        1 08R      0.105700
     51 H26        12.1150   -1.0460   -2.9710 h1        1 08R      0.064367
     52 H27        13.1800    0.3040   -3.6290 h1        1 08R      0.064367
     53 H28        12.4530    0.4450   -1.9440 h1        1 08R      0.064367
     54 H29         9.1370    4.1120   -5.6060 ha        1 08R      0.146000
     55 H30        10.8460    5.7130   -4.7640 ha        1 08R      0.167000
     56 H31        12.7370    4.9030   -3.3500 ha        1 08R      0.167000
     57 H32        12.9200    2.4960   -2.7500 ha        1 08R      0.165000
     58 H023       -1.1230   -3.6960   -0.4220 hn        1 08R      0.473800
     59 H122        7.7530    1.4600   -3.6230 hn        1 08R      0.461300
@<TRIPOS>BOND
     1    1    2 1   
     2    1   28 1   
     3    1   29 1   
     4    1   58 1   
     5    2    3 ar  
     6    2    7 ar  
     7    3    4 ar  
     8    3   30 1   
     9    4    5 1   
    10    4    6 ar  
    11    5   31 1   
    12    5   32 1   
    13    5   33 1   
    14    6    8 ar  
    15    6   34 1   
    16    7    8 ar  
    17    8    9 1   
    18    9   10 1   
    19    9   35 1   
    20    9   36 1   
    21   10   11 1   
    22   10   14 1   
    23   10   37 1   
    24   11   12 1   
    25   11   38 1   
    26   11   39 1   
    27   12   13 1   
    28   12   40 1   
    29   13   14 1   
    30   13   41 1   
    31   13   42 1   
    32   14   15 1   
    33   14   43 1   
    34   15   16 1   
    35   16   17 1   
    36   16   44 1   
    37   16   45 1   
    38   17   18 1   
    39   17   46 1   
    40   17   47 1   
    41   18   19 1   
    42   18   48 1   
    43   18   59 1   
    44   19   20 1   
    45   19   49 1   
    46   19   50 1   
    47   20   21 ar  
    48   20   24 ar  
    49   21   22 1   
    50   21   27 ar  
    51   22   23 1   
    52   23   51 1   
    53   23   52 1   
    54   23   53 1   
    55   24   25 ar  
    56   24   54 1   
    57   25   26 ar  
    58   25   55 1   
    59   26   27 ar  
    60   26   56 1   
    61   27   57 1   
@<TRIPOS>SUBSTRUCTURE
     1 08R         1 TEMP              0 ****  ****    0 ROOT
