@<TRIPOS>MOLECULE
08R
   57    53     1     0     0
SMALL
bcc


@<TRIPOS>ATOM
      1 N02        -3.6630   -2.9950    6.2810 n3        1 08R     -0.320000
      2 C02        -3.3430   -1.8460    5.6140 c1        1 08R      0.107000
      3 C03        -4.0890   -0.6760    5.8330 c1        1 08R     -0.236000
      4 C04        -3.8160    0.4420    5.1230 c1        1 08R      0.000000
      5 C07        -4.6160    1.7760    5.4100 c2        1 08R     -0.186000
      6 C05        -2.8140    0.4310    4.1950 c2        1 08R     -0.227000
      7 N01        -2.3470   -1.8560    4.6900 n1        1 08R     -0.206000
      8 C06        -2.0720   -0.7420    3.9800 c1        1 08R      0.029000
      9 C08        -0.8930   -0.7290    3.0190 c3        1 08R     -0.098000
     10 C3'        -0.9810   -1.9920    2.0630 c3        1 08R     -0.118000
     11 C2'        -2.1850   -2.0290    1.4410 c3        1 08R     -0.096000
     12 N1'        -1.9200   -2.6340   -0.0070 n3        1 08R     -0.267000
     13 C5'        -0.7610   -2.1610   -0.3920 c3        1 08R     -0.124000
     14 C4'         0.0380   -1.8770    0.9430 c3        1 08R      0.006000
     15 O09         0.5740   -0.6200    0.9170 os        1 08R     -0.274000
     16 C10         1.7410   -0.4870    0.0330 c3        1 08R     -0.023000
     17 C11         1.6090    0.7860   -0.7940 c3        1 08R     -0.080000
     18 N12         2.5610    0.7560   -1.8870 n3        1 08R     -0.294000
     19 C13         2.1550    1.7090   -2.9040 c3        1 08R     -0.023000
     20 C21         3.2450    1.7690   -4.0320 c2        1 08R     -0.101000
     21 C22         2.9100    1.4080   -5.3590 c1        1 08R      0.079000
     22 O22         1.6210    0.9010   -5.6530 o         1 08R     -0.221000
     23 C27         0.9260    1.6400   -6.7010 c3        1 08R     -0.075000
     24 C26         4.5470    2.2250   -3.7330 c1        1 08R     -0.086000
     25 C25         5.5090    2.3200   -4.7540 c1        1 08R     -0.128500
     26 C24         5.1730    1.9600   -6.0790 c1        1 08R     -0.128500
     27 C23         3.8720    1.5040   -6.3770 c1        1 08R     -0.201000
     28 H1         -3.3410   -3.8010    5.9850 hn        1 08R      0.193500
     29 H2         -4.1760   -2.9570    7.0330 hn        1 08R      0.193500
     30 H3         -4.7780   -0.6570    6.5290 ha        1 08R      0.140000
     31 H4         -5.4850    1.7750    4.8700 ha        1 08R      0.088333
     32 H5         -4.0740    2.5400    5.1520 ha        1 08R      0.088333
     33 H6         -4.8260    1.8320    6.3650 ha        1 08R      0.088333
     34 H7         -2.6160    1.2310    3.6850 ha        1 08R      0.144000
     35 H8         -0.0680   -0.7600    3.5210 hc        1 08R      0.108500
     36 H9         -0.9170    0.0760    2.4900 hc        1 08R      0.108500
     37 H10        -0.8290   -2.8370    2.5850 hc        1 08R      0.111000
     38 H11        -2.5630   -1.0920    1.3620 h1        1 08R      0.094500
     39 H12        -2.8130   -2.6100    1.9440 h1        1 08R      0.094500
     40 H13        -1.8730   -3.5470    0.0470 hn        1 08R      0.140000
     41 H15        -0.2930   -2.8210   -0.9290 h1        1 08R      0.094000
     42 H16        -0.8840   -1.3140   -0.9120 h1        1 08R      0.094000
     43 H17         0.7340   -2.5330    1.0590 h1        1 08R      0.083000
     44 H18         1.7890   -1.2650   -0.5670 h1        1 08R      0.073500
     45 H19         2.5530   -0.4410    0.5700 h1        1 08R      0.073500
     46 H20         1.7920    1.5820   -0.2130 h1        1 08R      0.081500
     47 H21         0.7230    0.8470   -1.1450 h1        1 08R      0.081500
     48 H22         2.5860   -0.0970   -2.2540 hn        1 08R      0.162000
     49 H24         1.2790    1.4220   -3.3000 h1        1 08R      0.079500
     50 H25         2.0530    2.6090   -2.4930 h1        1 08R      0.079500
     51 H26         1.1360    1.2490   -7.5670 h1        1 08R      0.084667
     52 H27         1.2200    2.5910   -6.6860 h1        1 08R      0.084667
     53 H28        -0.0260    1.5960   -6.5500 h1        1 08R      0.084667
     54 H29         4.7910    2.4840   -2.7790 ha        1 08R      0.138000
     55 H30         6.4280    2.6410   -4.5440 ha        1 08R      0.133000
     56 H31         5.8630    2.0290   -6.8100 ha        1 08R      0.133000
     57 H32         3.6320    1.2470   -7.3210 ha        1 08R      0.137000
@<TRIPOS>BOND
     1    1    2 1   
     2    1   28 1   
     3    1   29 1   
     4    2    7 1   
     5    3    4 1   
     6    3   30 1   
     7    4    6 1   
     8    5   31 1   
     9    5   32 1   
    10    5   33 1   
    11    6    8 1   
    12    6   34 1   
    13    8    9 1   
    14    9   10 1   
    15    9   35 1   
    16    9   36 1   
    17   10   11 1   
    18   10   14 1   
    19   10   37 1   
    20   11   12 1   
    21   11   38 1   
    22   11   39 1   
    23   12   13 1   
    24   12   40 1   
    25   13   14 1   
    26   13   41 1   
    27   13   42 1   
    28   14   15 1   
    29   14   43 1   
    30   15   16 1   
    31   16   17 1   
    32   16   44 1   
    33   16   45 1   
    34   17   18 1   
    35   17   46 1   
    36   17   47 1   
    37   18   19 1   
    38   18   48 1   
    39   19   20 1   
    40   19   49 1   
    41   19   50 1   
    42   20   21 1   
    43   20   24 1   
    44   21   27 1   
    45   22   23 1   
    46   23   51 1   
    47   23   52 1   
    48   23   53 1   
    49   24   54 1   
    50   25   26 1   
    51   25   55 1   
    52   26   56 1   
    53   27   57 1   
@<TRIPOS>SUBSTRUCTURE
     1 08R         1 TEMP              0 ****  ****    0 ROOT
