@<TRIPOS>MOLECULE
08R
   58    60     1     0     0
SMALL
bcc


@<TRIPOS>ATOM
      1 N02         1.7700    2.2210    0.8350 nh        1 08R     -0.930500
      2 C02         2.3970    1.0210    0.4840 ca        1 08R      0.648200
      3 C03         2.4700   -0.0340    1.4470 ca        1 08R     -0.297300
      4 C04         3.1820   -1.1890    1.1350 ca        1 08R      0.006700
      5 C07         3.2690   -2.3060    2.1030 c3        1 08R     -0.066800
      6 C05         3.8050   -1.2830   -0.1170 ca        1 08R     -0.300300
      7 N01         2.9890    0.9170   -0.7490 nb        1 08R     -0.742000
      8 C06         3.6790   -0.2120   -1.0200 ca        1 08R      0.435600
      9 C08         4.3660   -0.3170   -2.3550 c3        1 08R     -0.110700
     10 C3'         3.7380   -1.3760   -3.2390 c3        1 08R     -0.085700
     11 C2'         2.3140   -0.9970   -3.7160 c3        1 08R      0.142800
     12 N1'         2.2790   -0.9290   -5.1730 n3        1 08R     -0.783200
     13 C5'         3.4970   -1.5400   -5.6830 c3        1 08R      0.125800
     14 C4'         4.5370   -1.6260   -4.5380 c3        1 08R      0.114100
     15 O09         5.5110   -0.5810   -4.6700 os        1 08R     -0.462600
     16 C10         6.5880   -0.8980   -5.5400 c3        1 08R      0.107400
     17 C11         7.4160    0.3860   -5.6720 c3        1 08R      0.101800
     18 N12         7.7860    0.9580   -4.3480 n4        1 08R     -0.762000
     19 C13         8.4390    2.3030   -4.4720 c3        1 08R      0.193100
     20 C21         8.8360    2.8360   -3.1420 ca        1 08R     -0.215300
     21 C22         9.8460    2.1960   -2.3910 ca        1 08R      0.144100
     22 O22        10.3230    1.0170   -2.9330 os        1 08R     -0.386900
     23 C27        11.5040    0.4760   -2.3360 c3        1 08R      0.116700
     24 C26         8.2580    4.0080   -2.6420 ca        1 08R     -0.059000
     25 C25         8.6870    4.5420   -1.4300 ca        1 08R     -0.147000
     26 C24         9.6960    3.9080   -0.7020 ca        1 08R     -0.048000
     27 C23        10.2800    2.7330   -1.1740 ca        1 08R     -0.187000
     28 H1          1.0620    2.1300    1.5270 hn        1 08R      0.412800
     29 H2          1.5490    2.8460    0.0930 hn        1 08R      0.412800
     30 H3          1.9790    0.0690    2.4250 ha        1 08R      0.151000
     31 H4          3.1960   -1.9330    3.1550 hc        1 08R      0.055367
     32 H5          4.2320   -2.8610    1.9880 hc        1 08R      0.055367
     33 H6          2.4280   -3.0240    1.9270 hc        1 08R      0.055367
     34 H7          4.3780   -2.1780   -0.3900 ha        1 08R      0.138000
     35 H8          5.4400   -0.5890   -2.1680 hc        1 08R      0.046200
     36 H9          4.3580    0.6680   -2.8940 hc        1 08R      0.046200
     37 H10         3.6870   -2.3430   -2.6700 hc        1 08R      0.076700
     38 H11         1.9820   -0.0300   -3.2510 h1        1 08R      0.071200
     39 H12         1.5920   -1.8000   -3.4020 h1        1 08R      0.071200
     40 H13         2.2090    0.0240   -5.4790 hn        1 08R      0.357800
     41 H15         3.2400   -2.5820   -6.0200 h1        1 08R      0.061200
     42 H16         3.9130   -0.9750   -6.5580 h1        1 08R      0.061200
     43 H17         5.0540   -2.6200   -4.5200 h1        1 08R      0.061700
     44 H18         6.2130   -1.1900   -6.5570 h1        1 08R      0.069700
     45 H19         7.1960   -1.7380   -5.1080 h1        1 08R      0.069700
     46 H20         6.8130    1.1620   -6.2260 hx        1 08R      0.108200
     47 H21         8.3580    0.1660   -6.2490 hx        1 08R      0.108200
     48 H22         6.9330    1.0360   -3.7730 hn        1 08R      0.465800
     49 H24         7.7140    2.9940   -4.9890 hx        1 08R      0.104200
     50 H25         9.3540    2.1690   -5.1210 hx        1 08R      0.104200
     51 H26        11.2770    0.1120   -1.3050 h1        1 08R      0.062033
     52 H27        12.3210    1.2370   -2.3210 h1        1 08R      0.062033
     53 H28        11.7670   -0.3780   -3.0110 h1        1 08R      0.062033
     54 H29         7.4670    4.5170   -3.2160 ha        1 08R      0.147000
     55 H30         8.2300    5.4680   -1.0460 ha        1 08R      0.162000
     56 H31        10.0340    4.3360    0.2560 ha        1 08R      0.161000
     57 H32        11.0730    2.2410   -0.5910 ha        1 08R      0.160000
     58 H122        8.4320    0.3210   -3.8610 hn        1 08R      0.465800
@<TRIPOS>BOND
     1    1    2 1   
     2    1   28 1   
     3    1   29 1   
     4    2    3 ar  
     5    2    7 ar  
     6    3    4 ar  
     7    3   30 1   
     8    4    5 1   
     9    4    6 ar  
    10    5   31 1   
    11    5   32 1   
    12    5   33 1   
    13    6    8 ar  
    14    6   34 1   
    15    7    8 ar  
    16    8    9 1   
    17    9   10 1   
    18    9   35 1   
    19    9   36 1   
    20   10   11 1   
    21   10   14 1   
    22   10   37 1   
    23   11   12 1   
    24   11   38 1   
    25   11   39 1   
    26   12   13 1   
    27   12   40 1   
    28   13   14 1   
    29   13   41 1   
    30   13   42 1   
    31   14   15 1   
    32   14   43 1   
    33   15   16 1   
    34   16   17 1   
    35   16   44 1   
    36   16   45 1   
    37   17   18 1   
    38   17   46 1   
    39   17   47 1   
    40   18   19 1   
    41   18   48 1   
    42   18   58 1   
    43   19   20 1   
    44   19   49 1   
    45   19   50 1   
    46   20   21 ar  
    47   20   24 ar  
    48   21   22 1   
    49   21   27 ar  
    50   22   23 1   
    51   23   51 1   
    52   23   52 1   
    53   23   53 1   
    54   24   25 ar  
    55   24   54 1   
    56   25   26 ar  
    57   25   55 1   
    58   26   27 ar  
    59   26   56 1   
    60   27   57 1   
@<TRIPOS>SUBSTRUCTURE
     1 08R         1 TEMP              0 ****  ****    0 ROOT
