@<TRIPOS>MOLECULE
08S
   55    57     1     0     0
SMALL
bcc


@<TRIPOS>ATOM
      1 C1          0.5960   -0.6700    0.8000 cx        1 08S     -0.170500
      2 C2         -0.2750   -1.5000    1.6850 cx        1 08S     -0.170500
      3 C3         -1.4860   -6.1050   -5.8490 c2        1 08S     -0.404000
      4 C4         -1.0610   -4.8820   -3.7550 c2        1 08S     -0.056000
      5 C5         -1.7810   -7.4030   -6.0150 c1        1 08S     -0.246000
      6 C6          0.0490   -5.5330   -3.6700 c1        1 08S      0.264000
      7 C7         -8.1080  -11.3050   -1.7390 c2        1 08S     -0.525000
      8 C8         -9.1900  -12.0410   -1.5480 c1        1 08S      0.324000
      9 C9         -5.8430  -10.4490   -1.1350 c2        1 08S     -0.220000
     10 C11        -3.4740   -4.9920   -4.5760 cx        1 08S     -0.174000
     11 C12        -1.9960   -5.1250   -4.8890 cx        1 08S     -0.037000
     12 C13         1.2090   -6.3010   -3.6830 c3        1 08S     -0.792000
     13 C14        -7.0920  -10.8740   -0.7960 c2        1 08S      0.225000
     14 C15        -5.5420  -11.3150   -3.4980 c2        1 08S     -0.175000
     15 C16        -5.3010  -10.4150   -2.4580 c2        1 08S     -0.279000
     16 C17        -4.7970  -10.9810   -4.6560 c2        1 08S     -0.030000
     17 C18        -4.0070   -9.8360   -4.4590 c2        1 08S     -0.507000
     18 C19         1.2610   -3.1300    0.4090 c2        1 08S     -0.258000
     19 C20         1.9390   -5.0900   -0.7780 c2        1 08S     -0.227000
     20 C21         1.1050   -2.0000    1.3140 cx        1 08S     -0.156000
     21 C22        -3.1170   -9.2160   -5.4200 c2        1 08S      0.404000
     22 N23         0.4660   -3.4130   -0.6570 n2        1 08S     -0.047000
     23 N24         0.8300   -4.4710   -1.3100 n2        1 08S     -0.178000
     24 N25        -2.6820   -9.8050   -6.5340 n8        1 08S     -0.285000
     25 N26         2.4730   -6.2500   -1.3260 nu        1 08S     -0.786000
     26 O27        -2.7470   -7.9550   -5.1060 os        1 08S     -0.184000
     27 O28         0.4250   -7.6740   -1.6670 o         1 08S     -0.877000
     28 O29         2.4960   -8.2630   -2.7310 o         1 08S     -0.877000
     29 S31        -4.2190   -9.2380   -2.9080 ss        1 08S      0.767000
     30 S32         2.5290   -4.2720    0.6130 ss        1 08S      0.579000
     31 S33         1.6270   -7.2870   -2.2440 s6        1 08S      2.817000
     32 H11C       -2.7920   -2.4870   -2.0600 ha        1 08S      0.001500
     33 H12C       -3.0200   -2.7990   -2.6170 ha        1 08S      0.001500
     34 H13C        0.3400   -0.5720   -0.2700 hc        1 08S      0.128500
     35 H21         1.0620    0.2490    1.2020 hc        1 08S      0.128500
     36 H21C       -1.1590   -2.0020    1.2530 hc        1 08S      0.128500
     37 H22C       -0.4450   -1.1870    2.7320 hc        1 08S      0.128500
     38 H23C        1.8880   -1.9810    2.1030 hc        1 08S      0.141000
     39 H3         -0.7760   -5.6860   -6.5840 ha        1 08S      0.146000
     40 H5          2.1010   -5.7000   -4.0310 h1        1 08S      0.238000
     41 H4         -1.3740   -4.1250   -2.9940 ha        1 08S      0.259000
     42 H6          1.0180   -7.0530   -4.5380 h1        1 08S      0.238000
     43 H7         -7.9500  -10.9470   -2.7850 ha        1 08S      0.215000
     44 H8         -6.1920  -12.1920   -3.4290 ha        1 08S      0.188000
     45 H9         -5.1740  -10.0980   -0.3270 ha        1 08S      0.164000
     46 H101       -2.6190   -2.9370   -4.8940 hc        1 08S      0.129750
     47 H102       -3.7910   -4.7730   -3.5400 hc        1 08S      0.129750
     48 H111       -2.0410   -9.2840   -7.1190 hn        1 08S      0.286500
     49 H112       -2.9760   -3.8400   -6.4520 hc        1 08S      0.129750
     50 H25        -4.1570   -5.6980   -5.0850 hc        1 08S      0.129750
     51 H26         3.4450   -6.3830   -1.1370 hn        1 08S      0.285000
     52 F30        -7.4490  -10.8800    0.5120 f         1 08S     -0.087000
     53 H252       -2.9460  -10.7350   -6.7720 hn        1 08S      0.286500
     54 C10        -2.7910   -3.9220   -5.3650 cx        1 08S     -0.174000
     55 Cl         -4.9070  -11.8840   -6.0630 cl        1 08S      0.057000
@<TRIPOS>BOND
     1    1    2 1   
     2    1   20 1   
     3    1   34 1   
     4    1   35 1   
     5    2   20 1   
     6    2   36 1   
     7    2   37 1   
     8    3    5 1   
     9    3   11 1   
    10    3   39 1   
    11    4    6 1   
    12    4   11 1   
    13    4   41 1   
    14    5   26 1   
    15    6   12 1   
    16    7    8 1   
    17    7   13 1   
    18    7   43 1   
    19    9   13 1   
    20    9   15 1   
    21    9   45 1   
    22   10   11 1   
    23   10   47 1   
    24   10   50 1   
    25   10   54 1   
    26   11   54 1   
    27   12   31 1   
    28   12   40 1   
    29   12   42 1   
    30   13   52 1   
    31   14   15 1   
    32   14   16 1   
    33   14   44 1   
    34   15   29 1   
    35   16   17 1   
    36   16   55 1   
    37   17   21 1   
    38   17   29 1   
    39   18   20 1   
    40   18   22 1   
    41   18   30 1   
    42   19   23 1   
    43   19   25 1   
    44   19   30 1   
    45   20   38 1   
    46   21   24 1   
    47   21   26 1   
    48   22   23 1   
    49   24   48 1   
    50   24   53 1   
    51   25   31 1   
    52   25   51 1   
    53   27   31 1   
    54   28   31 1   
    55   32   33 1   
    56   46   54 1   
    57   49   54 1   
@<TRIPOS>SUBSTRUCTURE
     1 08S         1 TEMP              0 ****  ****    0 ROOT
