@<TRIPOS>MOLECULE
08S
   54    45     1     0     0
SMALL
bcc


@<TRIPOS>ATOM
      1 C1          9.7380    4.4680    0.8580 c3        1 08S     -0.207000
      2 C2          8.0230    5.3030    2.5030 c3        1 08S     -0.207000
      3 C3         -0.8200    1.3570   -2.3390 c1        1 08S     -0.096500
      4 C4         -0.3290    0.8530   -0.0320 c1        1 08S     -0.158000
      5 C5          0.4340    1.9650   -2.4710 c1        1 08S     -0.096500
      6 C6          0.9200    1.4590   -0.1650 c1        1 08S     -0.012000
      7 C7         -8.5810   -7.1600    1.2790 c1        1 08S     -0.096500
      8 C8         -7.4650   -7.0150    0.4640 c1        1 08S     -0.096500
      9 C9         -8.4730   -4.8140    1.8680 c1        1 08S     -0.141000
     10 C10        -2.6360    0.2440   -0.9350 c3        1 08S     -0.164000
     11 C11        -2.6120   -1.3100   -1.0690 c3        1 08S     -0.020000
     12 C12        -1.1990    0.8020   -1.1200 c1        1 08S     -0.001000
     13 C13         1.2990    2.0150   -1.3870 c1        1 08S     -0.851000
     14 C14        -9.0870   -6.0530    1.9850 c1        1 08S      0.114000
     15 C15        -6.8540   -5.7870    0.3450 c1        1 08S     -0.194500
     16 C16        -7.3660   -4.6660    1.0600 c1        1 08S     -0.194500
     17 C17        -5.5650   -5.3120   -0.4830 c1        1 08S     -0.051000
     18 C18        -5.3540   -3.9060   -0.2280 c1        1 08S     -0.406000
     19 C19         7.2980    3.8680    0.5920 c1        1 08S     -0.233000
     20 C20         5.2430    2.9960   -0.4920 c1        1 08S     -0.233000
     21 C21         8.4140    4.1290    1.6110 c2        1 08S     -0.031000
     22 C22        -4.1980   -3.2540   -0.9430 c1        1 08S      0.375000
     23 N23         7.2270    4.3980   -0.7200 n2        1 08S     -0.061000
     24 N24         5.9150    3.8410   -1.4140 n2        1 08S     -0.061000
     25 N25        -3.9220   -1.8480   -0.7390 n3        1 08S     -0.370000
     26 N26         4.0240    2.2840   -0.7350 n2        1 08S     -0.769000
     27 O27        -3.4490   -3.9250   -1.6160 o         1 08S     -0.356000
     28 O28         2.9670    3.6570   -2.6190 o         1 08S     -0.907000
     29 O29         2.4140    4.2750   -0.5640 o         1 08S     -0.907000
     30 F30       -10.0740   -6.2820    2.8440 f         1 08S     -0.098000
     31 S31        -6.4540   -3.4310    0.7380 s         1 08S      0.639000
     32 S32         6.0650    2.9660    0.8050 ss        1 08S      0.399000
     33 S33         2.6960    3.0930   -1.3330 s6        1 08S      2.874000
     34 CL         -4.8260   -6.5330   -1.5010 cl        1 08S      0.035000
     35 H11C        9.5790    5.2050    0.2310 hc        1 08S      0.084667
     36 H12C       10.4300    4.7340    1.5100 hc        1 08S      0.084667
     37 H13C       10.0440    3.6770    0.3610 hc        1 08S      0.084667
     38 H21         8.5480    3.3270    2.1650 ha        1 08S      0.089000
     39 H21C        8.0680    6.1330    1.9880 hc        1 08S      0.084667
     40 H22C        7.1010    5.1710    2.8350 hc        1 08S      0.084667
     41 H23C        8.6370    5.3560    3.2600 hc        1 08S      0.084667
     42 H3         -1.4300    1.3230   -3.1030 ha        1 08S      0.155000
     43 H5          0.7020    2.3590   -3.3350 ha        1 08S      0.155000
     44 H4         -0.5930    0.4640    0.8220 ha        1 08S      0.143000
     45 H6          1.5260    1.4940    0.5930 ha        1 08S      0.160000
     46 H7         -9.0100   -8.0250    1.3630 ha        1 08S      0.155000
     47 H8         -7.1140   -7.7850   -0.0260 ha        1 08S      0.155000
     48 H9         -8.8270   -4.0430    2.3610 ha        1 08S      0.159000
     49 H101       -3.2200    0.6200   -1.6150 hc        1 08S      0.102500
     50 H102       -2.9720    0.4910   -0.0400 hc        1 08S      0.102500
     51 H111       -1.9480   -1.6770   -0.4600 h1        1 08S      0.107000
     52 H112       -2.3830   -1.5530   -1.9820 h1        1 08S      0.107000
     53 H25        -4.5450   -1.3140   -0.3440 hn        1 08S      0.233000
     54 H26         3.9950    1.3690   -0.6280 hn        1 08S      0.254000
@<TRIPOS>BOND
     1    1   21 1   
     2    1   35 1   
     3    1   36 1   
     4    1   37 1   
     5    2   21 1   
     6    2   39 1   
     7    2   40 1   
     8    2   41 1   
     9    3    5 1   
    10    3   42 1   
    11    4   12 1   
    12    4   44 1   
    13    5   43 1   
    14    6   13 1   
    15    6   45 1   
    16    7    8 1   
    17    7   46 1   
    18    8   47 1   
    19    9   14 1   
    20    9   48 1   
    21   10   11 1   
    22   10   12 1   
    23   10   49 1   
    24   10   50 1   
    25   11   25 1   
    26   11   51 1   
    27   11   52 1   
    28   13   33 1   
    29   14   30 1   
    30   15   16 1   
    31   17   18 1   
    32   18   31 1   
    33   19   23 1   
    34   19   32 1   
    35   20   24 1   
    36   20   32 1   
    37   21   38 1   
    38   22   25 1   
    39   22   27 1   
    40   23   24 1   
    41   25   53 1   
    42   26   33 1   
    43   26   54 1   
    44   28   33 1   
    45   29   33 1   
@<TRIPOS>SUBSTRUCTURE
     1 08S         1 TEMP              0 ****  ****    0 ROOT
