@<TRIPOS>MOLECULE
08S
   54    57     1     0     0
SMALL
bcc


@<TRIPOS>ATOM
      1 C1         -6.7100   -4.7380    0.2200 c3        1 08S     -0.088600
      2 C2         -8.5460   -3.7230    1.5700 c3        1 08S     -0.088600
      3 C3         -1.3930    1.3040   -1.1000 ca        1 08S     -0.161000
      4 C4         -1.8190    0.5600    1.1600 ca        1 08S     -0.161000
      5 C5         -2.6830    1.8100   -1.1710 ca        1 08S      0.006500
      6 C6         -3.1120    1.0700    1.0800 ca        1 08S      0.006500
      7 C7          9.3830   -0.8990    0.5660 ca        1 08S     -0.166000
      8 C8          8.2720   -0.1610    0.9170 ca        1 08S     -0.052000
      9 C9          8.2430   -1.7440   -1.4390 ca        1 08S     -0.142000
     10 C11         1.4640    1.2440    0.1630 c3        1 08S      0.096000
     11 C12        -0.9490    0.6700    0.0700 ca        1 08S     -0.004300
     12 C13        -3.5670    1.7000   -0.0860 ca        1 08S     -0.411500
     13 C14         9.3680   -1.6930   -0.6150 ca        1 08S      0.147900
     14 C15         7.1290   -0.2010    0.1010 ca        1 08S     -0.101800
     15 C16         7.1170   -0.9930   -1.0810 ca        1 08S     -0.072100
     16 C17         5.8680    0.4760    0.2740 cc        1 08S      0.045200
     17 C18         4.9850    0.1850   -0.7450 cd        1 08S     -0.182600
     18 C19        -7.0780   -2.2900    0.1880 cc        1 08S      0.355700
     19 C20        -6.2890   -0.0930   -0.3860 cc        1 08S      0.633300
     20 C21        -7.7360   -3.6220    0.2920 c3        1 08S     -0.086000
     21 C22         3.6130    0.7100   -0.9190 c         1 08S      0.699300
     22 N23        -6.1610   -1.8020    1.0480 nd        1 08S     -0.286000
     23 N24        -5.7220   -0.6150    0.7510 nd        1 08S     -0.389000
     24 N25         2.8260    0.7950    0.2110 n         1 08S     -0.558900
     25 N26        -5.9980    1.1500   -0.9020 nh        1 08S     -0.825800
     26 O27         3.1850    1.0620   -2.0380 o         1 08S     -0.596100
     27 O28        -5.5900    2.6220    1.1100 o         1 08S     -0.638300
     28 O29        -5.1180    3.4090   -1.0990 o         1 08S     -0.638300
     29 S31         5.6520   -0.8640   -1.8860 ss        1 08S      0.168500
     30 S32        -7.4390   -1.1930   -1.0970 ss        1 08S     -0.220800
     31 S33        -5.1010    2.3440   -0.1720 sy        1 08S      1.522200
     32 CL          5.5800    1.5010    1.5710 cl        1 08S     -0.047400
     33 H11C       -6.0090   -4.6840    1.0870 hc        1 08S      0.044867
     34 H12C       -7.2300   -5.7260    0.2410 hc        1 08S      0.044867
     35 H13C       -6.1170   -4.6660   -0.7230 hc        1 08S      0.044867
     36 H21        -8.4380   -3.7260   -0.5860 hc        1 08S      0.051700
     37 H21C       -7.8820   -3.6460    2.4640 hc        1 08S      0.044867
     38 H22C       -9.3050   -2.9060    1.6190 hc        1 08S      0.044867
     39 H23C       -9.0750   -4.7060    1.6010 hc        1 08S      0.044867
     40 H3         -0.7130    1.3980   -1.9610 ha        1 08S      0.147000
     41 H5         -3.0200    2.3260   -2.0890 ha        1 08S      0.162000
     42 H4         -1.4860    0.0640    2.0850 ha        1 08S      0.147000
     43 H6         -3.7910    0.9810    1.9490 ha        1 08S      0.162000
     44 H7         10.2920   -0.8860    1.1850 ha        1 08S      0.155000
     45 H8          8.2720    0.4600    1.8260 ha        1 08S      0.152000
     46 H9          8.2470   -2.3590   -2.3490 ha        1 08S      0.158000
     47 H101        0.6040   -0.5430   -0.7570 hc        1 08S      0.062200
     48 H102        0.5410   -0.5310    1.0530 hc        1 08S      0.062200
     49 H111        1.3220    1.8810   -0.7580 h1        1 08S      0.069200
     50 H112        1.2770    1.8860    1.0710 h1        1 08S      0.069200
     51 H25         3.1620    0.4280    1.0680 hn        1 08S      0.319500
     52 H26        -6.3890    1.3160   -1.8040 hn        1 08S      0.462800
     53 C10         0.4270    0.1110    0.1390 c3        1 08S     -0.078100
     54 F30        10.4720   -2.4090   -0.9350 f         1 08S     -0.133900
@<TRIPOS>BOND
     1    1   20 1   
     2    1   33 1   
     3    1   34 1   
     4    1   35 1   
     5    2   20 1   
     6    2   37 1   
     7    2   38 1   
     8    2   39 1   
     9    3    5 ar  
    10    3   11 ar  
    11    3   40 1   
    12    4    6 ar  
    13    4   11 ar  
    14    4   42 1   
    15    5   12 ar  
    16    5   41 1   
    17    6   12 ar  
    18    6   43 1   
    19    7    8 ar  
    20    7   13 ar  
    21    7   44 1   
    22    8   14 ar  
    23    8   45 1   
    24    9   13 ar  
    25    9   15 ar  
    26    9   46 1   
    27   10   24 1   
    28   10   49 1   
    29   10   50 1   
    30   10   53 1   
    31   11   53 1   
    32   12   31 1   
    33   13   54 1   
    34   14   15 ar  
    35   14   16 1   
    36   15   29 1   
    37   16   17 2   
    38   16   32 1   
    39   17   21 1   
    40   17   29 1   
    41   18   20 1   
    42   18   22 2   
    43   18   30 1   
    44   19   23 2   
    45   19   25 1   
    46   19   30 1   
    47   20   36 1   
    48   21   24 1   
    49   21   26 2   
    50   22   23 1   
    51   24   51 1   
    52   25   31 1   
    53   25   52 1   
    54   27   31 2   
    55   28   31 2   
    56   47   53 1   
    57   48   53 1   
@<TRIPOS>SUBSTRUCTURE
     1 08S         1 TEMP              0 ****  ****    0 ROOT
