@<TRIPOS>MOLECULE
08S
   56    56     1     0     0
SMALL
bcc


@<TRIPOS>ATOM
      1 C1          4.2740    0.1020   -0.7480 c3        1 08S     -0.184000
      2 C2          2.3070    1.0300    0.3370 c1        1 08S      0.011000
      3 C3         -2.6190   -4.3120   -4.1700 c2        1 08S     -0.534000
      4 C4         -2.3480   -6.4630   -2.9740 c2        1 08S     -0.123000
      5 C5         -1.7200   -3.5150   -3.5420 c1        1 08S      0.536000
      6 C6         -1.3970   -6.0330   -2.1400 cu        1 08S     -0.552000
      7 C7         -5.8670  -14.6090   -2.6230 c2        1 08S     -0.562000
      8 C8         -5.2910  -15.6160   -1.9760 c1        1 08S      0.395000
      9 C9         -7.2390  -12.5170   -2.7330 c2        1 08S     -0.278000
     10 C11        -4.0340   -7.7380   -4.9600 c3        1 08S     -0.009000
     11 C12        -2.9550   -5.6600   -3.9820 c2        1 08S      0.279000
     12 C13        -0.6150   -4.8570   -1.8210 cx        1 08S     -0.847000
     13 C14        -6.9770  -13.7660   -2.2320 c2        1 08S      0.299000
     14 C15        -5.0440  -11.8620   -3.8400 c2        1 08S     -0.197000
     15 C16        -6.4290  -11.7750   -3.6310 c2        1 08S     -0.182000
     16 C17        -4.5940  -10.9180   -4.7840 c2        1 08S      0.004000
     17 C18        -5.6470  -10.1130   -5.2730 c2        1 08S     -0.633000
     18 C19         2.6520   -1.4640    0.2790 c2        1 08S     -0.324000
     19 C20         1.9570   -3.7480    0.4620 c2        1 08S     -0.323000
     20 C21         3.2380   -0.0900    0.3580 c3        1 08S     -0.132000
     21 C22        -5.5370   -9.1020   -6.2850 c2        1 08S      0.427000
     22 N23         1.7110   -1.8230   -0.6400 n2        1 08S     -0.058000
     23 N24         1.3320   -3.0540   -0.5450 n2        1 08S     -0.104000
     24 N25        -6.2340   -9.1160   -7.4200 n3        1 08S     -0.250000
     25 N26         1.6650   -5.1060    0.7170 nh        1 08S     -0.347000
     26 O27        -4.7310   -8.0120   -6.2020 os        1 08S     -0.206000
     27 O28        -0.8630   -6.2680    0.3840 o         1 08S     -0.846500
     28 O29         0.8240   -6.9680   -1.1970 o         1 08S     -0.846500
     29 S31        -7.1050  -10.5800   -4.5790 ss        1 08S      0.716000
     30 S32         3.0820   -2.7470    1.3130 ss        1 08S      0.548000
     31 S33        -0.2180   -6.1740   -0.8140 s6        1 08S      2.899000
     32 H11C        3.4690    0.4530   -4.0530 ha        1 08S      0.001000
     33 H12C        3.1690   -0.1520   -4.0080 ha        1 08S      0.001000
     34 H13C        3.8000   -0.0030   -1.7530 hc        1 08S      0.101667
     35 H21         5.0850   -0.6580   -0.6470 hc        1 08S      0.101667
     36 H21C        1.2300    0.8080    0.3210 ha        1 08S      0.056000
     37 H22C        4.7180    1.1250   -0.6620 hc        1 08S      0.101667
     38 H23C        3.7730    0.0170    1.3580 hc        1 08S      0.166000
     39 H3         -3.1630   -3.7500   -4.9810 ha        1 08S      0.241000
     40 H5         -1.1170   -3.9530   -1.3820 h1        1 08S      0.239000
     41 H4         -2.6990   -7.5100   -2.8750 ha        1 08S      0.172000
     42 H6          0.1380   -4.4670   -2.5570 h1        1 08S      0.239000
     43 H7         -5.4520  -14.4030   -3.6380 ha        1 08S      0.217000
     44 H8         -4.3790  -12.5590   -3.3170 ha        1 08S      0.201000
     45 H9         -8.1800  -12.0300   -2.4090 ha        1 08S      0.177000
     46 H101       -5.0090   -5.8490   -4.4710 hc        1 08S      0.166000
     47 H102       -3.0010   -8.1640   -5.0850 h1        1 08S      0.136500
     48 H111       -6.1490   -8.3780   -8.0940 hn        1 08S      0.293000
     49 H112       -3.9060   -5.7920   -5.9030 hc        1 08S      0.166000
     50 H25        -4.5620   -8.2190   -4.0960 h1        1 08S      0.136500
     51 H26         2.4760   -5.6800    0.5520 hn        1 08S      0.208500
     52 F30        -7.8320  -14.2840   -1.3260 f         1 08S     -0.060000
     53 H252       -6.8160   -9.9000   -7.6470 hn        1 08S      0.293000
     54 H262        1.3370   -5.2270    1.6610 hn        1 08S      0.208500
     55 C10        -4.0140   -6.2180   -4.8610 c3        1 08S     -0.213000
     56 CL         -3.0060  -10.8390   -5.3010 cl        1 08S      0.076000
@<TRIPOS>BOND
     1    1   20 1   
     2    1   34 1   
     3    1   35 1   
     4    1   37 1   
     5    2   20 1   
     6    2   36 1   
     7    3    5 1   
     8    3   11 1   
     9    3   39 1   
    10    4    6 1   
    11    4   11 1   
    12    4   41 1   
    13    6   12 1   
    14    6   31 1   
    15    7    8 1   
    16    7   13 1   
    17    7   43 1   
    18    9   13 1   
    19    9   15 1   
    20    9   45 1   
    21   10   26 1   
    22   10   47 1   
    23   10   50 1   
    24   10   55 1   
    25   11   55 1   
    26   12   31 1   
    27   12   40 1   
    28   12   42 1   
    29   13   52 1   
    30   14   15 1   
    31   14   16 1   
    32   14   44 1   
    33   15   29 1   
    34   16   17 1   
    35   16   56 1   
    36   17   21 1   
    37   17   29 1   
    38   18   20 1   
    39   18   22 1   
    40   18   30 1   
    41   19   23 1   
    42   19   25 1   
    43   19   30 1   
    44   20   38 1   
    45   21   24 1   
    46   21   26 1   
    47   22   23 1   
    48   24   48 1   
    49   24   53 1   
    50   25   51 1   
    51   25   54 1   
    52   27   31 1   
    53   28   31 1   
    54   32   33 1   
    55   46   55 1   
    56   49   55 1   
@<TRIPOS>SUBSTRUCTURE
     1 08S         1 TEMP              0 ****  ****    0 ROOT
