@<TRIPOS>MOLECULE
08S
   55    54     1     0     0
SMALL
bcc


@<TRIPOS>ATOM
      1 C1         -1.2940   -0.6890   -0.4680 c2        1 08S     -0.129000
      2 C2          0.1540   -0.8590    1.5330 c3        1 08S     -0.193000
      3 C3         -0.5570   -6.9740   -4.2200 c2        1 08S      0.033000
      4 C4          3.6160   -5.5750   -3.7620 c1        1 08S     -0.102000
      5 C5          0.5330   -7.1530   -3.4920 c1        1 08S      0.015000
      6 C6          2.7800   -6.3220   -3.3420 c1        1 08S     -0.238000
      7 C7         -6.8140  -11.3060   -1.2340 c2        1 08S     -0.525000
      8 C8         -7.6320  -12.0880   -0.5490 c1        1 08S      0.324000
      9 C9         -4.5770  -10.5690   -2.0630 c2        1 08S     -0.222000
     10 C11        -3.1790   -7.0710   -5.6610 c2        1 08S     -0.471000
     11 C12        -1.6600   -6.1710   -3.9380 c2        1 08S     -0.337000
     12 C13         1.7800   -7.2370   -2.8910 c3        1 08S     -0.481000
     13 C14        -5.3810  -11.1130   -1.1060 c2        1 08S      0.224000
     14 C15        -5.9530  -10.7810   -4.1670 c2        1 08S     -0.194000
     15 C16        -4.9860  -10.1630   -3.3720 c2        1 08S     -0.271000
     16 C17        -6.0880  -10.1420   -5.4250 c2        1 08S      0.020000
     17 C18        -5.2080   -9.0490   -5.5450 c2        1 08S     -0.555000
     18 C19         0.1380   -2.6550   -0.1820 c2        1 08S     -0.261000
     19 C20         1.3590   -4.6730   -0.5370 c2        1 08S     -0.261000
     20 C21        -0.3850   -1.3700    0.2450 c2        1 08S     -0.090000
     21 C22        -5.0980   -8.2240   -6.7070 c2        1 08S      0.355000
     22 N23        -0.3720   -3.4280   -1.1840 n2        1 08S     -0.043000
     23 N24         0.2900   -4.5180   -1.3900 n2        1 08S     -0.098000
     24 N25        -4.3430   -6.9100   -6.4990 n4        1 08S     -0.015000
     25 N26         2.1950   -5.7890   -0.5640 nh        1 08S     -0.775000
     26 O27        -5.5040   -8.3730   -7.8530 o         1 08S     -0.213000
     27 O28         0.4020   -7.5470   -0.6580 o         1 08S     -0.865000
     28 O29         2.7090   -8.1850   -0.6810 o         1 08S     -0.865000
     29 S31        -4.2820   -8.8680   -4.1530 ss        1 08S      0.733000
     30 S32         1.5170   -3.3590    0.5620 ss        1 08S      0.569000
     31 S33         1.7150   -7.2580   -0.9890 s6        1 08S      2.794000
     32 H11C       -1.7120   -1.0540   -1.4180 ha        1 08S      0.136000
     33 H12C       -3.1050   -1.3630   -3.2850 ha        1 08S      0.005750
     34 H13C       -2.6380   -0.9660   -3.5710 ha        1 08S      0.005750
     35 H21        -1.6720    0.2870   -0.1300 ha        1 08S      0.136000
     36 H21C       -0.3320   -1.3880    2.3920 hc        1 08S      0.095000
     37 H22C       -0.0420    0.2360    1.6410 hc        1 08S      0.095000
     38 H23C        1.2610   -1.0210    1.5970 hc        1 08S      0.095000
     39 H3         -0.5700   -7.6040   -5.1460 ha        1 08S      0.196000
     40 H5          2.1540   -8.3080   -3.0760 h1        1 08S      0.233000
     41 H4          4.3680   -4.9130   -4.1190 ha        1 08S      0.244000
     42 H6         -1.5970   -5.4780   -3.0820 ha        1 08S      0.177000
     43 H7         -7.2960  -10.6910   -2.0320 ha        1 08S      0.216000
     44 H8         -6.5180  -11.6750   -3.8850 ha        1 08S      0.186000
     45 H9         -3.5070  -10.4270   -1.8210 ha        1 08S      0.164000
     46 H101       -3.2220   -8.2500   -2.1030 ha        1 08S      0.005750
     47 H102       -2.5150   -7.8810   -5.9990 hx        1 08S      0.174000
     48 H111       -4.9920   -6.2340   -6.0830 hn        1 08S      0.237000
     49 H112       -3.5630   -5.3700   -4.4030 ha        1 08S      0.133000
     50 H25        -2.8410   -7.8720   -2.5260 ha        1 08S      0.005750
     51 H26         3.1560   -5.5730   -0.3940 hn        1 08S      0.284000
     52 F30        -4.8320  -11.4810    0.0770 f         1 08S     -0.087000
     53 H252       -4.0600   -6.5540   -7.4230 hn        1 08S      0.237000
     54 C10        -2.8420   -6.1690   -4.6770 c2        1 08S      0.069000
     55 CL         -7.1770  -10.6560   -6.5770 cl        1 08S      0.091000
@<TRIPOS>BOND
     1    1   20 1   
     2    1   32 1   
     3    1   35 1   
     4    2   20 1   
     5    2   36 1   
     6    2   37 1   
     7    2   38 1   
     8    3    5 1   
     9    3   11 1   
    10    3   39 1   
    11    4    6 1   
    12    4   41 1   
    13    5   12 1   
    14    6   12 1   
    15    7    8 1   
    16    7   13 1   
    17    7   43 1   
    18    9   13 1   
    19    9   15 1   
    20    9   45 1   
    21   10   24 1   
    22   10   47 1   
    23   10   54 1   
    24   11   42 1   
    25   11   54 1   
    26   12   31 1   
    27   12   40 1   
    28   13   52 1   
    29   14   15 1   
    30   14   16 1   
    31   14   44 1   
    32   15   29 1   
    33   16   17 1   
    34   16   55 1   
    35   17   21 1   
    36   17   29 1   
    37   18   20 1   
    38   18   22 1   
    39   18   30 1   
    40   19   23 1   
    41   19   25 1   
    42   19   30 1   
    43   21   24 1   
    44   21   26 1   
    45   22   23 1   
    46   24   48 1   
    47   24   53 1   
    48   25   31 1   
    49   25   51 1   
    50   27   31 1   
    51   28   31 1   
    52   33   34 1   
    53   46   50 1   
    54   49   54 1   
@<TRIPOS>SUBSTRUCTURE
     1 08S         1 TEMP              0 ****  ****    0 ROOT
