@<TRIPOS>MOLECULE
08W
   45    47     1     0     0
SMALL
bcc


@<TRIPOS>ATOM
      1 O37         0.4830   -0.4570    0.6920 o         1 08W     -0.415100
      2 C36         1.5580    0.0210    0.3600 c         1 08W      0.497600
      3 N38         2.4510    0.5610    1.4600 ny        1 08W     -0.655800
      4 C40         1.8530    0.4410    2.8090 c3        1 08W      0.081100
      5 C33         2.0990    0.1450   -0.9760 cc        1 08W      0.161800
      6 N32         3.3870    0.6470   -1.2760 nc        1 08W     -0.647000
      7 C30         3.4940    0.6080   -2.6060 cd        1 08W      0.475400
      8 C34         1.4230   -0.2030   -2.1700 cd        1 08W     -0.053600
      9 N29         2.3020    0.1000   -3.2030 na        1 08W     -0.166000
     10 C6          2.1020   -0.1240   -4.5860 ca        1 08W     -0.001200
     11 C7          2.7960   -1.1680   -5.2260 ca        1 08W     -0.024000
     12 C9          2.6210   -1.3960   -6.5950 ca        1 08W     -0.159600
     13 C17         3.3700   -2.4930   -7.2370 c         1 08W      0.710100
     14 O18         4.1660   -3.2360   -6.6630 o         1 08W     -0.504500
     15 N16         3.1470   -2.6890   -8.6590 n         1 08W     -0.276800
     16 N19         3.8360   -3.6270   -9.3950 nv        1 08W     -0.646800
     17 S21         1.6680   -3.3080  -11.8410 s6        1 08W      1.679500
     18 O23         0.5720   -2.7010  -12.3560 o         1 08W     -0.577800
     19 C24         3.0130   -3.2280  -12.7390 c3        1 08W     -0.484300
     20 O22         1.6000   -4.3320  -10.9470 o         1 08W     -0.577800
     21 C15         2.2510   -1.8660   -9.3410 cc        1 08W      0.700400
     22 O28         2.0010   -1.9830  -10.6190 os        1 08W     -0.546300
     23 N13         1.5670   -0.8480   -8.7140 na        1 08W     -0.280300
     24 C10         1.7420   -0.5880   -7.3490 ca        1 08W      0.062800
     25 C11         1.0480    0.4630   -6.7100 ca        1 08W     -0.102000
     26 C5          1.2300    0.6900   -5.3510 ca        1 08W     -0.083300
     27 C2          0.4560    1.8530   -4.7000 c3        1 08W      0.690200
     28 F1         -0.3350    2.5550   -5.5680 f         1 08W     -0.209967
     29 F3         -0.3910    1.4410   -3.7020 f         1 08W     -0.209967
     30 F4          1.2700    2.7900   -4.1200 f         1 08W     -0.209967
     31 H1          2.6490    1.5500    1.2540 hn        1 08W      0.472800
     32 H2          1.6460   -0.6410    3.0340 hx        1 08W      0.116367
     33 H3          0.8840    1.0090    2.8430 hx        1 08W      0.116367
     34 H4          2.5710    0.8600    3.5650 hx        1 08W      0.116367
     35 H5          4.3610    0.9350   -3.2000 h5        1 08W      0.105100
     36 H6          0.4130   -0.6030   -2.3250 h4        1 08W      0.232000
     37 H7          3.4890   -1.8260   -4.6650 ha        1 08W      0.201000
     38 H8          3.4320   -4.5440   -9.2130 hn        1 08W      0.412300
     39 H9          2.8630   -3.5160  -13.8230 h1        1 08W      0.183367
     40 H10         3.8590   -3.8850  -12.3870 h1        1 08W      0.183367
     41 H11         3.4720   -2.1980  -12.8110 h1        1 08W      0.183367
     42 H12         0.9460   -0.2820   -9.2670 hn        1 08W      0.364700
     43 H13         0.3570    1.1130   -7.2820 ha        1 08W      0.201000
     44 H382        3.3440    0.0510    1.4270 hn        1 08W      0.472800
     45 H192        4.8040   -3.6300   -9.0830 hn        1 08W      0.412300
@<TRIPOS>BOND
     1    1    2 2   
     2    2    3 1   
     3    2    5 1   
     4    3    4 1   
     5    3   31 1   
     6    3   44 1   
     7    4   32 1   
     8    4   33 1   
     9    4   34 1   
    10    5    6 1   
    11    5    8 2   
    12    6    7 2   
    13    7    9 1   
    14    7   35 1   
    15    8    9 1   
    16    8   36 1   
    17    9   10 1   
    18   10   11 ar  
    19   10   26 ar  
    20   11   12 ar  
    21   11   37 1   
    22   12   13 1   
    23   12   24 ar  
    24   13   14 2   
    25   13   15 1   
    26   15   16 1   
    27   15   21 2   
    28   16   38 1   
    29   16   45 1   
    30   17   18 2   
    31   17   19 1   
    32   17   20 2   
    33   17   22 1   
    34   19   39 1   
    35   19   40 1   
    36   19   41 1   
    37   21   22 1   
    38   21   23 1   
    39   23   24 1   
    40   23   42 1   
    41   24   25 ar  
    42   25   26 ar  
    43   25   43 1   
    44   26   27 1   
    45   27   28 1   
    46   27   29 1   
    47   27   30 1   
@<TRIPOS>SUBSTRUCTURE
     1 08W         1 TEMP              0 ****  ****    0 ROOT
