@<TRIPOS>MOLECULE
08W
   45    47     1     0     0
SMALL
bcc


@<TRIPOS>ATOM
      1 O37         0.4130   -0.3960    0.6670 o         1 08W     -0.415100
      2 C36         1.5220    0.0150    0.3560 c         1 08W      0.497600
      3 N38         2.4290    0.4900    1.4760 n4        1 08W     -0.655800
      4 C40         1.8030    0.3980    2.8130 c3        1 08W      0.081100
      5 C33         2.0920    0.1150   -0.9690 cc        1 08W      0.161800
      6 N32         3.4130    0.5360   -1.2450 nc        1 08W     -0.647000
      7 C30         3.5390    0.5000   -2.5730 cd        1 08W      0.475400
      8 C34         1.4140   -0.1810   -2.1760 cd        1 08W     -0.053600
      9 N29         2.3270    0.0740   -3.1930 na        1 08W     -0.166000
     10 C6          2.1360   -0.1270   -4.5810 ca        1 08W     -0.001200
     11 C7          2.7720   -1.2070   -5.2190 ca        1 08W     -0.024000
     12 C9          2.6060   -1.4130   -6.5930 ca        1 08W     -0.159600
     13 C17         3.2940   -2.5510   -7.2330 c         1 08W      0.710100
     14 O18         4.0320   -3.3470   -6.6530 o         1 08W     -0.504500
     15 N16         3.0820   -2.7220   -8.6600 n         1 08W     -0.276800
     16 N19         3.7220   -3.6960   -9.3930 nh        1 08W     -0.646800
     17 S21         1.6160   -3.2220  -11.8680 s6        1 08W      1.679500
     18 O23         0.5680   -2.5430  -12.3940 o         1 08W     -0.577800
     19 C24         2.9770   -3.2190  -12.7460 c3        1 08W     -0.484300
     20 O22         1.4710   -4.2460  -10.9850 o         1 08W     -0.577800
     21 C15         2.2500   -1.8380   -9.3480 cc        1 08W      0.700400
     22 O28         2.0130   -1.9300  -10.6310 os        1 08W     -0.546300
     23 N13         1.6220   -0.7840   -8.7230 na        1 08W     -0.280300
     24 C10         1.7920   -0.5460   -7.3530 ca        1 08W      0.062800
     25 C11         1.1550    0.5420   -6.7150 ca        1 08W     -0.102000
     26 C5          1.3290    0.7470   -5.3530 ca        1 08W     -0.083300
     27 C2          0.6210    1.9520   -4.7040 c3        1 08W      0.690200
     28 F1         -0.1100    2.7090   -5.5780 f         1 08W     -0.209967
     29 F3         -0.2660    1.5870   -3.7220 f         1 08W     -0.209967
     30 F4          1.4830    2.8310   -4.1020 f         1 08W     -0.209967
     31 H1          3.2880   -0.0770    1.4530 hn        1 08W      0.472800
     32 H2          2.5330    0.7660    3.5850 hx        1 08W      0.116367
     33 H3          0.8710    1.0270    2.8360 hx        1 08W      0.116367
     34 H4          1.5240   -0.6700    3.0260 hx        1 08W      0.116367
     35 H5          4.4350    0.7750   -3.1500 h5        1 08W      0.105100
     36 H6          0.3840   -0.5140   -2.3510 h4        1 08W      0.232000
     37 H7          3.4140   -1.9120   -4.6540 ha        1 08W      0.201000
     38 H8          4.6830   -3.7620   -9.0660 hn        1 08W      0.412300
     39 H9          3.7760   -3.9300  -12.3870 h1        1 08W      0.183367
     40 H10         3.5000   -2.2200  -12.8040 h1        1 08W      0.183367
     41 H11         2.8270   -3.4910  -13.8340 h1        1 08W      0.183367
     42 H12         1.0470   -0.1760   -9.2810 hn        1 08W      0.364700
     43 H13         0.5160    1.2390   -7.2930 ha        1 08W      0.201000
     44 H382        2.6930    1.4650    1.2800 hn        1 08W      0.472800
     45 H192        3.2580   -4.5870   -9.2240 hn        1 08W      0.412300
@<TRIPOS>BOND
     1    1    2 2   
     2    2    3 1   
     3    2    5 1   
     4    3    4 1   
     5    3   31 1   
     6    3   44 1   
     7    4   32 1   
     8    4   33 1   
     9    4   34 1   
    10    5    6 1   
    11    5    8 2   
    12    6    7 2   
    13    7    9 1   
    14    7   35 1   
    15    8    9 1   
    16    8   36 1   
    17    9   10 1   
    18   10   11 ar  
    19   10   26 ar  
    20   11   12 ar  
    21   11   37 1   
    22   12   13 1   
    23   12   24 ar  
    24   13   14 2   
    25   13   15 1   
    26   15   16 1   
    27   15   21 2   
    28   16   38 1   
    29   16   45 1   
    30   17   18 2   
    31   17   19 1   
    32   17   20 2   
    33   17   22 1   
    34   19   39 1   
    35   19   40 1   
    36   19   41 1   
    37   21   22 1   
    38   21   23 1   
    39   23   24 1   
    40   23   42 1   
    41   24   25 ar  
    42   25   26 ar  
    43   25   43 1   
    44   26   27 1   
    45   27   28 1   
    46   27   29 1   
    47   27   30 1   
@<TRIPOS>SUBSTRUCTURE
     1 08W         1 TEMP              0 ****  ****    0 ROOT
