@<TRIPOS>MOLECULE
08W
   45    47     1     0     0
SMALL
bcc


@<TRIPOS>ATOM
      1 O37         0.4090   -0.3950    0.6660 o         1 08W     -0.415100
      2 C36         1.5100    0.0370    0.3520 c         1 08W      0.497600
      3 N38         2.4080    0.5360    1.4670 n4        1 08W     -0.655800
      4 C40         1.7850    0.4400    2.8060 c3        1 08W      0.081100
      5 C33         2.0760    0.1400   -0.9750 cc        1 08W      0.161800
      6 N32         3.3880    0.5850   -1.2550 nc        1 08W     -0.647000
      7 C30         3.5140    0.5440   -2.5830 cd        1 08W      0.475400
      8 C34         1.4030   -0.1770   -2.1800 cd        1 08W     -0.053600
      9 N29         2.3100    0.0900   -3.1990 na        1 08W     -0.166000
     10 C6          2.1220   -0.1230   -4.5850 ca        1 08W     -0.001200
     11 C7          2.7790   -1.1950   -5.2170 ca        1 08W     -0.024000
     12 C9          2.6150   -1.4130   -6.5890 ca        1 08W     -0.159600
     13 C17         3.3260   -2.5400   -7.2230 c         1 08W      0.710100
     14 O18         4.0800   -3.3180   -6.6390 o         1 08W     -0.504500
     15 N16         3.1170   -2.7240   -8.6490 n         1 08W     -0.276800
     16 N19         3.7760   -3.6890   -9.3760 nh        1 08W     -0.646800
     17 S21         1.6600   -3.2720  -11.8540 s6        1 08W      1.679500
     18 O23         0.5990   -2.6180  -12.3840 o         1 08W     -0.577800
     19 C24         3.0210   -3.2480  -12.7320 c3        1 08W     -0.484300
     20 O22         1.5350   -4.2930  -10.9640 o         1 08W     -0.577800
     21 C15         2.2670   -1.8610   -9.3420 cc        1 08W      0.700400
     22 O28         2.0310   -1.9650  -10.6240 os        1 08W     -0.546300
     23 N13         1.6190   -0.8160   -8.7230 na        1 08W     -0.280300
     24 C10         1.7840   -0.5660   -7.3540 ca        1 08W      0.062800
     25 C11         1.1260    0.5130   -6.7230 ca        1 08W     -0.102000
     26 C5          1.2970    0.7290   -5.3620 ca        1 08W     -0.083300
     27 C2          0.5650    1.9240   -4.7200 c3        1 08W      0.690200
     28 F1         -0.1810    2.6610   -5.5980 f         1 08W     -0.209967
     29 F3         -0.3130    1.5480   -3.7350 f         1 08W     -0.209967
     30 F4          1.4100    2.8240   -4.1250 f         1 08W     -0.209967
     31 H1          2.6520    1.5150    1.2660 hn        1 08W      0.472800
     32 H2          1.5280   -0.6320    3.0250 hx        1 08W      0.116367
     33 H3          0.8410    1.0500    2.8260 hx        1 08W      0.116367
     34 H4          2.5090    0.8260    3.5740 hx        1 08W      0.116367
     35 H5          4.4030    0.8340   -3.1620 h5        1 08W      0.105100
     36 H6          0.3790   -0.5320   -2.3510 h4        1 08W      0.232000
     37 H7          3.4350   -1.8830   -4.6480 ha        1 08W      0.201000
     38 H8          3.3290   -4.5880   -9.2020 hn        1 08W      0.412300
     39 H9          2.8760   -3.5300  -13.8180 h1        1 08W      0.183367
     40 H10         3.8340   -3.9400  -12.3680 h1        1 08W      0.183367
     41 H11         3.5240   -2.2380  -12.7960 h1        1 08W      0.183367
     42 H12         1.0310   -0.2230   -9.2840 hn        1 08W      0.364700
     43 H13         0.4730    1.1930   -7.3040 ha        1 08W      0.201000
     44 H382        3.2780   -0.0130    1.4470 hn        1 08W      0.472800
     45 H192        4.7370   -3.7350   -9.0500 hn        1 08W      0.412300
@<TRIPOS>BOND
     1    1    2 2   
     2    2    3 1   
     3    2    5 1   
     4    3    4 1   
     5    3   31 1   
     6    3   44 1   
     7    4   32 1   
     8    4   33 1   
     9    4   34 1   
    10    5    6 1   
    11    5    8 2   
    12    6    7 2   
    13    7    9 1   
    14    7   35 1   
    15    8    9 1   
    16    8   36 1   
    17    9   10 1   
    18   10   11 ar  
    19   10   26 ar  
    20   11   12 ar  
    21   11   37 1   
    22   12   13 1   
    23   12   24 ar  
    24   13   14 2   
    25   13   15 1   
    26   15   16 1   
    27   15   21 2   
    28   16   38 1   
    29   16   45 1   
    30   17   18 2   
    31   17   19 1   
    32   17   20 2   
    33   17   22 1   
    34   19   39 1   
    35   19   40 1   
    36   19   41 1   
    37   21   22 1   
    38   21   23 1   
    39   23   24 1   
    40   23   42 1   
    41   24   25 ar  
    42   25   26 ar  
    43   25   43 1   
    44   26   27 1   
    45   27   28 1   
    46   27   29 1   
    47   27   30 1   
@<TRIPOS>SUBSTRUCTURE
     1 08W         1 TEMP              0 ****  ****    0 ROOT
