@<TRIPOS>MOLECULE
08W
   43    36     1     0     0
SMALL
bcc


@<TRIPOS>ATOM
      1 O37        -4.3610    2.0510   -1.5710 o         1 08W     -0.386000
      2 C36        -4.2330    1.2750   -0.6410 c1        1 08W      0.387000
      3 N38        -4.8370    1.5690    0.6260 n3        1 08W     -0.368000
      4 C40        -5.5910    2.7790    0.7990 c3        1 08W     -0.076000
      5 C33        -3.3900    0.0110   -0.8110 c1        1 08W     -0.116500
      6 N32        -3.5370   -1.1310   -0.1250 n2        1 08W     -0.137000
      7 C30        -2.5550   -1.9870   -0.5180 c1        1 08W     -0.064000
      8 C34        -2.3050   -0.1300   -1.6420 c1        1 08W     -0.116500
      9 N29        -1.7980   -1.3580   -1.4570 n2        1 08W     -0.137000
     10 C6         -0.5970   -1.8750   -2.0590 c1        1 08W      0.044000
     11 C7         -0.1040   -1.8770   -0.7550 c1        1 08W     -0.033000
     12 C9          0.9460   -1.0050   -0.3970 c1        1 08W     -0.152000
     13 C17         1.4820   -1.0050    1.0150 c1        1 08W      0.358000
     14 O18         1.0470   -1.7980    1.8320 o         1 08W     -0.273000
     15 N16         2.5290   -0.1340    1.3690 n2        1 08W     -0.192000
     16 N19         2.9110   -0.0110    2.7070 n3        1 08W     -0.752000
     17 S21         4.4970   -0.1940    3.1330 s4        1 08W      2.047800
     18 O23         4.8660   -1.5840    3.1920 o         1 08W     -0.521400
     19 C24         4.8190    0.6290    4.6860 c2        1 08W     -0.974000
     20 O22         5.3750    0.2840    2.0970 o         1 08W     -0.521400
     21 C15         3.1170    0.7190    0.3780 c2        1 08W      0.398000
     22 O28         4.0120    1.4840    0.6870 o         1 08W     -0.339000
     23 N13         2.6130    0.7050   -0.9820 n         1 08W     -0.307000
     24 C10         1.4820   -0.1520   -1.3350 c2        1 08W      0.130000
     25 C11         0.9810   -0.1510   -2.6550 c1        1 08W     -0.147000
     26 C5         -0.0540   -1.0110   -3.0080 c1        1 08W     -0.085000
     27 C2         -0.3640   -1.3200   -4.4720 c3        1 08W      0.468000
     28 F1         -1.4580   -2.0960   -4.5450 f         1 08W     -0.153000
     29 F3          0.6790   -1.9630   -5.0250 f         1 08W     -0.153000
     30 F4         -0.5840   -0.1720   -5.1350 f         1 08W     -0.153000
     31 H1         -4.7520    0.9790    1.3230 hn        1 08W      0.243000
     32 H2         -6.3260    2.8030    0.1460 h1        1 08W      0.083667
     33 H3         -5.0040    3.5540    0.6600 h1        1 08W      0.083667
     34 H4         -5.9610    2.8080    1.7090 h1        1 08W      0.083667
     35 H5         -2.4160   -2.8990   -0.1820 DU        1 08W      0.211000
     36 H6         -1.9620    0.5480   -2.2620 DU        1 08W      0.211000
     37 H7         -0.4330   -2.5380   -0.1080 ha        1 08W      0.191000
     38 H8          2.2780    0.1470    3.3520 hn        1 08W      0.250000
     39 H9          4.9010   -0.0410    5.4010 ha        1 08W      0.173000
     40 H10         5.6560    1.1410    4.6190 ha        1 08W      0.173000
     41 H11         4.0780    1.2390    4.8930 ha        1 08W      0.173000
     42 H12         2.9900    1.2510   -1.6160 hn        1 08W      0.277000
     43 H13         1.3640    0.4580   -3.3250 ha        1 08W      0.173000
@<TRIPOS>BOND
     1    1    2 1   
     2    2    3 1   
     3    3    4 1   
     4    3   31 1   
     5    4   32 1   
     6    4   33 1   
     7    4   34 1   
     8    5    6 1   
     9    5    8 1   
    10    6    7 1   
    11    7    9 1   
    12    8    9 1   
    13   10   26 1   
    14   11   12 1   
    15   11   37 1   
    16   12   24 1   
    17   13   14 1   
    18   15   16 1   
    19   15   21 1   
    20   16   17 1   
    21   16   38 1   
    22   17   18 1   
    23   17   20 1   
    24   19   39 1   
    25   19   40 1   
    26   19   41 1   
    27   21   22 1   
    28   21   23 1   
    29   23   24 1   
    30   23   42 1   
    31   24   25 1   
    32   25   43 1   
    33   26   27 1   
    34   27   28 1   
    35   27   29 1   
    36   27   30 1   
@<TRIPOS>SUBSTRUCTURE
     1 08W         1 TEMP              0 ****  ****    0 ROOT
