@<TRIPOS>MOLECULE
08W
   43    45     1     0     0
SMALL
bcc


@<TRIPOS>ATOM
      1 O37         5.8640   -1.3990    1.8380 o         1 08W     -0.623100
      2 C36         5.7430   -1.6410    0.6170 c         1 08W      0.603600
      3 N38         6.6910   -2.3540   -0.0800 n         1 08W     -0.559900
      4 C40         7.8690   -2.8730    0.5380 c3        1 08W      0.079300
      5 C33         4.5560   -1.1550   -0.1200 cc        1 08W      0.243800
      6 N32         4.2630   -1.4010   -1.4740 nc        1 08W     -0.642000
      7 C30         3.0990   -0.7840   -1.7170 cd        1 08W      0.415400
      8 C34         3.5420   -0.3680    0.4600 cd        1 08W     -0.142600
      9 N29         2.6230   -0.1080   -0.5640 na        1 08W     -0.175000
     10 C6          1.3510    0.4840   -0.4320 ca        1 08W     -0.002200
     11 C7          0.1970   -0.3120   -0.5630 ca        1 08W     -0.033000
     12 C9         -1.0740    0.2510   -0.4460 ca        1 08W     -0.174600
     13 C17        -2.2600   -0.6170   -0.6210 c         1 08W      0.721100
     14 O18        -2.1840   -1.7740   -1.0510 o         1 08W     -0.550500
     15 N16        -3.5270   -0.0520   -0.2280 n         1 08W     -0.294800
     16 N19        -4.6550   -0.7740   -0.3890 nh        1 08W     -0.651100
     17 S21        -5.4470   -1.5770    0.8430 s6        1 08W      1.476900
     18 O23        -4.5530   -1.9590    1.8480 o         1 08W     -0.633800
     19 C24        -6.4950   -0.4070    1.4640 c3        1 08W     -0.396300
     20 O22        -6.2110   -2.5760    0.2180 o         1 08W     -0.633800
     21 C15        -3.6610    1.3790   -0.0950 c         1 08W      0.806500
     22 O28        -4.7620    1.9460    0.0460 o         1 08W     -0.614500
     23 N13        -2.4990    2.1670   -0.0560 n         1 08W     -0.453100
     24 C10        -1.2270    1.6300   -0.1780 ca        1 08W      0.123600
     25 C11        -0.0690    2.4330   -0.0560 ca        1 08W     -0.146000
     26 C5          1.1930    1.8700   -0.1880 ca        1 08W     -0.090300
     27 C2          2.4100    2.7960   -0.0680 c3        1 08W      0.689200
     28 F1          2.0950    4.1220    0.1060 f         1 08W     -0.222967
     29 F3          3.2280    2.5060    0.9950 f         1 08W     -0.222967
     30 F4          3.2300    2.7920   -1.1670 f         1 08W     -0.222967
     31 H1          6.5610   -2.5340   -1.0470 hn        1 08W      0.328500
     32 H2          7.8960   -2.5940    1.6250 h1        1 08W      0.044033
     33 H3          7.8900   -3.9930    0.4480 h1        1 08W      0.044033
     34 H4          8.7820   -2.4570    0.0310 h1        1 08W      0.044033
     35 H5          2.5670   -0.7540   -2.6740 h5        1 08W      0.072100
     36 H6          3.4450    0.0220    1.4750 h4        1 08W      0.212000
     37 H7          0.2770   -1.3980   -0.7630 ha        1 08W      0.190000
     38 H8         -4.9300   -0.8940   -1.3440 hn        1 08W      0.453800
     39 H9         -6.2710    0.6530    1.1710 h1        1 08W      0.134033
     40 H10        -7.5560   -0.5860    1.1500 h1        1 08W      0.134033
     41 H11        -6.4920   -0.4140    2.5840 h1        1 08W      0.134033
     42 H12        -2.6210    3.1440    0.1100 hn        1 08W      0.363500
     43 H13        -0.1640    3.5150    0.1440 ha        1 08W      0.173000
@<TRIPOS>BOND
     1    1    2 2   
     2    2    3 1   
     3    2    5 1   
     4    3    4 1   
     5    3   31 1   
     6    4   32 1   
     7    4   33 1   
     8    4   34 1   
     9    5    6 1   
    10    5    8 2   
    11    6    7 2   
    12    7    9 1   
    13    7   35 1   
    14    8    9 1   
    15    8   36 1   
    16    9   10 1   
    17   10   11 ar  
    18   10   26 ar  
    19   11   12 ar  
    20   11   37 1   
    21   12   13 1   
    22   12   24 ar  
    23   13   14 2   
    24   13   15 1   
    25   15   16 1   
    26   15   21 1   
    27   16   17 1   
    28   16   38 1   
    29   17   18 2   
    30   17   19 1   
    31   17   20 2   
    32   19   39 1   
    33   19   40 1   
    34   19   41 1   
    35   21   22 2   
    36   21   23 1   
    37   23   24 1   
    38   23   42 1   
    39   24   25 ar  
    40   25   26 ar  
    41   25   43 1   
    42   26   27 1   
    43   27   28 1   
    44   27   29 1   
    45   27   30 1   
@<TRIPOS>SUBSTRUCTURE
     1 08W         1 TEMP              0 ****  ****    0 ROOT
