@<TRIPOS>MOLECULE
08Z
   37    39     1     0     0
SMALL
bcc


@<TRIPOS>ATOM
      1 C1          2.4870    0.8250    0.1470 ca        1 08Z      0.153600
      2 N2          1.1120    1.1470    0.1830 nh        1 08Z     -0.704300
      3 C3          0.1050    0.1970    0.0770 cc        1 08Z      0.694300
      4 N4          0.2770   -1.1370   -0.0080 nd        1 08Z     -0.755000
      5 C5         -0.9860   -1.7700   -0.0190 cd        1 08Z      0.726200
      6 C6         -2.0950   -0.8770    0.0290 cc        1 08Z     -0.418000
      7 S7         -1.5550    0.7210    0.1450 ss        1 08Z     -0.128300
      8 N8         -1.0930   -3.1280   -0.0460 nh        1 08Z     -0.934500
      9 C9         -3.4780   -1.2640   -0.0630 c         1 08Z      0.649300
     10 C10        -4.4900   -0.1830    0.0040 ca        1 08Z     -0.272900
     11 C11        -4.3820    0.9060    0.8750 ca        1 08Z     -0.071000
     12 C12        -5.3880    1.8730    0.8760 ca        1 08Z     -0.254300
     13 C13        -6.4750    1.7130   -0.0020 ca        1 08Z      0.411200
     14 N14        -6.6040    0.6670   -0.8420 nb        1 08Z     -0.668000
     15 C15        -5.6310   -0.2620   -0.8280 ca        1 08Z      0.443200
     16 O16        -3.8420   -2.4450   -0.2250 o         1 08Z     -0.587100
     17 C17         3.3660    1.6290   -0.6160 ca        1 08Z     -0.154500
     18 C18         4.7330    1.3820   -0.5990 ca        1 08Z     -0.072000
     19 C19         5.2550    0.3260    0.1570 ca        1 08Z     -0.156600
     20 C20         4.3930   -0.4640    0.9210 ca        1 08Z     -0.072000
     21 C21         3.0230   -0.2220    0.9260 ca        1 08Z     -0.154500
     22 C22         6.7280    0.1100    0.1340 c         1 08Z      0.672700
     23 O23         7.5300    1.0590    0.0040 o         1 08Z     -0.611100
     24 N24         7.2040   -1.1740    0.2500 n         1 08Z     -0.673000
     25 HN2         0.8810    2.0290   -0.2300 hn        1 08Z      0.436800
     26 HN8        -0.2920   -3.6880   -0.2010 hn        1 08Z      0.456800
     27 HN8A       -2.0010   -3.5220   -0.1600 hn        1 08Z      0.456800
     28 H11        -3.5270    0.9930    1.5680 ha        1 08Z      0.151000
     29 H12        -5.3390    2.7390    1.5490 ha        1 08Z      0.147000
     30 H13        -7.2920    2.4570   -0.0350 h4        1 08Z      0.025100
     31 H15        -5.7610   -1.1240   -1.5090 h4        1 08Z      0.041100
     32 H17         2.9810    2.4610   -1.2240 ha        1 08Z      0.148500
     33 H18         5.4210    2.0200   -1.1790 ha        1 08Z      0.149000
     34 H20         4.7860   -1.2790    1.5500 ha        1 08Z      0.149000
     35 H21         2.3680   -0.8540    1.5460 ha        1 08Z      0.148500
     36 HN24        6.5900   -1.9460    0.2740 hn        1 08Z      0.313000
     37 HN2A        8.1790   -1.3350    0.2040 hn        1 08Z      0.313000
@<TRIPOS>BOND
     1    1    2 1   
     2    1   17 ar  
     3    1   21 ar  
     4    2    3 1   
     5    2   25 1   
     6    3    4 2   
     7    3    7 1   
     8    4    5 1   
     9    5    6 2   
    10    5    8 1   
    11    6    7 1   
    12    6    9 1   
    13    8   26 1   
    14    8   27 1   
    15    9   10 1   
    16    9   16 2   
    17   10   11 ar  
    18   10   15 ar  
    19   11   12 ar  
    20   11   28 1   
    21   12   13 ar  
    22   12   29 1   
    23   13   14 ar  
    24   13   30 1   
    25   14   15 ar  
    26   15   31 1   
    27   17   18 ar  
    28   17   32 1   
    29   18   19 ar  
    30   18   33 1   
    31   19   20 ar  
    32   19   22 1   
    33   20   21 ar  
    34   20   34 1   
    35   21   35 1   
    36   22   23 2   
    37   22   24 1   
    38   24   36 1   
    39   24   37 1   
@<TRIPOS>SUBSTRUCTURE
     1 08Z         1 TEMP              0 ****  ****    0 ROOT
