@<TRIPOS>MOLECULE
08Z
   40    42     1     0     0
SMALL
bcc


@<TRIPOS>ATOM
      1 C1         -0.9710    0.5850    0.8220 ca        1 08Z      0.000600
      2 N2         -2.1920    1.0650    0.1460 n4        1 08Z     -0.581100
      3 C3         -3.0750    0.0090   -0.3480 cc        1 08Z      0.306300
      4 N4         -3.6890   -0.8430    0.5230 nd        1 08Z     -0.568000
      5 C5         -4.5010   -1.6860   -0.2090 cd        1 08Z      0.433200
      6 C6         -4.4810   -1.4630   -1.6170 cc        1 08Z     -0.263000
      7 S7         -3.4850   -0.2250   -1.9880 ss        1 08Z      0.401700
      8 N8         -5.3200   -2.7020    0.4400 n4        1 08Z     -0.800300
      9 C9         -5.2290   -2.2970   -2.6110 c         1 08Z      0.645300
     10 C10        -5.2010   -1.8880   -4.0010 ca        1 08Z     -0.357900
     11 C11        -4.9820   -0.5640   -4.4360 ca        1 08Z     -0.086000
     12 C12        -4.9920   -0.2830   -5.7920 ca        1 08Z     -0.226300
     13 C13        -5.2360   -1.3450   -6.7040 ca        1 08Z      0.498200
     14 N14        -5.4610   -2.6090   -6.3100 nb        1 08Z     -0.623000
     15 C15        -5.4540   -2.8750   -4.9920 ca        1 08Z      0.517200
     16 O16        -5.7880   -3.3210   -2.1920 o         1 08Z     -0.519100
     17 C17         0.2050    0.3880    0.0770 ca        1 08Z     -0.085000
     18 C18         1.3730   -0.0030    0.7330 ca        1 08Z     -0.048000
     19 C19         1.3720   -0.1880    2.1240 ca        1 08Z     -0.135600
     20 C20         0.1980    0.0020    2.8600 ca        1 08Z     -0.048000
     21 C21        -0.9820    0.3810    2.2140 ca        1 08Z     -0.085000
     22 C22         2.6160   -0.6910    2.7480 c         1 08Z      0.546700
     23 O23         3.2640   -1.6640    2.4080 o         1 08Z     -0.327100
     24 N24         3.1650    0.0870    3.9180 n4        1 08Z     -0.753400
     25 HN2        -2.7230    1.6530    0.8180 hn        1 08Z      0.489800
     26 HN8        -5.4520   -3.5010   -0.2220 hn        1 08Z      0.502133
     27 HN8A       -6.2460   -2.3030    0.6600 hn        1 08Z      0.502133
     28 H11        -4.8760    0.2700   -3.7180 ha        1 08Z      0.108000
     29 H12        -4.8440    0.7400   -6.1730 ha        1 08Z      0.183000
     30 H13        -5.2630   -1.1620   -7.8000 h4        1 08Z      0.080100
     31 H15        -5.6600   -3.9270   -4.7030 h4        1 08Z      0.070100
     32 H17         0.2400    0.5370   -1.0180 ha        1 08Z      0.190000
     33 H18         2.2940   -0.1760    0.1410 ha        1 08Z      0.194000
     34 H20         0.1670   -0.1660    3.9520 ha        1 08Z      0.194000
     35 H21        -1.9010    0.5130    2.8140 ha        1 08Z      0.190000
     36 HN24        2.4600    0.1860    4.6560 hn        1 08Z      0.486800
     37 HN2A        3.4630    1.0230    3.6140 hn        1 08Z      0.486800
     38 H22        -1.9140    1.6540   -0.6560 hn        1 08Z      0.489800
     39 H83        -4.8800   -3.0410    1.3070 hn        1 08Z      0.502133
     40 H243        3.9880   -0.4070    4.3070 hn        1 08Z      0.486800
@<TRIPOS>BOND
     1    1    2 1   
     2    1   17 ar  
     3    1   21 ar  
     4    2    3 1   
     5    2   25 1   
     6    2   38 1   
     7    3    4 2   
     8    3    7 1   
     9    4    5 1   
    10    5    6 2   
    11    5    8 1   
    12    6    7 1   
    13    6    9 1   
    14    8   26 1   
    15    8   27 1   
    16    8   39 1   
    17    9   10 1   
    18    9   16 2   
    19   10   11 ar  
    20   10   15 ar  
    21   11   12 ar  
    22   11   28 1   
    23   12   13 ar  
    24   12   29 1   
    25   13   14 ar  
    26   13   30 1   
    27   14   15 ar  
    28   15   31 1   
    29   17   18 ar  
    30   17   32 1   
    31   18   19 ar  
    32   18   33 1   
    33   19   20 ar  
    34   19   22 1   
    35   20   21 ar  
    36   20   34 1   
    37   21   35 1   
    38   22   23 2   
    39   22   24 1   
    40   24   36 1   
    41   24   37 1   
    42   24   40 1   
@<TRIPOS>SUBSTRUCTURE
     1 08Z         1 TEMP              0 ****  ****    0 ROOT
