@<TRIPOS>MOLECULE
08Z
   38    40     1     0     0
SMALL
bcc


@<TRIPOS>ATOM
      1 C1         -0.0510   -0.4550    0.0660 ca        1 08Z      0.273600
      2 N2         -0.7580   -0.7060   -1.0940 nh        1 08Z     -0.696300
      3 C3         -2.0590   -1.2360   -1.1290 cc        1 08Z      0.593300
      4 N4         -2.5760   -2.0650   -0.1970 nd        1 08Z     -0.728000
      5 C5         -3.9010   -2.3900   -0.5600 cd        1 08Z      0.696200
      6 C6         -4.3190   -1.8020   -1.7900 cc        1 08Z     -0.407000
      7 S7         -3.1120   -0.8260   -2.4220 ss        1 08Z      0.020700
      8 N8         -4.6930   -3.1580    0.2450 nh        1 08Z     -0.922500
      9 C9         -5.5860   -2.0600   -2.4470 c         1 08Z      0.645300
     10 C10        -5.8220   -1.3770   -3.7360 ca        1 08Z     -0.290900
     11 C11        -5.4420   -0.0510   -3.9760 ca        1 08Z     -0.077000
     12 C12        -5.7120    0.5140   -5.2220 ca        1 08Z     -0.250300
     13 C13        -6.3620   -0.2740   -6.1920 ca        1 08Z      0.425200
     14 N14        -6.7460   -1.5470   -5.9760 nb        1 08Z     -0.656000
     15 C15        -6.4870   -2.0790   -4.7690 ca        1 08Z      0.453200
     16 O16        -6.4280   -2.8460   -1.9800 o         1 08Z     -0.552100
     17 C17         1.3690   -0.3480    0.0060 ca        1 08Z     -0.189000
     18 C18         2.1010   -0.0210    1.1290 ca        1 08Z     -0.015500
     19 C19         1.4620    0.2130    2.3680 ca        1 08Z     -0.276600
     20 C20         0.0570    0.1220    2.4320 ca        1 08Z     -0.015500
     21 C21        -0.6860   -0.2000    1.3170 ca        1 08Z     -0.189000
     22 C22         2.3160    0.5310    3.4860 c         1 08Z      0.584700
     23 O23         3.5300    0.6830    3.5410 o         1 08Z     -0.443100
     24 N24         1.6390    0.7100    4.8450 n4        1 08Z     -0.764400
     25 HN2        -0.2170   -0.8950   -1.9160 hn        1 08Z      0.460800
     26 HN8        -4.2790   -3.6920    0.9700 hn        1 08Z      0.456800
     27 HN8A       -5.5670   -3.4600   -0.1310 hn        1 08Z      0.456800
     28 H11        -4.9660    0.5550   -3.1870 ha        1 08Z      0.140000
     29 H12        -5.4370    1.5540   -5.4450 ha        1 08Z      0.153000
     30 H13        -6.5940    0.1350   -7.1930 h4        1 08Z      0.036100
     31 H15        -6.8290   -3.1190   -4.6040 h4        1 08Z      0.047100
     32 H17         1.9010   -0.5290   -0.9430 ha        1 08Z      0.174000
     33 H18         3.2030    0.0520    1.0670 ha        1 08Z      0.146000
     34 H20        -0.4880    0.3110    3.3700 ha        1 08Z      0.146000
     35 H21        -1.7840   -0.2530    1.4040 ha        1 08Z      0.174000
     36 HN24        0.9820    1.4920    4.8050 hn        1 08Z      0.463467
     37 HN2A        1.1310   -0.1420    5.0930 hn        1 08Z      0.463467
     38 H243        2.3520    0.9020    5.5590 hn        1 08Z      0.463467
@<TRIPOS>BOND
     1    1    2 1   
     2    1   17 ar  
     3    1   21 ar  
     4    2    3 1   
     5    2   25 1   
     6    3    4 2   
     7    3    7 1   
     8    4    5 1   
     9    5    6 2   
    10    5    8 1   
    11    6    7 1   
    12    6    9 1   
    13    8   26 1   
    14    8   27 1   
    15    9   10 1   
    16    9   16 2   
    17   10   11 ar  
    18   10   15 ar  
    19   11   12 ar  
    20   11   28 1   
    21   12   13 ar  
    22   12   29 1   
    23   13   14 ar  
    24   13   30 1   
    25   14   15 ar  
    26   15   31 1   
    27   17   18 ar  
    28   17   32 1   
    29   18   19 ar  
    30   18   33 1   
    31   19   20 ar  
    32   19   22 1   
    33   20   21 ar  
    34   20   34 1   
    35   21   35 1   
    36   22   23 2   
    37   22   24 1   
    38   24   36 1   
    39   24   37 1   
    40   24   38 1   
@<TRIPOS>SUBSTRUCTURE
     1 08Z         1 TEMP              0 ****  ****    0 ROOT
