@<TRIPOS>MOLECULE
08Z
   37    32     1     0     0
SMALL
bcc


@<TRIPOS>ATOM
      1 C1         -0.4440    2.0870    1.7900 c1        1 08Z      0.074000
      2 N2         -0.5870    2.0010    0.3820 n2        1 08Z     -0.227000
      3 C3         -0.6790    0.7320   -0.2450 c2        1 08Z     -0.070000
      4 N4         -1.8170   -0.1310   -0.2320 n2        1 08Z     -0.235000
      5 C5         -1.4700   -1.4210   -1.0550 c1        1 08Z      0.212000
      6 C6         -0.1190   -1.2960   -1.5460 c1        1 08Z     -0.608000
      7 S7          0.4310    0.0430   -1.0660 ss        1 08Z      0.457000
      8 N8         -2.3380   -2.5200   -1.2820 n2        1 08Z     -0.339000
      9 C9          0.6570   -2.3580   -2.2960 c1        1 08Z      0.369000
     10 C10         0.7720   -2.2870   -3.8030 c2        1 08Z     -0.184000
     11 C11         1.4250   -3.2740   -4.4850 c2        1 08Z     -0.045000
     12 C12         1.5580   -3.1920   -5.8400 c1        1 08Z     -0.188000
     13 C13         1.0300   -2.1080   -6.5240 c1        1 08Z     -0.056000
     14 N14         0.3780   -1.1240   -5.8430 n1        1 08Z     -0.142000
     15 C15         0.2450   -1.2040   -4.4890 c1        1 08Z     -0.051000
     16 O16         1.1450   -3.2930   -1.6920 o         1 08Z     -0.352000
     17 C17        -1.5660    2.0510    2.6040 c2        1 08Z     -0.180000
     18 C18        -1.4280    2.1670    3.9790 c1        1 08Z     -0.057000
     19 C19        -0.1700    2.3190    4.5390 c1        1 08Z     -0.136000
     20 C20         0.9510    2.3560    3.7250 c1        1 08Z     -0.087000
     21 C21         0.8140    2.2400    2.3510 c1        1 08Z     -0.129000
     22 C22        -0.0250    2.5000    6.0340 c2        1 08Z      0.346000
     23 O23        -1.0120    2.5110    6.7430 o         1 08Z     -0.372000
     24 N24         1.2650    2.6060    6.6130 n         1 08Z     -0.433000
     25 HN2        -0.6340    2.7620   -0.1190 hn        1 08Z      0.235000
     26 HN8        -2.0130   -3.2910   -1.6490 hn        1 08Z      0.256000
     27 HN8A       -3.2210   -2.4600   -1.0500 hn        1 08Z      0.256000
     28 H11         1.7970   -4.0370   -4.0030 ha        1 08Z      0.157000
     29 H12         2.0250   -3.8970   -6.3290 ha        1 08Z      0.148000
     30 H13         1.1250   -2.0500   -7.4940 ha        1 08Z      0.162000
     31 H15        -0.2220   -0.4990   -4.0020 ha        1 08Z      0.170000
     32 H17        -2.4520    1.9430    2.2100 ha        1 08Z      0.138000
     33 H18        -2.2180    2.1410    4.5520 ha        1 08Z      0.161000
     34 H20         1.8380    2.4640    4.1200 ha        1 08Z      0.138000
     35 H21         1.6050    2.2660    1.7770 ha        1 08Z      0.161000
     36 HN24        1.3870    3.1070    7.3690 hn        1 08Z      0.226000
     37 HN2A        1.9670    2.1450    6.2530 hn        1 08Z      0.226000
@<TRIPOS>BOND
     1    1   17 1   
     2    1   21 1   
     3    2    3 1   
     4    2   25 1   
     5    3    4 1   
     6    3    7 1   
     7    4    5 1   
     8    5    6 1   
     9    6    7 1   
    10    8   26 1   
    11    8   27 1   
    12    9   10 1   
    13    9   16 1   
    14   10   11 1   
    15   10   15 1   
    16   11   12 1   
    17   11   28 1   
    18   12   29 1   
    19   13   14 1   
    20   13   30 1   
    21   15   31 1   
    22   17   18 1   
    23   17   32 1   
    24   18   33 1   
    25   19   20 1   
    26   19   22 1   
    27   20   34 1   
    28   21   35 1   
    29   22   23 1   
    30   22   24 1   
    31   24   36 1   
    32   24   37 1   
@<TRIPOS>SUBSTRUCTURE
     1 08Z         1 TEMP              0 ****  ****    0 ROOT
