@<TRIPOS>MOLECULE
090
   42    45     1     0     0
SMALL
bcc


@<TRIPOS>ATOM
      1 OAU         2.9160   -1.5050   -0.9410 o         1 090     -0.570100
      2 CAO         2.4540   -0.4920   -0.3930 c         1 090      0.697700
      3 CAP         2.5730   -0.2230    1.0530 ca        1 090     -0.298900
      4 CAQ         2.6330    1.0790    1.5960 ca        1 090      0.438200
      5 NAR         2.7550    1.3200    2.9130 nb        1 090     -0.654000
      6 CAX         2.8240    0.2600    3.7420 ca        1 090      0.445200
      7 CAW         2.7850   -1.0760    3.2960 ca        1 090     -0.246300
      8 CAV         2.6620   -1.3190    1.9290 ca        1 090     -0.026000
      9 NAN         1.7970    0.4890   -1.1690 ns        1 090     -0.478500
     10 CAM         1.4190    0.2770   -2.5150 cc        1 090      0.508100
     11 NAL         0.1610    0.4650   -2.9040 nc        1 090     -0.364300
     12 CAK        -0.2010    0.3690   -4.2440 ca        1 090      0.075000
     13 CAJ        -1.5470    0.6270   -4.6380 ca        1 090      0.041100
     14 OAT        -2.4760    1.0770   -3.7200 os        1 090     -0.324900
     15 CAZ        -3.0220    0.0580   -2.8720 c3        1 090      0.109700
     16 CAE         0.7470    0.0090   -5.2560 ca        1 090     -0.146000
     17 CAF         2.0870   -0.2290   -4.8090 cc        1 090      0.117400
     18 NAG         2.4410   -0.0850   -3.4550 na        1 090     -0.091200
     19 CAH         3.8150   -0.3710   -3.3240 cc        1 090     -0.081300
     20 CAB         4.2930   -0.6850   -4.5960 cd        1 090     -0.107300
     21 NAA         3.2230   -0.5920   -5.5040 na        1 090     -0.165100
     22 CAD         0.3610   -0.0900   -6.6070 ca        1 090     -0.065000
     23 CAC        -0.9340    0.1810   -6.9760 ca        1 090     -0.127000
     24 CAI        -1.8990    0.5560   -5.9980 ca        1 090      0.198100
     25 OAS        -3.1260    0.8010   -6.5360 os        1 090     -0.301900
     26 CAY        -4.1310    1.4360   -5.7390 c3        1 090      0.116700
     27 HAQ         2.6040    1.9830    0.9590 h4        1 090      0.029100
     28 HAX         2.9190    0.4980    4.8190 h4        1 090      0.047100
     29 HAW         2.8550   -1.9060    4.0140 ha        1 090      0.168000
     30 HAV         2.6380   -2.3470    1.5310 ha        1 090      0.167000
     31 HAN         1.2300    1.1580   -0.6800 hn        1 090      0.361500
     32 HAZ1       -2.2360   -0.3720   -2.2080 h1        1 090      0.055700
     33 HAZ2       -3.4990   -0.7440   -3.4860 h1        1 090      0.055700
     34 HAZ3       -3.7870    0.6140   -2.2730 h1        1 090      0.055700
     35 HAH         4.3250   -0.3650   -2.3540 h4        1 090      0.242000
     36 HAB         5.3020   -0.9620   -4.9190 h4        1 090      0.230000
     37 HAA         3.2630   -0.7730   -6.4800 hn        1 090      0.353700
     38 HAD         1.0970   -0.3770   -7.3740 ha        1 090      0.148000
     39 HAC        -1.2580    0.1180   -8.0290 ha        1 090      0.185000
     40 HAY1       -4.5080    0.7240   -4.9660 h1        1 090      0.067367
     41 HAY2       -4.9260    1.6710   -6.4930 h1        1 090      0.067367
     42 HAY3       -3.7310    2.3640   -5.2630 h1        1 090      0.067367
@<TRIPOS>BOND
     1    1    2 2   
     2    2    3 1   
     3    2    9 1   
     4    3    4 ar  
     5    3    8 ar  
     6    4    5 ar  
     7    4   27 1   
     8    5    6 ar  
     9    6    7 ar  
    10    6   28 1   
    11    7    8 ar  
    12    7   29 1   
    13    8   30 1   
    14    9   10 2   
    15    9   31 1   
    16   10   11 1   
    17   10   18 1   
    18   11   12 2   
    19   12   13 ar  
    20   12   16 ar  
    21   13   14 1   
    22   13   24 ar  
    23   14   15 1   
    24   15   32 1   
    25   15   33 1   
    26   15   34 1   
    27   16   17 2   
    28   16   22 ar  
    29   17   18 1   
    30   17   21 1   
    31   18   19 1   
    32   19   20 2   
    33   19   35 1   
    34   20   21 1   
    35   20   36 1   
    36   21   37 1   
    37   22   23 ar  
    38   22   38 1   
    39   23   24 ar  
    40   23   39 1   
    41   24   25 1   
    42   25   26 1   
    43   26   40 1   
    44   26   41 1   
    45   26   42 1   
@<TRIPOS>SUBSTRUCTURE
     1 090         1 TEMP              0 ****  ****    0 ROOT
