@<TRIPOS>MOLECULE
090
   42    45     1     0     0
SMALL
bcc


@<TRIPOS>ATOM
      1 OAU        -4.0630   -5.7020    3.6540 o         1 090     -0.572100
      2 CAO        -4.5110   -5.7830    2.4980 c         1 090      0.701700
      3 CAP        -4.9960   -7.0430    1.9010 ca        1 090     -0.293900
      4 CAQ        -4.9160   -7.3230    0.5190 ca        1 090      0.437200
      5 NAR        -5.3400   -8.4780   -0.0220 nb        1 090     -0.653000
      6 CAX        -5.8590   -9.4060    0.8060 ca        1 090      0.445200
      7 CAW        -5.9660   -9.2280    2.2000 ca        1 090     -0.244300
      8 CAV        -5.5230   -8.0300    2.7530 ca        1 090     -0.027000
      9 NAN        -4.6430   -4.6160    1.7160 n         1 090     -0.480500
     10 CAM        -3.9380   -3.4210    1.9940 cc        1 090      0.507100
     11 NAL        -3.1490   -2.8700    1.0770 nc        1 090     -0.362300
     12 CAK        -2.5320   -1.6430    1.2990 ca        1 090      0.073000
     13 CAJ        -1.7310   -1.0540    0.2770 ca        1 090      0.042100
     14 OAT        -1.6440   -1.6350   -0.9730 os        1 090     -0.324900
     15 CAZ        -0.7480   -2.7520   -1.0520 c3        1 090      0.109700
     16 CAE        -2.6720   -0.9450    2.5420 ca        1 090     -0.145000
     17 CAF        -3.4960   -1.5750    3.5300 cc        1 090      0.115400
     18 NAG        -4.1440   -2.7960    3.2690 na        1 090     -0.090200
     19 CAH        -4.8850   -3.1570    4.4120 cc        1 090     -0.078300
     20 CAB        -4.6880   -2.1560    5.3640 cd        1 090     -0.109300
     21 NAA        -3.8330   -1.1850    4.8110 na        1 090     -0.164100
     22 CAD        -2.0350    0.2940    2.7520 ca        1 090     -0.065000
     23 CAC        -1.2830    0.8610    1.7520 ca        1 090     -0.126000
     24 CAI        -1.1340    0.2000    0.4980 ca        1 090      0.198100
     25 OAS        -0.3700    0.9060   -0.3820 os        1 090     -0.301900
     26 CAY        -0.3400    0.5150   -1.7580 c3        1 090      0.116700
     27 HAQ        -4.4730   -6.6110   -0.2010 h4        1 090      0.026100
     28 HAX        -6.2010  -10.3420    0.3220 h4        1 090      0.047100
     29 HAW        -6.3850  -10.0240    2.8320 ha        1 090      0.168000
     30 HAV        -5.5720   -7.8500    3.8400 ha        1 090      0.163000
     31 HAN        -4.9150   -4.7230    0.7570 hn        1 090      0.359500
     32 HAZ1        0.2800   -2.4480   -0.7400 h1        1 090      0.055700
     33 HAZ2       -0.7760   -3.0180   -2.1400 h1        1 090      0.055700
     34 HAZ3       -1.1130   -3.6010   -0.4290 h1        1 090      0.055700
     35 HAH        -5.4520   -4.0930    4.4710 h4        1 090      0.242000
     36 HAB        -5.0870   -2.0620    6.3790 h4        1 090      0.230000
     37 HAA        -3.5060   -0.3640    5.2640 hn        1 090      0.353700
     38 HAD        -2.1430    0.8170    3.7150 ha        1 090      0.148000
     39 HAC        -0.7810    1.8340    1.8890 ha        1 090      0.185000
     40 HAY1        0.1930    1.3750   -2.2420 h1        1 090      0.067367
     41 HAY2       -1.3750    0.3980   -2.1590 h1        1 090      0.067367
     42 HAY3        0.2400   -0.4320   -1.8710 h1        1 090      0.067367
@<TRIPOS>BOND
     1    1    2 2   
     2    2    3 1   
     3    2    9 1   
     4    3    4 ar  
     5    3    8 ar  
     6    4    5 ar  
     7    4   27 1   
     8    5    6 ar  
     9    6    7 ar  
    10    6   28 1   
    11    7    8 ar  
    12    7   29 1   
    13    8   30 1   
    14    9   10 2   
    15    9   31 1   
    16   10   11 1   
    17   10   18 1   
    18   11   12 2   
    19   12   13 ar  
    20   12   16 ar  
    21   13   14 1   
    22   13   24 ar  
    23   14   15 1   
    24   15   32 1   
    25   15   33 1   
    26   15   34 1   
    27   16   17 2   
    28   16   22 ar  
    29   17   18 1   
    30   17   21 1   
    31   18   19 1   
    32   19   20 2   
    33   19   35 1   
    34   20   21 1   
    35   20   36 1   
    36   21   37 1   
    37   22   23 ar  
    38   22   38 1   
    39   23   24 ar  
    40   23   39 1   
    41   24   25 1   
    42   25   26 1   
    43   26   40 1   
    44   26   41 1   
    45   26   42 1   
@<TRIPOS>SUBSTRUCTURE
     1 090         1 TEMP              0 ****  ****    0 ROOT
