@<TRIPOS>MOLECULE
090
   43    46     1     0     0
SMALL
bcc


@<TRIPOS>ATOM
      1 OAU         4.4620    0.4200   -0.9130 o         1 090     -0.443100
      2 CAO         3.4500   -0.1070   -0.4770 c         1 090      0.613700
      3 CAP         2.7520    0.0840    0.7690 ca        1 090     -0.354900
      4 CAQ         3.4700    0.7650    1.7980 ca        1 090      0.518200
      5 NAR         2.9500    1.0140    3.0070 nb        1 090     -0.633000
      6 CAX         1.6900    0.6080    3.2550 ca        1 090      0.510200
      7 CAW         0.8920   -0.0630    2.2940 ca        1 090     -0.237300
      8 CAV         1.4280   -0.3230    1.0420 ca        1 090     -0.042000
      9 NAN         2.9040   -1.2090   -1.4250 n4        1 090     -0.672500
     10 CAM         2.1840   -0.6340   -2.5880 ca        1 090      0.554400
     11 NAL         0.8650   -0.7180   -2.6170 nb        1 090     -0.532000
     12 CAK         0.1480   -0.2110   -3.6890 ca        1 090      0.335600
     13 CAJ        -1.2780   -0.3120   -3.7060 ca        1 090      0.164800
     14 OAT        -1.8370   -0.8930   -2.6180 os        1 090     -0.293900
     15 CAZ        -3.2490   -1.1580   -2.5800 c3        1 090      0.118700
     16 CAE         0.8140    0.4180   -4.8100 ca        1 090     -0.159300
     17 CAF         2.2510    0.4910   -4.7290 ca        1 090      0.106500
     18 NAG         2.9510   -0.0220   -3.6190 na        1 090     -0.138100
     19 CAH         4.3300    0.1930   -3.8190 cc        1 090     -0.131100
     20 CAB         4.4650    0.8360   -5.0520 cd        1 090     -0.058100
     21 NAA         3.1830    1.0120   -5.6000 na        1 090     -0.117400
     22 CAD         0.0920    0.9110   -5.8880 ca        1 090     -0.059000
     23 CAC        -1.3000    0.8060   -5.9000 ca        1 090     -0.132000
     24 CAI        -1.9850    0.2120   -4.8380 ca        1 090      0.131100
     25 OAS        -3.3440    0.0880   -4.7930 os        1 090     -0.311900
     26 CAY        -4.0960    0.5910   -5.9060 c3        1 090      0.101700
     27 HAQ         4.5100    1.1160    1.6290 h4        1 090      0.068100
     28 HAX         1.2980    0.8330    4.2700 h4        1 090      0.077100
     29 HAW        -0.1370   -0.3630    2.5480 ha        1 090      0.188000
     30 HAV         0.7980   -0.8160    0.2840 ha        1 090      0.149000
     31 HAN         2.2600   -1.8250   -0.9040 hn        1 090      0.486300
     32 HAZ1       -3.3560   -1.7050   -1.6060 h1        1 090      0.081367
     33 HAZ2       -3.8170   -0.1970   -2.5690 h1        1 090      0.081367
     34 HAZ3       -3.5480   -1.8020   -3.4410 h1        1 090      0.081367
     35 HAH         5.0970   -0.0780   -3.0830 h4        1 090      0.244000
     36 HAB         5.3730    1.1760   -5.5720 h4        1 090      0.255000
     37 HAA         2.9750    1.4480   -6.4730 hn        1 090      0.371700
     38 HAD         0.5950    1.3890   -6.7450 ha        1 090      0.165000
     39 HAC        -1.8560    1.2060   -6.7670 ha        1 090      0.192000
     40 HAY1       -5.1520    0.3570   -5.6070 h1        1 090      0.078033
     41 HAY2       -3.9450    1.6920   -6.0100 h1        1 090      0.078033
     42 HAY3       -3.8170    0.0460   -6.8400 h1        1 090      0.078033
     43 HAN2        3.6920   -1.7770   -1.7690 hn        1 090      0.486300
@<TRIPOS>BOND
     1    1    2 2   
     2    2    3 1   
     3    2    9 1   
     4    3    4 ar  
     5    3    8 ar  
     6    4    5 ar  
     7    4   27 1   
     8    5    6 ar  
     9    6    7 ar  
    10    6   28 1   
    11    7    8 ar  
    12    7   29 1   
    13    8   30 1   
    14    9   10 1   
    15    9   31 1   
    16    9   43 1   
    17   10   11 ar  
    18   10   18 2   
    19   11   12 ar  
    20   12   13 ar  
    21   12   16 ar  
    22   13   14 1   
    23   13   24 ar  
    24   14   15 1   
    25   15   32 1   
    26   15   33 1   
    27   15   34 1   
    28   16   17 ar  
    29   16   22 ar  
    30   17   18 1   
    31   17   21 1   
    32   18   19 1   
    33   19   20 2   
    34   19   35 1   
    35   20   21 1   
    36   20   36 1   
    37   21   37 1   
    38   22   23 ar  
    39   22   38 1   
    40   23   24 ar  
    41   23   39 1   
    42   24   25 1   
    43   25   26 1   
    44   26   40 1   
    45   26   41 1   
    46   26   42 1   
@<TRIPOS>SUBSTRUCTURE
     1 090         1 TEMP              0 ****  ****    0 ROOT
