@<TRIPOS>MOLECULE
090
   42    45     1     0     0
SMALL
bcc


@<TRIPOS>ATOM
      1 OAU         2.8480   -1.6370   -0.9120 o         1 090     -0.572100
      2 CAO         2.4070   -0.6000   -0.3910 c         1 090      0.701700
      3 CAP         2.4550   -0.3350    1.0610 ca        1 090     -0.293900
      4 CAQ         1.4880    0.4400    1.7360 ca        1 090      0.437200
      5 NAR         1.5220    0.6650    3.0610 nb        1 090     -0.653000
      6 CAX         2.5290    0.1140    3.7670 ca        1 090      0.445200
      7 CAW         3.5310   -0.6890    3.1870 ca        1 090     -0.244300
      8 CAV         3.4890   -0.9190    1.8140 ca        1 090     -0.027000
      9 NAN         1.8920    0.4290   -1.2090 n         1 090     -0.480500
     10 CAM         1.4710    0.2120   -2.5420 cc        1 090      0.507100
     11 NAL         0.2320    0.5130   -2.9190 nc        1 090     -0.362300
     12 CAK        -0.1640    0.4020   -4.2480 ca        1 090      0.073000
     13 CAJ        -1.4840    0.7790   -4.6320 ca        1 090      0.042100
     14 OAT        -2.3460    1.3530   -3.7180 os        1 090     -0.324900
     15 CAZ        -2.9760    0.4250   -2.8250 c3        1 090      0.109700
     16 CAE         0.7240   -0.0910   -5.2600 ca        1 090     -0.145000
     17 CAF         2.0420   -0.4450   -4.8240 cc        1 090      0.115400
     18 NAG         2.4340   -0.2860   -3.4820 na        1 090     -0.090200
     19 CAH         3.7750   -0.7010   -3.3610 cc        1 090     -0.078300
     20 CAB         4.1960   -1.1100   -4.6260 cd        1 090     -0.109300
     21 NAA         3.1230   -0.9460   -5.5210 na        1 090     -0.164100
     22 CAD         0.3040   -0.2010   -6.6000 ca        1 090     -0.065000
     23 CAC        -0.9640    0.1850   -6.9590 ca        1 090     -0.126000
     24 CAI        -1.8680    0.6920   -5.9820 ca        1 090      0.198100
     25 OAS        -3.0740    1.0390   -6.5110 os        1 090     -0.301900
     26 CAY        -3.9940    1.8030   -5.7240 c3        1 090      0.116700
     27 HAQ         0.6240    0.8920    1.2130 h4        1 090      0.026100
     28 HAX         2.5250    0.3260    4.8540 h4        1 090      0.047100
     29 HAW         4.3240   -1.1260    3.8110 ha        1 090      0.168000
     30 HAV         4.2420   -1.5520    1.3180 ha        1 090      0.163000
     31 HAN         1.4540    1.2100   -0.7570 hn        1 090      0.359500
     32 HAZ1       -2.2260   -0.0600   -2.1590 h1        1 090      0.055700
     33 HAZ2       -3.5450   -0.3440   -3.4020 h1        1 090      0.055700
     34 HAZ3       -3.6680    1.0770   -2.2340 h1        1 090      0.055700
     35 HAH         4.3010   -0.7080   -2.3990 h4        1 090      0.242000
     36 HAB         5.1660   -1.4980   -4.9530 h4        1 090      0.230000
     37 HAA         3.1260   -1.1680   -6.4890 hn        1 090      0.353700
     38 HAD         0.9930   -0.5910   -7.3660 ha        1 090      0.148000
     39 HAC        -1.3130    0.1150   -8.0040 ha        1 090      0.185000
     40 HAY1       -3.4940    2.7030   -5.2920 h1        1 090      0.067367
     41 HAY2       -4.4270    1.1630   -4.9180 h1        1 090      0.067367
     42 HAY3       -4.7750    2.0900   -6.4750 h1        1 090      0.067367
@<TRIPOS>BOND
     1    1    2 2   
     2    2    3 1   
     3    2    9 1   
     4    3    4 ar  
     5    3    8 ar  
     6    4    5 ar  
     7    4   27 1   
     8    5    6 ar  
     9    6    7 ar  
    10    6   28 1   
    11    7    8 ar  
    12    7   29 1   
    13    8   30 1   
    14    9   10 2   
    15    9   31 1   
    16   10   11 1   
    17   10   18 1   
    18   11   12 2   
    19   12   13 ar  
    20   12   16 ar  
    21   13   14 1   
    22   13   24 ar  
    23   14   15 1   
    24   15   32 1   
    25   15   33 1   
    26   15   34 1   
    27   16   17 2   
    28   16   22 ar  
    29   17   18 1   
    30   17   21 1   
    31   18   19 1   
    32   19   20 2   
    33   19   35 1   
    34   20   21 1   
    35   20   36 1   
    36   21   37 1   
    37   22   23 ar  
    38   22   38 1   
    39   23   24 ar  
    40   23   39 1   
    41   24   25 1   
    42   25   26 1   
    43   26   40 1   
    44   26   41 1   
    45   26   42 1   
@<TRIPOS>SUBSTRUCTURE
     1 090         1 TEMP              0 ****  ****    0 ROOT
