@<TRIPOS>MOLECULE
090
   42    34     1     0     0
SMALL
bcc


@<TRIPOS>ATOM
      1 OAU         2.3180    1.5000    1.0820 o         1 090     -0.331000
      2 CAO         2.2130    0.5580    1.8180 c1        1 090      0.371000
      3 CAP         2.9620    0.5510    3.2050 c1        1 090     -0.212000
      4 CAQ         2.8190   -0.5280    4.0680 c2        1 090     -0.028000
      5 NAR         3.5120   -0.5590    5.2520 n1        1 090     -0.128000
      6 CAX         4.3490    0.4770    5.5870 c1        1 090     -0.100500
      7 CAW         4.4950    1.5490    4.7350 c1        1 090     -0.100500
      8 CAV         3.7950    1.5830    3.5370 c1        1 090     -0.026000
      9 NAN         1.3890   -0.5420    1.4500 n3        1 090     -0.322000
     10 CAM         0.6860   -0.5200    0.1970 c2        1 090      0.239000
     11 NAL        -0.5670    0.0770    0.0890 n2        1 090     -0.122000
     12 CAK        -1.3410   -0.1300   -1.0460 c1        1 090      0.060000
     13 CAJ        -2.5400    0.5500   -1.1920 c1        1 090      0.091500
     14 OAT        -3.0680    1.3070   -0.1010 os        1 090     -0.182500
     15 CAZ        -4.2000    0.7280    0.4990 c3        1 090     -0.082500
     16 CAE        -0.8720   -0.9240   -2.0630 c2        1 090     -0.141000
     17 CAF         0.4170   -1.5380   -1.9530 c1        1 090      0.163000
     18 NAG         1.1710   -1.3330   -0.8400 n1        1 090     -0.098000
     19 CAH         2.3220   -2.0260   -0.9820 c1        1 090     -0.052000
     20 CAB         2.2850   -2.6610   -2.1810 c1        1 090     -0.088000
     21 NAA         1.1070   -2.3580   -2.7790 n1        1 090     -0.161000
     22 CAD        -1.6100   -1.0460   -3.2500 c2        1 090     -0.056000
     23 CAC        -2.8060   -0.3660   -3.3910 c1        1 090     -0.174000
     24 CAI        -3.2710    0.4270   -2.3710 c1        1 090      0.091500
     25 OAS        -4.4920    0.9940   -2.8200 os        1 090     -0.182500
     26 CAY        -4.3490    2.2550   -3.4060 c3        1 090     -0.082500
     27 HAQ         2.2370   -1.2500    3.8370 h4        1 090      0.165000
     28 HAX         4.8400    0.4530    6.4280 ha        1 090      0.175500
     29 HAW         5.1020    2.3000    4.9800 ha        1 090      0.175500
     30 HAV         3.8980    2.3480    2.9270 ha        1 090      0.167000
     31 HAN         1.2120   -1.2410    2.0860 hn        1 090      0.274000
     32 HAZ1       -4.9970    1.2560    0.2740 h1        1 090      0.100667
     33 HAZ2       -4.3170   -0.2350    0.1540 h1        1 090      0.100667
     34 HAZ3       -4.0780    0.7130    1.5140 h1        1 090      0.100667
     35 HAH         3.0530   -2.0620   -0.3350 DU        1 090      0.258333
     36 HAB         3.0220   -3.2300   -2.5720 DU        1 090      0.258333
     37 HAA         0.8070   -2.6770   -3.6550 DU        1 090      0.258333
     38 HAD        -1.2780   -1.6090   -3.9760 ha        1 090      0.146000
     39 HAC        -3.2940   -0.4460   -4.1760 ha        1 090      0.170000
     40 HAY1       -3.4160    2.5800   -3.2720 h1        1 090      0.100667
     41 HAY2       -4.5390    2.1930   -4.3690 h1        1 090      0.100667
     42 HAY3       -4.9770    2.8830   -2.9880 h1        1 090      0.100667
@<TRIPOS>BOND
     1    1    2 1   
     2    2    9 1   
     3    3    4 1   
     4    3    8 1   
     5    4    5 1   
     6    4   27 1   
     7    6    7 1   
     8    6   28 1   
     9    7   29 1   
    10    8   30 1   
    11    9   10 1   
    12    9   31 1   
    13   10   11 1   
    14   10   18 1   
    15   11   12 1   
    16   12   16 1   
    17   13   14 1   
    18   13   24 1   
    19   14   15 1   
    20   15   32 1   
    21   15   33 1   
    22   15   34 1   
    23   16   17 1   
    24   16   22 1   
    25   19   20 1   
    26   20   21 1   
    27   22   23 1   
    28   22   38 1   
    29   23   39 1   
    30   24   25 1   
    31   25   26 1   
    32   26   40 1   
    33   26   41 1   
    34   26   42 1   
@<TRIPOS>SUBSTRUCTURE
     1 090         1 TEMP              0 ****  ****    0 ROOT
