@<TRIPOS>MOLECULE
091
   26    28     1     0     0
SMALL
bcc


@<TRIPOS>ATOM
      1 C1          0.0290   -0.0340    0.0070 c3        1 091     -0.097700
      2 C2         -0.5500    1.1580   -0.7060 ca        1 091     -0.142300
      3 C3         -0.5330   -1.2180   -0.8180 c         1 091      0.709500
      4 C4          1.5610   -0.0510    0.0490 c3        1 091     -0.088400
      5 C5         -0.4160   -0.1390    1.4900 c3        1 091      0.160800
      6 C6         -1.3560    0.6960   -1.8010 ca        1 091      0.063600
      7 C7         -0.4180    2.5100   -0.4670 ca        1 091     -0.077000
      8 N1         -1.3410   -0.7070   -1.8510 n         1 091     -0.482100
      9 O1         -0.3370   -2.4230   -0.6370 o         1 091     -0.594500
     10 C8          1.9340   -0.0580    1.5450 c3        1 091      0.140800
     11 N2          0.7290    0.1460    2.3460 n3        1 091     -0.784200
     12 C9         -2.0160    1.6000   -2.6310 ca        1 091     -0.168000
     13 C10        -1.0840    3.4160   -1.3050 ca        1 091     -0.163000
     14 C11        -1.8660    2.9660   -2.3630 ca        1 091     -0.092000
     15 H1          1.9620   -0.9650   -0.4550 hc        1 091      0.064700
     16 H2          1.9800    0.8480   -0.4630 hc        1 091      0.064700
     17 H3         -1.2730    0.5520    1.7000 h1        1 091      0.069200
     18 H4         -0.7410   -1.1960    1.7000 h1        1 091      0.069200
     19 H5          0.1990    2.8760    0.3670 ha        1 091      0.135000
     20 H6         -1.8110   -1.2460   -2.5290 hn        1 091      0.341500
     21 H7          2.3570   -1.0610    1.8250 h1        1 091      0.055700
     22 H8          2.7100    0.7210    1.7660 h1        1 091      0.055700
     23 H9          0.6880    1.0950    2.6720 hn        1 091      0.345800
     24 H11        -2.6360    1.2590   -3.4710 ha        1 091      0.141000
     25 H12        -0.9830    4.4950   -1.1180 ha        1 091      0.136000
     26 H13        -2.3810    3.6930   -3.0100 ha        1 091      0.135000
@<TRIPOS>BOND
     1    1    2 1   
     2    1    3 1   
     3    1    4 1   
     4    1    5 1   
     5    2    6 ar  
     6    2    7 ar  
     7    3    8 1   
     8    3    9 2   
     9    4   10 1   
    10    4   15 1   
    11    4   16 1   
    12    5   11 1   
    13    5   17 1   
    14    5   18 1   
    15    6    8 1   
    16    6   12 ar  
    17    7   13 ar  
    18    7   19 1   
    19    8   20 1   
    20   10   11 1   
    21   10   21 1   
    22   10   22 1   
    23   11   23 1   
    24   12   14 ar  
    25   12   24 1   
    26   13   14 ar  
    27   13   25 1   
    28   14   26 1   
@<TRIPOS>SUBSTRUCTURE
     1 091         1 TEMP              0 ****  ****    0 ROOT
