@<TRIPOS>MOLECULE
091
   26    28     1     0     0
SMALL
bcc


@<TRIPOS>ATOM
      1 C1          0.0290   -0.0360    0.0030 c3        1 091     -0.097700
      2 C2         -0.5490    1.1600   -0.7050 ca        1 091     -0.142300
      3 C3         -0.5320   -1.2150   -0.8300 c         1 091      0.709500
      4 C4          1.5600   -0.0530    0.0480 c3        1 091     -0.088400
      5 C5         -0.4200   -0.1490    1.4850 c3        1 091      0.160800
      6 C6         -1.3530    0.7040   -1.8040 ca        1 091      0.063600
      7 C7         -0.4170    2.5100   -0.4570 ca        1 091     -0.077000
      8 N1         -1.3370   -0.6980   -1.8620 ns        1 091     -0.482100
      9 O1         -0.3360   -2.4210   -0.6550 o         1 091     -0.594500
     10 C8          1.9300   -0.0680    1.5450 c3        1 091      0.140800
     11 N2          0.7240    0.1310    2.3450 n7        1 091     -0.784200
     12 C9         -2.0110    1.6130   -2.6300 ca        1 091     -0.168000
     13 C10        -1.0820    3.4220   -1.2910 ca        1 091     -0.163000
     14 C11        -1.8610    2.9780   -2.3540 ca        1 091     -0.092000
     15 H1          1.9800    0.8490   -0.4580 hc        1 091      0.064700
     16 H2          1.9630   -0.9640   -0.4600 hc        1 091      0.064700
     17 H3         -1.2770    0.5410    1.6970 h1        1 091      0.069200
     18 H4         -0.7450   -1.2070    1.6880 h1        1 091      0.069200
     19 H5          0.1980    2.8720    0.3800 ha        1 091      0.135000
     20 H6         -1.8060   -1.2340   -2.5430 hn        1 091      0.341500
     21 H7          2.7050    0.7100    1.7720 h1        1 091      0.055700
     22 H8          2.3530   -1.0730    1.8210 h1        1 091      0.055700
     23 H9          0.6820    1.0780    2.6760 hn        1 091      0.345800
     24 H11        -2.6290    1.2770   -3.4730 ha        1 091      0.141000
     25 H12        -0.9810    4.5000   -1.0990 ha        1 091      0.136000
     26 H13        -2.3750    3.7090   -2.9970 ha        1 091      0.135000
@<TRIPOS>BOND
     1    1    2 1   
     2    1    3 1   
     3    1    4 1   
     4    1    5 1   
     5    2    6 ar  
     6    2    7 ar  
     7    3    8 1   
     8    3    9 2   
     9    4   10 1   
    10    4   15 1   
    11    4   16 1   
    12    5   11 1   
    13    5   17 1   
    14    5   18 1   
    15    6    8 1   
    16    6   12 ar  
    17    7   13 ar  
    18    7   19 1   
    19    8   20 1   
    20   10   11 1   
    21   10   21 1   
    22   10   22 1   
    23   11   23 1   
    24   12   14 ar  
    25   12   24 1   
    26   13   14 ar  
    27   13   25 1   
    28   14   26 1   
@<TRIPOS>SUBSTRUCTURE
     1 091         1 TEMP              0 ****  ****    0 ROOT
