@<TRIPOS>MOLECULE
091
   26    28     1     0     0
SMALL
bcc


@<TRIPOS>ATOM
      1 C1         -0.7580    0.0670    0.0440 c3        1 091     -0.095700
      2 C2          0.7170    0.3530    0.0050 ca        1 091     -0.136300
      3 C3         -0.7930   -1.4830    0.0860 c         1 091      0.703500
      4 C4         -1.4870    0.6690    1.2490 c3        1 091     -0.086400
      5 C5         -1.5210    0.5950   -1.2000 c3        1 091      0.166800
      6 C6          1.4320   -0.8920    0.0250 ca        1 091      0.060600
      7 C7          1.4040    1.5470   -0.0460 ca        1 091     -0.073000
      8 N1          0.5280   -1.9660    0.0730 n         1 091     -0.480100
      9 O1         -1.7900   -2.2110    0.1210 o         1 091     -0.604500
     10 C8         -2.6710    1.4640    0.6630 c3        1 091      0.144800
     11 N2         -2.7790    1.1910   -0.7680 n3        1 091     -0.790200
     12 C9          2.8240   -0.9140   -0.0030 ca        1 091     -0.168000
     13 C10         2.8070    1.5210   -0.0740 ca        1 091     -0.163000
     14 C11         3.4980    0.3140   -0.0530 ca        1 091     -0.092000
     15 H1         -1.8540   -0.1350    1.9340 hc        1 091      0.063700
     16 H2         -0.8080    1.3410    1.8260 hc        1 091      0.063700
     17 H3         -0.9070    1.4030   -1.6850 h1        1 091      0.063700
     18 H4         -1.6870   -0.2250   -1.9470 h1        1 091      0.063700
     19 H5          0.8650    2.5060   -0.0650 ha        1 091      0.143000
     20 H6          0.7900   -2.9160    0.0940 hn        1 091      0.341500
     21 H7         -3.6230    1.2130    1.2010 h1        1 091      0.052700
     22 H8         -2.4850    2.5660    0.7830 h1        1 091      0.052700
     23 H9         -3.5390    0.5570   -0.9410 hn        1 091      0.357800
     24 H11         3.3840   -1.8580    0.0130 ha        1 091      0.140000
     25 H12         3.3620    2.4690   -0.1150 ha        1 091      0.136000
     26 H13         4.5980    0.3140   -0.0760 ha        1 091      0.135000
@<TRIPOS>BOND
     1    1    2 1   
     2    1    3 1   
     3    1    4 1   
     4    1    5 1   
     5    2    6 ar  
     6    2    7 ar  
     7    3    8 1   
     8    3    9 2   
     9    4   10 1   
    10    4   15 1   
    11    4   16 1   
    12    5   11 1   
    13    5   17 1   
    14    5   18 1   
    15    6    8 1   
    16    6   12 ar  
    17    7   13 ar  
    18    7   19 1   
    19    8   20 1   
    20   10   11 1   
    21   10   21 1   
    22   10   22 1   
    23   11   23 1   
    24   12   14 ar  
    25   12   24 1   
    26   13   14 ar  
    27   13   25 1   
    28   14   26 1   
@<TRIPOS>SUBSTRUCTURE
     1 091         1 TEMP              0 ****  ****    0 ROOT
