@<TRIPOS>MOLECULE
091
   26    26     1     0     0
SMALL
bcc


@<TRIPOS>ATOM
      1 C1          0.2630   -0.4500    0.5950 c3        1 091     -0.055000
      2 C2         -0.2790    0.3380   -0.6370 c2        1 091     -0.135000
      3 C3         -0.2600   -1.8590    0.5150 c2        1 091      0.317000
      4 C4          1.5730   -0.4500    0.5950 c3        1 091     -0.167000
      5 C5         -0.1940    0.2540    1.9750 c3        1 091     -0.076000
      6 C6         -1.0680   -0.5560   -1.4130 c2        1 091      0.071000
      7 C7         -0.1110    1.6550   -1.0510 c1        1 091     -0.077000
      8 N1         -1.0900   -1.9580   -0.6800 n         1 091     -0.336000
      9 O1         -0.1010   -2.7300    1.3490 o         1 091     -0.319000
     10 C8          1.9760   -0.4500    2.1080 c3        1 091     -0.096000
     11 N2          0.6640   -0.1400    2.8940 n3        1 091     -0.263000
     12 C9         -1.6700   -0.1110   -2.5870 c1        1 091     -0.168000
     13 C10        -0.7180    2.1000   -2.2330 c1        1 091     -0.127500
     14 C11        -1.5000    1.2140   -3.0030 c1        1 091     -0.127500
     15 H1          1.9120   -1.2510    0.1530 hc        1 091      0.104000
     16 H2          1.9120    0.3520    0.1530 hc        1 091      0.104000
     17 H3         -0.1630    1.2260    1.8820 h1        1 091      0.108500
     18 H4         -1.0960   -0.0310    2.2140 h1        1 091      0.108500
     19 H5          0.4300    2.2690   -0.5190 ha        1 091      0.135000
     20 H6         -1.5290   -2.7050   -0.9660 hn        1 091      0.255000
     21 H7          2.3240   -1.3250    2.3650 h1        1 091      0.095000
     22 H8          2.6430    0.2420    2.2800 h1        1 091      0.095000
     23 H9          0.8150    0.5410    3.4810 hn        1 091      0.141000
     24 H11        -2.2120   -0.7240   -3.1210 ha        1 091      0.141000
     25 H12        -0.6000    3.0250   -2.5240 ha        1 091      0.135500
     26 H13        -1.9220    1.5250   -3.8260 ha        1 091      0.135500
@<TRIPOS>BOND
     1    1    2 1   
     2    1    3 1   
     3    1    4 1   
     4    1    5 1   
     5    2    6 1   
     6    2    7 1   
     7    3    8 1   
     8    3    9 1   
     9    4   10 1   
    10    4   15 1   
    11    4   16 1   
    12    5   11 1   
    13    5   17 1   
    14    5   18 1   
    15    6    8 1   
    16    6   12 1   
    17    7   19 1   
    18    8   20 1   
    19   10   11 1   
    20   10   21 1   
    21   10   22 1   
    22   11   23 1   
    23   12   24 1   
    24   13   14 1   
    25   13   25 1   
    26   14   26 1   
@<TRIPOS>SUBSTRUCTURE
     1 091         1 TEMP              0 ****  ****    0 ROOT
