@<TRIPOS>MOLECULE
091
   26    28     1     0     0
SMALL
bcc


@<TRIPOS>ATOM
      1 C1          0.0280   -0.0340    0.0070 c3        1 091     -0.097700
      2 C2         -0.5490    1.1580   -0.7070 ca        1 091     -0.142300
      3 C3         -0.5370   -1.2180   -0.8170 c         1 091      0.709500
      4 C4          1.5590   -0.0540    0.0510 c3        1 091     -0.088400
      5 C5         -0.4190   -0.1370    1.4910 c3        1 091      0.160800
      6 C6         -1.3550    0.6970   -1.8020 ca        1 091      0.063600
      7 C7         -0.4140    2.5100   -0.4680 ca        1 091     -0.077000
      8 N1         -1.3420   -0.7060   -1.8510 n         1 091     -0.482100
      9 O1         -0.3430   -2.4230   -0.6340 o         1 091     -0.594500
     10 C8          1.9310   -0.0600    1.5470 c3        1 091      0.140800
     11 N2          0.7270    0.1470    2.3480 n3        1 091     -0.784200
     12 C9         -2.0130    1.6010   -2.6330 ca        1 091     -0.168000
     13 C10        -1.0780    3.4170   -1.3080 ca        1 091     -0.163000
     14 C11        -1.8600    2.9670   -2.3660 ca        1 091     -0.092000
     15 H1          1.9800    0.8440   -0.4620 hc        1 091      0.064700
     16 H2          1.9590   -0.9690   -0.4520 hc        1 091      0.064700
     17 H3         -1.2750    0.5560    1.7000 h1        1 091      0.069200
     18 H4         -0.7460   -1.1930    1.7020 h1        1 091      0.069200
     19 H5          0.2030    2.8760    0.3650 ha        1 091      0.135000
     20 H6         -1.8130   -1.2450   -2.5280 hn        1 091      0.341500
     21 H7          2.3530   -1.0630    1.8290 h1        1 091      0.055700
     22 H8          2.7080    0.7180    1.7680 h1        1 091      0.055700
     23 H9          0.6870    1.0970    2.6720 hn        1 091      0.345800
     24 H11        -2.6330    1.2610   -3.4730 ha        1 091      0.141000
     25 H12        -0.9750    4.4960   -1.1220 ha        1 091      0.136000
     26 H13        -2.3730    3.6950   -3.0140 ha        1 091      0.135000
@<TRIPOS>BOND
     1    1    2 1   
     2    1    3 1   
     3    1    4 1   
     4    1    5 1   
     5    2    6 ar  
     6    2    7 ar  
     7    3    8 1   
     8    3    9 2   
     9    4   10 1   
    10    4   15 1   
    11    4   16 1   
    12    5   11 1   
    13    5   17 1   
    14    5   18 1   
    15    6    8 1   
    16    6   12 ar  
    17    7   13 ar  
    18    7   19 1   
    19    8   20 1   
    20   10   11 1   
    21   10   21 1   
    22   10   22 1   
    23   11   23 1   
    24   12   14 ar  
    25   12   24 1   
    26   13   14 ar  
    27   13   25 1   
    28   14   26 1   
@<TRIPOS>SUBSTRUCTURE
     1 091         1 TEMP              0 ****  ****    0 ROOT
