@<TRIPOS>MOLECULE
092
   32    33     1     0     0
SMALL
bcc


@<TRIPOS>ATOM
      1 C5         -0.0750   -0.7420   -0.0700 c2        1 092     -0.222000
      2 C8          3.8050   -0.0260    1.5500 c1        1 092      0.242000
      3 C3         -0.5820   -0.2090    1.0460 c2        1 092     -0.097000
      4 C6          2.5320    0.2960    1.4360 c2        1 092     -0.452000
      5 C1          0.1430    0.0660    2.2520 c2        1 092     -0.157000
      6 C17         1.4940    0.2630    2.4400 c2        1 092      0.120000
      7 C14         0.6050    0.4610    4.5590 c2        1 092      0.306000
      8 C9         -3.5910    1.3470    5.1930 c2        1 092      0.284000
      9 C4         -1.6100    1.2930    3.6430 c3        1 092     -0.149000
     10 C13        -1.3110   -1.1200    3.9830 c3        1 092     -0.066000
     11 C7         -2.9390    0.6090    4.0390 c3        1 092     -0.024000
     12 C2         -0.5660    0.1770    3.5900 c3        1 092     -0.050000
     13 C18        -4.4950    3.4220    5.9240 c3        1 092     -0.065000
     14 N16         1.7940    0.4630    3.8080 n         1 092     -0.342000
     15 N10        -2.6990   -0.8090    4.3060 n3        1 092     -0.272000
     16 O15         0.5560    0.6500    5.7780 o         1 092     -0.313000
     17 O11        -3.8670    2.6510    4.8960 os        1 092     -0.276000
     18 H1         -1.6600    0.0390    1.1000 ha        1 092      0.132000
     19 H2         -0.6990   -0.9190   -0.9560 ha        1 092      0.116000
     20 H3          0.9720   -1.0540   -0.1700 ha        1 092      0.116000
     21 H4          2.1790    0.6300    0.4310 ha        1 092      0.216000
     22 H5         -1.7180    1.7910    2.6480 hc        1 092      0.115000
     23 H6         -1.3280    2.0730    4.3940 hc        1 092      0.115000
     24 H7         -1.3240   -1.8220    3.1030 h1        1 092      0.106500
     25 H8         -0.7880   -1.6290    4.8370 h1        1 092      0.106500
     26 H9         -3.6650    0.6610    3.1730 h1        1 092      0.136000
     27 H10        -5.4820    2.9710    6.1860 h1        1 092      0.093000
     28 H11        -4.6140    4.4310    5.4600 h1        1 092      0.093000
     29 H12        -3.8370    3.4580    6.8260 h1        1 092      0.093000
     30 H13         2.6760    0.7500    4.1440 hn        1 092      0.255000
     31 H14        -2.9110   -1.0360    5.2630 hn        1 092      0.182000
     32 O12        -3.8990    0.9150    6.3040 o         1 092     -0.342000
@<TRIPOS>BOND
     1    1    3 1   
     2    1   19 1   
     3    1   20 1   
     4    2    4 1   
     5    3    5 1   
     6    3   18 1   
     7    4    6 1   
     8    4   21 1   
     9    5    6 1   
    10    5   12 1   
    11    6   14 1   
    12    7   12 1   
    13    7   14 1   
    14    7   16 1   
    15    8   11 1   
    16    8   17 1   
    17    8   32 1   
    18    9   11 1   
    19    9   12 1   
    20    9   22 1   
    21    9   23 1   
    22   10   12 1   
    23   10   15 1   
    24   10   24 1   
    25   10   25 1   
    26   11   15 1   
    27   11   26 1   
    28   13   17 1   
    29   13   27 1   
    30   13   28 1   
    31   13   29 1   
    32   14   30 1   
    33   15   31 1   
@<TRIPOS>SUBSTRUCTURE
     1 092         1 TEMP              0 ****  ****    0 ROOT
