@<TRIPOS>MOLECULE
092
   32    29     1     0     0
SMALL
bcc


@<TRIPOS>ATOM
      1 C5          1.1650   -0.5970   -3.5650 c1        1 092     -0.123000
      2 C8          2.5640   -0.5210   -3.5730 c1        1 092     -0.123000
      3 C3          0.4710   -0.5940   -2.3540 c1        1 092     -0.123000
      4 C6          3.2690   -0.4410   -2.3660 c1        1 092     -0.123000
      5 C1          1.1700   -0.5150   -1.1510 c1        1 092     -0.135000
      6 C17         2.5780   -0.4380   -1.1570 c1        1 092      0.070000
      7 C14         1.9010   -0.4910    1.1280 c1        1 092      0.310000
      8 C9         -2.1450    0.9550    1.6870 c1        1 092      0.282000
      9 C4         -0.2020    0.7140    0.5570 c3        1 092     -0.147000
     10 C13        -0.1240   -1.7680    0.5610 c3        1 092     -0.067000
     11 C7         -1.4360    0.2320    0.6670 c2        1 092     -0.022000
     12 C2          0.7170   -0.5220    0.2700 c2        1 092     -0.043000
     13 C18        -4.0700    2.2790    2.3820 c3        1 092     -0.065000
     14 N16         3.0540   -0.4650    0.2810 n3        1 092     -0.334000
     15 N10        -1.1710   -1.3460    1.1770 n3        1 092     -0.275000
     16 O15         1.9050   -0.4910    2.3410 o         1 092     -0.319000
     17 O12        -1.9090    0.7390    2.8610 o         1 092     -0.344000
     18 O11        -3.1460    1.9490    1.3160 os        1 092     -0.275000
     19 H1          0.6770   -0.6520   -4.4030 ha        1 092      0.139750
     20 H2          3.0450   -0.5230   -4.4160 ha        1 092      0.139750
     21 H3         -0.5020   -0.6470   -2.3490 ha        1 092      0.139750
     22 H4          4.2390   -0.3890   -2.3720 ha        1 092      0.139750
     23 H5         -0.1530    1.3490   -0.1820 hc        1 092      0.116500
     24 H6          0.0680    1.1500    1.3980 hc        1 092      0.116500
     25 H7          0.3780   -2.3900    1.1330 h1        1 092      0.104500
     26 H8         -0.3790   -2.2080   -0.2790 h1        1 092      0.104500
     27 H9         -2.0300    0.3570   -0.0940 h4        1 092      0.136000
     28 H10        -4.7170    2.9580    2.0600 h1        1 092      0.092667
     29 H11        -4.5530    1.4730    2.6560 h1        1 092      0.092667
     30 H12        -3.5710    2.6380    3.1470 h1        1 092      0.092667
     31 H13         3.9240   -0.4430    0.5590 hn        1 092      0.257000
     32 H14        -1.0180   -1.3530    2.0770 hn        1 092      0.183000
@<TRIPOS>BOND
     1    1    3 1   
     2    1   19 1   
     3    2    4 1   
     4    2   20 1   
     5    3   21 1   
     6    4   22 1   
     7    5    6 1   
     8    5   12 1   
     9    6   14 1   
    10    7   14 1   
    11    7   16 1   
    12    8   17 1   
    13    8   18 1   
    14    9   11 1   
    15    9   12 1   
    16    9   23 1   
    17    9   24 1   
    18   10   12 1   
    19   10   15 1   
    20   10   25 1   
    21   10   26 1   
    22   11   15 1   
    23   11   27 1   
    24   13   18 1   
    25   13   28 1   
    26   13   29 1   
    27   13   30 1   
    28   14   31 1   
    29   15   32 1   
@<TRIPOS>SUBSTRUCTURE
     1 092         1 TEMP              0 ****  ****    0 ROOT
