@<TRIPOS>MOLECULE
092
   32    31     1     0     0
SMALL
bcc


@<TRIPOS>ATOM
      1 C5         -0.6410   -2.4680    0.2000 c2        1 092     -0.221000
      2 C8          3.2120   -0.5380    0.4690 c1        1 092      0.234000
      3 C3         -1.0350   -1.6400    1.1730 c2        1 092     -0.099000
      4 C6          1.9010   -0.5520    0.6030 c2        1 092     -0.447000
      5 C1         -0.1700   -0.8790    2.0260 c2        1 092     -0.146000
      6 C17         1.1050   -0.4090    1.7990 c2        1 092      0.112000
      7 C14         0.6040    0.3410    3.9210 c2        1 092      0.313000
      8 C9         -2.8930    2.7320    4.8200 c2        1 092      0.340000
      9 C4         -1.9670    3.7280    6.8830 c2        1 092     -0.124000
     10 C13        -1.0270   -1.5530    4.3030 c2        1 092     -0.039000
     11 C7         -1.8620    2.8930    5.8490 c2        1 092     -0.202000
     12 C2         -0.6240   -0.4240    3.3980 c3        1 092     -0.133000
     13 C18        -5.0170    3.4120    3.9810 c3        1 092     -0.062000
     14 N16         1.5880    0.3070    2.9220 n         1 092     -0.338000
     15 N10        -0.8720   -1.6670    5.5610 n2        1 092     -0.223000
     16 O15         0.7390    0.8930    5.0210 o         1 092     -0.352000
     17 O11        -3.9880    3.5430    4.9630 os        1 092     -0.277000
     18 H1         -2.1130   -1.5030    1.3850 ha        1 092      0.133000
     19 H2         -1.3650   -3.0130   -0.4190 ha        1 092      0.116000
     20 H3          0.4130   -2.6730   -0.0260 ha        1 092      0.116000
     21 H4          1.2970   -0.7080   -0.3230 ha        1 092      0.216000
     22 H5         -1.1690    3.8160    7.6340 ha        1 092      0.129000
     23 H6         -2.8450    4.3700    7.0430 ha        1 092      0.129000
     24 H7         -1.4890    0.3000    3.3110 hc        1 092      0.191000
     25 H8         -1.5500   -2.3750    3.7690 h4        1 092      0.153000
     26 H9         -0.9780    2.2460    5.6890 ha        1 092      0.179000
     27 H10        -4.6110    3.6530    2.9700 h1        1 092      0.090333
     28 H11        -5.4240    2.3720    3.9930 h1        1 092      0.090333
     29 H12        -5.7850    4.1570    4.3030 h1        1 092      0.090333
     30 H13         2.4570    0.7720    2.9550 hn        1 092      0.255000
     31 H14        -0.3970   -0.9230    6.0330 hn        1 092      0.158000
     32 O12        -2.8800    1.9580    3.8550 o         1 092     -0.380000
@<TRIPOS>BOND
     1    1    3 1   
     2    1   19 1   
     3    1   20 1   
     4    2    4 1   
     5    3    5 1   
     6    3   18 1   
     7    4    6 1   
     8    4   21 1   
     9    5    6 1   
    10    5   12 1   
    11    6   14 1   
    12    7   12 1   
    13    7   14 1   
    14    7   16 1   
    15    8   11 1   
    16    8   17 1   
    17    8   32 1   
    18    9   11 1   
    19    9   22 1   
    20    9   23 1   
    21   10   12 1   
    22   10   15 1   
    23   10   25 1   
    24   11   26 1   
    25   12   24 1   
    26   13   17 1   
    27   13   27 1   
    28   13   28 1   
    29   13   29 1   
    30   14   30 1   
    31   15   31 1   
@<TRIPOS>SUBSTRUCTURE
     1 092         1 TEMP              0 ****  ****    0 ROOT
