@<TRIPOS>MOLECULE
092
   32    31     1     0     0
SMALL
bcc


@<TRIPOS>ATOM
      1 C5         -1.3580    0.5160    1.4530 c2        1 092     -0.210000
      2 C8          1.7640   -1.6240   -0.7390 c1        1 092      0.242000
      3 C3         -0.3740    0.8590    2.2890 c2        1 092     -0.113000
      4 C6          1.3170   -0.7050    0.0930 c2        1 092     -0.450000
      5 C1          0.8920    0.1980    2.4150 c2        1 092     -0.136000
      6 C17         1.6360   -0.4930    1.4840 c2        1 092      0.117000
      7 C14         2.9160   -0.6060    3.4000 c2        1 092      0.277000
      8 C9         -4.0380    1.6340    4.3970 c2        1 092      0.334000
      9 C4         -3.0260    1.5210    6.6330 c2        1 092     -0.251000
     10 C13         0.8520   -0.2270    4.8640 c1        1 092     -0.017000
     11 C7         -3.0460    1.0720    5.3590 c2        1 092     -0.013000
     12 C2          1.6460    0.2100    3.7350 c3        1 092     -0.171000
     13 C18        -6.1280    2.7260    4.1020 c3        1 092     -0.064000
     14 N16         2.8330   -0.9900    2.0530 ns        1 092     -0.340000
     15 N10        -2.2390    0.0440    4.8580 n8        1 092     -0.323000
     16 O15         3.8460   -0.8930    4.1590 o         1 092     -0.321000
     17 O11        -5.1510    2.1670    4.9820 os        1 092     -0.262000
     18 H1         -0.5120    1.7040    2.9900 ha        1 092      0.136000
     19 H2         -2.3150    1.0630    1.4420 ha        1 092      0.129000
     20 H3         -1.2940   -0.3360    0.7630 ha        1 092      0.129000
     21 H4          0.5700    0.0220   -0.3130 ha        1 092      0.220000
     22 H5          1.9630    1.2720    3.9850 hc        1 092      0.194000
     23 H6         -3.7600    2.2530    6.9880 ha        1 092      0.131500
     24 H7         -2.2940    1.1700    7.3700 ha        1 092      0.131500
     25 H8          1.3220   -0.9550    5.5430 ha        1 092      0.070000
     26 H9         -2.1470    0.0660    3.8610 hn        1 092      0.201000
     27 H10        -5.6820    3.5710    3.5250 h1        1 092      0.091333
     28 H11        -6.9320    3.0800    4.7940 h1        1 092      0.091333
     29 H12        -6.5050    1.9410    3.4030 h1        1 092      0.091333
     30 H13         3.5260   -1.4810    1.5520 hn        1 092      0.257000
     31 H14        -1.3460   -0.0260    5.3130 hn        1 092      0.201000
     32 O12        -3.9490    1.6780    3.1650 o         1 092     -0.373000
@<TRIPOS>BOND
     1    1    3 1   
     2    1   19 1   
     3    1   20 1   
     4    2    4 1   
     5    3    5 1   
     6    3   18 1   
     7    4    6 1   
     8    4   21 1   
     9    5    6 1   
    10    5   12 1   
    11    6   14 1   
    12    7   12 1   
    13    7   14 1   
    14    7   16 1   
    15    8   11 1   
    16    8   17 1   
    17    8   32 1   
    18    9   11 1   
    19    9   23 1   
    20    9   24 1   
    21   10   12 1   
    22   10   25 1   
    23   11   15 1   
    24   12   22 1   
    25   13   17 1   
    26   13   27 1   
    27   13   28 1   
    28   13   29 1   
    29   14   30 1   
    30   15   26 1   
    31   15   31 1   
@<TRIPOS>SUBSTRUCTURE
     1 092         1 TEMP              0 ****  ****    0 ROOT
