@<TRIPOS>MOLECULE
092
   32    34     1     0     0
SMALL
bcc


@<TRIPOS>ATOM
      1 C5         -3.4130    2.1580    0.5550 ca        1 092     -0.163000
      2 C8         -4.3120    1.4250   -0.2120 ca        1 092     -0.090000
      3 C3         -2.1020    1.7000    0.7610 ca        1 092     -0.071000
      4 C6         -3.9470    0.2080   -0.8040 ca        1 092     -0.168000
      5 C1         -1.7170    0.5070    0.1870 ca        1 092     -0.142300
      6 C17        -2.6470   -0.2500   -0.6020 ca        1 092      0.062600
      7 C14        -0.7050   -1.4880   -0.6250 c         1 092      0.702500
      8 C9          3.1760    0.0850    0.2030 c         1 092      0.611100
      9 C4          0.7670    0.5670   -0.3520 c3        1 092     -0.068400
     10 C13         0.0250   -0.6240    1.6620 c3        1 092      0.169800
     11 C7          1.8530    0.5910    0.7480 c3        1 092      0.125500
     12 C2         -0.4040   -0.2270    0.2300 c3        1 092     -0.085700
     13 C18         4.8540    0.3870   -1.4540 c3        1 092      0.124700
     14 N16        -2.0350   -1.4220   -1.0750 n         1 092     -0.480100
     15 N10         1.3770   -0.1440    1.9190 n3        1 092     -0.796200
     16 O15         0.0660   -2.4140   -0.8900 o         1 092     -0.594500
     17 O11         3.6070    0.7910   -0.8840 os        1 092     -0.436900
     18 H1         -3.7280    3.1090    1.0100 ha        1 092      0.137000
     19 H2         -5.3350    1.8010   -0.3610 ha        1 092      0.136000
     20 H3         -1.3980    2.2840    1.3720 ha        1 092      0.144000
     21 H4         -4.6680   -0.3590   -1.4050 ha        1 092      0.142000
     22 H5          0.4540    1.6110   -0.6000 hc        1 092      0.077200
     23 H6          1.1570    0.0890   -1.2850 hc        1 092      0.077200
     24 H7         -0.6530   -0.1200    2.4070 h1        1 092      0.065200
     25 H8         -0.0600   -1.7360    1.8010 h1        1 092      0.065200
     26 H9          2.0350    1.6570    1.0800 h1        1 092      0.096700
     27 H10         4.7900   -0.6740   -1.7960 h1        1 092      0.053367
     28 H11         4.9900    1.0890   -2.3130 h1        1 092      0.053367
     29 H12         5.6700    0.4980   -0.7000 h1        1 092      0.053367
     30 H13        -2.4830   -2.0990   -1.6340 hn        1 092      0.343500
     31 H14         1.9970   -0.9030    2.1450 hn        1 092      0.387800
     32 O12         3.8790   -0.8320    0.6300 o         1 092     -0.533000
@<TRIPOS>BOND
     1    1    2 ar  
     2    1    3 ar  
     3    1   18 1   
     4    2    4 ar  
     5    2   19 1   
     6    3    5 ar  
     7    3   20 1   
     8    4    6 ar  
     9    4   21 1   
    10    5    6 ar  
    11    5   12 1   
    12    6   14 1   
    13    7   12 1   
    14    7   14 1   
    15    7   16 2   
    16    8   11 1   
    17    8   17 1   
    18    8   32 2   
    19    9   11 1   
    20    9   12 1   
    21    9   22 1   
    22    9   23 1   
    23   10   12 1   
    24   10   15 1   
    25   10   24 1   
    26   10   25 1   
    27   11   15 1   
    28   11   26 1   
    29   13   17 1   
    30   13   27 1   
    31   13   28 1   
    32   13   29 1   
    33   14   30 1   
    34   15   31 1   
@<TRIPOS>SUBSTRUCTURE
     1 092         1 TEMP              0 ****  ****    0 ROOT
