@<TRIPOS>MOLECULE
093
   40    33     1     0     0
SMALL
bcc


@<TRIPOS>ATOM
      1 OAM        -0.6060    3.6130   -0.2580 o         1 093     -0.923500
      2 SAN         0.1020    2.8560    0.6740 ss        1 093      2.849000
      3 OAO        -0.9260    2.5430    1.6060 o         1 093     -0.923500
      4 NAU         1.2970    3.7370    1.3760 n2        1 093     -0.891000
      5 CAV         0.9960    4.9450    2.0150 c3        1 093     -0.015000
      6 CAW         2.0630    5.9900    1.6510 c3        1 093     -0.037000
      7 OAX         1.4400    7.2980    1.5230 oh        1 093     -0.328000
      8 CAF         0.7940    1.3350   -0.0830 c1        1 093     -0.797000
      9 CAB         1.8980    1.4120   -0.9130 c2        1 093      0.049000
     10 CL          2.7370    2.9710   -1.1450 cl        1 093      0.000000
     11 CAC         2.3860    0.2470   -1.5500 c1        1 093     -0.152000
     12 CAD         1.7540   -0.9820   -1.3410 c1        1 093     -0.054000
     13 CAG         0.1500    0.0820    0.1300 c1        1 093     -0.010000
     14 CAH         0.6270   -1.0600   -0.4930 c1        1 093     -0.024000
     15 CAI        -0.1100   -2.2630   -0.4060 c1        1 093     -0.386000
     16 CAJ         0.1890   -3.3770    0.4550 c1        1 093      0.025000
     17 CAE         1.3710   -3.4890    1.3570 c2        1 093     -0.175000
     18 NAK        -0.9170   -4.4640    0.2590 n2        1 093     -0.248000
     19 SAP        -1.3910   -2.5930   -1.1660 ss        1 093      0.497000
     20 CAQ        -1.8530   -3.9840   -0.7100 c2        1 093      0.006000
     21 NAR        -2.8920   -4.6030   -1.1250 n1        1 093     -0.341000
     22 CAS        -3.7300   -4.0080   -2.0920 c1        1 093      0.273000
     23 OAL        -3.4700   -2.9270   -2.5210 o         1 093     -0.363000
     24 CAT        -5.0360   -4.6890   -2.4900 c3        1 093     -0.215000
     25 HAU         2.1840    3.4550    1.3090 hn        1 093      0.248000
     26 HAV1        0.9900    4.8150    2.9390 h1        1 093      0.106000
     27 HAV2        0.1020    5.2650    1.7170 h1        1 093      0.106000
     28 HAW1        2.7400    6.0190    2.3450 h1        1 093      0.071000
     29 HAW2        2.4690    5.7510    0.8240 h1        1 093      0.071000
     30 HAX         2.0560    7.9540    1.7250 ho        1 093      0.207000
     31 HAC         3.1500    0.3000   -2.1240 ha        1 093      0.156000
     32 HAD         2.1130   -1.8370   -1.8120 ha        1 093      0.147000
     33 HAG        -0.6470    0.0260    0.7290 ha        1 093      0.181000
     34 HAE1        2.1770   -3.5260    0.8260 ha        1 093      0.102667
     35 HAE2        1.2960   -4.3320    1.9120 ha        1 093      0.102667
     36 HAE3        1.4050   -2.6850    1.9670 ha        1 093      0.102667
     37 HAK        -0.9600   -5.2700    0.6900 DU        1 093      0.268000
     38 HAT1       -5.0180   -4.9130   -3.5270 hc        1 093      0.105333
     39 HAT2       -5.1420   -5.5230   -1.9730 hc        1 093      0.105333
     40 HAT3       -5.7880   -4.0890   -2.3010 hc        1 093      0.105333
@<TRIPOS>BOND
     1    1    2 1   
     2    2    3 1   
     3    4    5 1   
     4    4   25 1   
     5    5    6 1   
     6    5   26 1   
     7    5   27 1   
     8    6    7 1   
     9    6   28 1   
    10    6   29 1   
    11    7   30 1   
    12    8    9 1   
    13    8   13 1   
    14    9   10 1   
    15    9   11 1   
    16   11   31 1   
    17   12   14 1   
    18   12   32 1   
    19   13   33 1   
    20   15   16 1   
    21   15   19 1   
    22   16   18 1   
    23   17   34 1   
    24   17   35 1   
    25   17   36 1   
    26   18   20 1   
    27   19   20 1   
    28   20   21 1   
    29   22   23 1   
    30   22   24 1   
    31   24   38 1   
    32   24   39 1   
    33   24   40 1   
@<TRIPOS>SUBSTRUCTURE
     1 093         1 TEMP              0 ****  ****    0 ROOT
