@<TRIPOS>MOLECULE
093
   41    42     1     0     0
SMALL
bcc


@<TRIPOS>ATOM
      1 OAM         0.3550    0.3250   -0.1120 o         1 093     -0.564300
      2 SAN         1.7270    0.4950   -0.1660 sy        1 093      1.474200
      3 OAO         2.4880    0.3000    0.9650 o         1 093     -0.564300
      4 NAU         2.2230   -0.9700   -1.2560 ny        1 093     -0.698900
      5 CAV         2.2840   -2.2310   -0.4820 c3        1 093      0.091800
      6 CAW         2.7610   -3.4320   -1.3080 c3        1 093      0.112400
      7 OAX         3.9560   -3.0390   -1.9590 oh        1 093     -0.629800
      8 CAF         2.1950    1.6810   -1.1670 ca        1 093     -0.503500
      9 CAB         3.5300    2.0140   -1.4940 ca        1 093      0.116400
     10 Cl          4.8040    1.0260   -0.9720 cl        1 093     -0.037400
     11 CAC         3.8280    3.1430   -2.2540 ca        1 093     -0.129000
     12 CAD         2.8040    3.9600   -2.7290 ca        1 093     -0.016000
     13 CAG         1.1790    2.5120   -1.6920 ca        1 093     -0.011000
     14 CAH         1.4590    3.6430   -2.4680 ca        1 093      0.022200
     15 CAI         0.3760    4.4630   -2.9380 cc        1 093     -0.206600
     16 CAJ         0.2860    5.1310   -4.1460 cd        1 093      0.152800
     17 CAE         1.2860    5.1310   -5.2410 c3        1 093     -0.067900
     18 NAK        -0.9000    5.8470   -4.2880 na        1 093     -0.674000
     19 SAP        -1.0080    4.7130   -1.9650 ss        1 093      0.032200
     20 CAQ        -1.7560    5.7380   -3.1790 cc        1 093      0.660100
     21 NAR        -2.9270    6.3310   -3.1000 nf        1 093     -0.723100
     22 CAS        -3.6840    6.1270   -1.9240 c         1 093      0.698500
     23 OAL        -3.2470    5.3980   -1.0040 o         1 093     -0.601100
     24 CAT        -5.0110    6.8190   -1.8450 c3        1 093     -0.147100
     25 HAU         1.5530   -1.0890   -2.0150 hn        1 093      0.457300
     26 HAV1        2.9990   -2.0660    0.3790 hx        1 093      0.117700
     27 HAV2        1.2550   -2.4540   -0.0770 hx        1 093      0.117700
     28 HAW1        1.9970   -3.7170   -2.0810 h1        1 093      0.069700
     29 HAW2        2.9300   -4.2950   -0.6110 h1        1 093      0.069700
     30 HAX         4.4620   -3.8380   -2.1560 ho        1 093      0.448000
     31 HAC         4.8800    3.3990   -2.4740 ha        1 093      0.183000
     32 HAD         3.0520    4.8690   -3.3050 ha        1 093      0.172000
     33 HAG         0.1170    2.2750   -1.4700 ha        1 093      0.188000
     34 HAE1        0.8000    5.1740   -6.2490 hc        1 093      0.071033
     35 HAE2        1.9030    4.2000   -5.1900 hc        1 093      0.071033
     36 HAE3        1.9610    6.0200   -5.1400 hc        1 093      0.071033
     37 HAK        -1.1230    6.3810   -5.0960 hn        1 093      0.485800
     38 HAT1       -5.5000    6.5640   -0.8740 hc        1 093      0.077367
     39 HAT2       -4.8700    7.9260   -1.9100 hc        1 093      0.077367
     40 HAT3       -5.6660    6.4930   -2.6900 hc        1 093      0.077367
     41 HAU2        3.1400   -0.8320   -1.6910 hn        1 093      0.457300
@<TRIPOS>BOND
     1    1    2 2   
     2    2    3 2   
     3    2    4 1   
     4    2    8 1   
     5    4    5 1   
     6    4   25 1   
     7    4   41 1   
     8    5    6 1   
     9    5   26 1   
    10    5   27 1   
    11    6    7 1   
    12    6   28 1   
    13    6   29 1   
    14    7   30 1   
    15    8    9 ar  
    16    8   13 ar  
    17    9   10 1   
    18    9   11 ar  
    19   11   12 ar  
    20   11   31 1   
    21   12   14 ar  
    22   12   32 1   
    23   13   14 ar  
    24   13   33 1   
    25   14   15 1   
    26   15   16 2   
    27   15   19 1   
    28   16   17 1   
    29   16   18 1   
    30   17   34 1   
    31   17   35 1   
    32   17   36 1   
    33   18   20 1   
    34   18   37 1   
    35   19   20 1   
    36   20   21 2   
    37   21   22 1   
    38   22   23 2   
    39   22   24 1   
    40   24   38 1   
    41   24   39 1   
    42   24   40 1   
@<TRIPOS>SUBSTRUCTURE
     1 093         1 TEMP              0 ****  ****    0 ROOT
