@<TRIPOS>MOLECULE
093
   41    42     1     0     0
SMALL
bcc


@<TRIPOS>ATOM
      1 OAM         0.3940    0.3380   -0.0940 o         1 093     -0.563800
      2 SAN         1.7640    0.5070   -0.1710 sy        1 093      1.474200
      3 OAO         2.5430    0.3180    0.9480 o         1 093     -0.563800
      4 NAU         2.2420   -0.9630   -1.2610 n4        1 093     -0.698900
      5 CAV         2.2880   -2.2240   -0.4850 c3        1 093      0.091800
      6 CAW         2.7470   -3.4330   -1.3100 c3        1 093      0.112400
      7 OAX         3.9460   -3.0570   -1.9640 oh        1 093     -0.629800
      8 CAF         2.2170    1.6880   -1.1870 ca        1 093     -0.503500
      9 CAB         3.5460    2.0180   -1.5370 ca        1 093      0.116400
     10 CL          4.8280    1.0320   -1.0300 cl        1 093     -0.037400
     11 CAC         3.8330    3.1420   -2.3080 ca        1 093     -0.129000
     12 CAD         2.8010    3.9580   -2.7700 ca        1 093     -0.016000
     13 CAG         1.1930    2.5160   -1.6990 ca        1 093     -0.011000
     14 CAH         1.4610    3.6420   -2.4860 ca        1 093      0.022200
     15 CAI         0.3700    4.4610   -2.9420 cc        1 093     -0.206600
     16 CAJ         0.2610    5.1230   -4.1520 cd        1 093      0.152800
     17 CAE         1.2440    5.1180   -5.2630 c3        1 093     -0.067900
     18 NAK        -0.9270    5.8390   -4.2790 na        1 093     -0.674000
     19 SAP        -0.9980    4.7150   -1.9490 ss        1 093      0.032200
     20 CAQ        -1.7650    5.7360   -3.1560 cc        1 093      0.660100
     21 NAR        -2.9340    6.3290   -3.0600 nf        1 093     -0.723100
     22 CAS        -3.6730    6.1310   -1.8720 c         1 093      0.698500
     23 OAL        -3.2220    5.4060   -0.9550 o         1 093     -0.601100
     24 CAT        -4.9980    6.8240   -1.7750 c3        1 093     -0.147100
     25 HAU         1.5720   -1.0760   -2.0210 hn        1 093      0.457300
     26 HAV1        3.0060   -2.0680    0.3740 hx        1 093      0.118200
     27 HAV2        1.2560   -2.4330   -0.0780 hx        1 093      0.118200
     28 HAW1        1.9780   -3.7090   -2.0800 h1        1 093      0.069700
     29 HAW2        2.9060   -4.2970   -0.6120 h1        1 093      0.069700
     30 HAX         4.4420   -3.8630   -2.1570 ho        1 093      0.448000
     31 HAC         4.8810    3.3970   -2.5460 ha        1 093      0.183000
     32 HAD         3.0400    4.8640   -3.3540 ha        1 093      0.172000
     33 HAG         0.1340    2.2800   -1.4580 ha        1 093      0.188000
     34 HAE1        0.7410    5.1560   -6.2630 hc        1 093      0.071033
     35 HAE2        1.8610    4.1860   -5.2170 hc        1 093      0.071033
     36 HAE3        1.9200    6.0070   -5.1770 hc        1 093      0.071033
     37 HAK        -1.1630    6.3690   -5.0860 hn        1 093      0.485800
     38 HAT1       -5.4720    6.5730   -0.7950 hc        1 093      0.077367
     39 HAT2       -4.8580    7.9310   -1.8470 hc        1 093      0.077367
     40 HAT3       -5.6670    6.4940   -2.6080 hc        1 093      0.077367
     41 HAU2        3.1610   -0.8370   -1.6950 hn        1 093      0.457300
@<TRIPOS>BOND
     1    1    2 2   
     2    2    3 2   
     3    2    4 1   
     4    2    8 1   
     5    4    5 1   
     6    4   25 1   
     7    4   41 1   
     8    5    6 1   
     9    5   26 1   
    10    5   27 1   
    11    6    7 1   
    12    6   28 1   
    13    6   29 1   
    14    7   30 1   
    15    8    9 ar  
    16    8   13 ar  
    17    9   10 1   
    18    9   11 ar  
    19   11   12 ar  
    20   11   31 1   
    21   12   14 ar  
    22   12   32 1   
    23   13   14 ar  
    24   13   33 1   
    25   14   15 1   
    26   15   16 2   
    27   15   19 1   
    28   16   17 1   
    29   16   18 1   
    30   17   34 1   
    31   17   35 1   
    32   17   36 1   
    33   18   20 1   
    34   18   37 1   
    35   19   20 1   
    36   20   21 2   
    37   21   22 1   
    38   22   23 2   
    39   22   24 1   
    40   24   38 1   
    41   24   39 1   
    42   24   40 1   
@<TRIPOS>SUBSTRUCTURE
     1 093         1 TEMP              0 ****  ****    0 ROOT
