@<TRIPOS>MOLECULE
093
   40    41     1     0     0
SMALL
bcc


@<TRIPOS>ATOM
      1 OAM        -1.7970    2.0140   -0.8190 o         1 093     -0.649300
      2 SAN        -2.5910    1.1520   -0.0310 sy        1 093      1.511200
      3 OAO        -3.2010    1.7350    1.0960 o         1 093     -0.649300
      4 NAU        -3.6820    0.4250   -0.9620 n3        1 093     -0.920100
      5 CAV        -5.0820    0.3250   -0.6710 c3        1 093      0.225800
      6 CAW        -5.9880    0.9280   -1.7560 c3        1 093      0.109400
      7 OAX        -5.8200    0.1440   -2.9260 oh        1 093     -0.606800
      8 CAF        -1.5780   -0.1430    0.4540 ca        1 093     -0.351500
      9 CAB        -1.9810   -1.2350    1.2340 ca        1 093      0.131400
     10 CL         -3.5940   -1.3900    1.7450 cl        1 093     -0.071400
     11 CAC        -1.0760   -2.2300    1.6160 ca        1 093     -0.155000
     12 CAD         0.2540   -2.1470    1.2170 ca        1 093     -0.054000
     13 CAG        -0.2320   -0.0800    0.0650 ca        1 093     -0.011000
     14 CAH         0.6890   -1.0680    0.4340 ca        1 093     -0.038800
     15 CAI         2.0710   -0.9700    0.0230 cc        1 093     -0.131600
     16 CAJ         2.7480   -1.8580   -0.7830 cd        1 093      0.100800
     17 CAE         2.1930   -3.0810   -1.4100 c3        1 093     -0.052900
     18 NAK         4.0820   -1.4990   -0.9990 na        1 093     -0.687000
     19 SAP         3.0680    0.3170    0.5240 ss        1 093      0.033200
     20 CAQ         4.4520   -0.3070   -0.3560 cc        1 093      0.670100
     21 NAR         5.6710    0.1790   -0.4590 nf        1 093     -0.769100
     22 CAS         6.0400    1.3650    0.1950 c         1 093      0.701500
     23 OAL         5.2570    2.0190    0.9170 o         1 093     -0.602100
     24 CAT         7.4600    1.8130   -0.0250 c3        1 093     -0.147100
     25 HAU        -3.4540    0.0480   -1.8530 hn        1 093      0.460800
     26 HAV1       -5.3620   -0.7620   -0.5550 h1        1 093      0.066200
     27 HAV2       -5.3010    0.8580    0.3000 h1        1 093      0.066200
     28 HAW1       -7.0540    0.8710   -1.4070 h1        1 093      0.035200
     29 HAW2       -5.7240    1.9990   -1.9630 h1        1 093      0.035200
     30 HAX        -6.3400    0.5660   -3.6200 ho        1 093      0.406000
     31 HAC        -1.4120   -3.0760    2.2370 ha        1 093      0.156000
     32 HAD         0.9700   -2.9270    1.5210 ha        1 093      0.147000
     33 HAG         0.1120    0.7770   -0.5480 ha        1 093      0.182000
     34 HAE1        2.1610   -2.9690   -2.5240 hc        1 093      0.063367
     35 HAE2        2.8150   -3.9770   -1.1610 hc        1 093      0.063367
     36 HAE3        1.1530   -3.2510   -1.0360 hc        1 093      0.063367
     37 HAK         4.6970   -2.0250   -1.5720 hn        1 093      0.472800
     38 HAT1        7.6360    2.7570    0.5450 hc        1 093      0.066033
     39 HAT2        8.1710    1.0280    0.3300 hc        1 093      0.066033
     40 HAT3        7.6420    1.9960   -1.1120 hc        1 093      0.066033
@<TRIPOS>BOND
     1    1    2 2   
     2    2    3 2   
     3    2    4 1   
     4    2    8 1   
     5    4    5 1   
     6    4   25 1   
     7    5    6 1   
     8    5   26 1   
     9    5   27 1   
    10    6    7 1   
    11    6   28 1   
    12    6   29 1   
    13    7   30 1   
    14    8    9 ar  
    15    8   13 ar  
    16    9   10 1   
    17    9   11 ar  
    18   11   12 ar  
    19   11   31 1   
    20   12   14 ar  
    21   12   32 1   
    22   13   14 ar  
    23   13   33 1   
    24   14   15 1   
    25   15   16 2   
    26   15   19 1   
    27   16   17 1   
    28   16   18 1   
    29   17   34 1   
    30   17   35 1   
    31   17   36 1   
    32   18   20 1   
    33   18   37 1   
    34   19   20 1   
    35   20   21 2   
    36   21   22 1   
    37   22   23 2   
    38   22   24 1   
    39   24   38 1   
    40   24   39 1   
    41   24   40 1   
@<TRIPOS>SUBSTRUCTURE
     1 093         1 TEMP              0 ****  ****    0 ROOT
