@<TRIPOS>MOLECULE
093
   41    42     1     0     0
SMALL
bcc


@<TRIPOS>ATOM
      1 OAM         0.3600    0.3370   -0.0950 o         1 093     -0.564300
      2 SAN         1.7320    0.4960   -0.1670 sy        1 093      1.474200
      3 OAO         2.5060    0.3010    0.9550 o         1 093     -0.564300
      4 NAU         2.2010   -0.9780   -1.2570 n4        1 093     -0.698900
      5 CAV         2.2890   -2.2320   -0.4740 c3        1 093      0.091800
      6 CAW         2.7500   -3.4380   -1.3020 c3        1 093      0.112400
      7 OAX         3.9250   -3.0460   -1.9880 oh        1 093     -0.629800
      8 CAF         2.1970    1.6740   -1.1810 ca        1 093     -0.503500
      9 CAB         3.5300    1.9940   -1.5270 ca        1 093      0.116400
     10 CL          4.8030    0.9990   -1.0160 cl        1 093     -0.037400
     11 CAC         3.8280    3.1170   -2.2960 ca        1 093     -0.129000
     12 CAD         2.8030    3.9400   -2.7620 ca        1 093     -0.016000
     13 CAG         1.1810    2.5100   -1.6960 ca        1 093     -0.011000
     14 CAH         1.4600    3.6340   -2.4820 ca        1 093      0.022200
     15 CAI         0.3770    4.4620   -2.9420 cc        1 093     -0.206600
     16 CAJ         0.2770    5.1240   -4.1530 cd        1 093      0.152800
     17 CAE         1.2630    5.1100   -5.2610 c3        1 093     -0.067900
     18 NAK        -0.9050    5.8490   -4.2830 na        1 093     -0.674000
     19 SAP        -0.9920    4.7270   -1.9530 ss        1 093      0.032200
     20 CAQ        -1.7470    5.7520   -3.1630 cc        1 093      0.660100
     21 NAR        -2.9130    6.3540   -3.0710 nf        1 093     -0.723100
     22 CAS        -3.6560    6.1630   -1.8850 c         1 093      0.698500
     23 OAL        -3.2130    5.4350   -0.9660 o         1 093     -0.601100
     24 CAT        -4.9760    6.8670   -1.7920 c3        1 093     -0.147100
     25 HAU         3.1050   -0.8420   -1.7200 hn        1 093      0.457300
     26 HAV1        1.2730   -2.4560   -0.0390 hx        1 093      0.117700
     27 HAV2        3.0260   -2.0570    0.3660 hx        1 093      0.117700
     28 HAW1        2.9410   -4.2950   -0.6020 h1        1 093      0.069700
     29 HAW2        1.9660   -3.7330   -2.0520 h1        1 093      0.069700
     30 HAX         4.4260   -3.8460   -2.1960 ho        1 093      0.448000
     31 HAC         4.8780    3.3630   -2.5320 ha        1 093      0.183000
     32 HAD         3.0510    4.8440   -3.3460 ha        1 093      0.172000
     33 HAG         0.1200    2.2820   -1.4600 ha        1 093      0.188000
     34 HAE1        1.8730    4.1740   -5.2120 hc        1 093      0.071033
     35 HAE2        1.9460    5.9940   -5.1730 hc        1 093      0.071033
     36 HAE3        0.7640    5.1520   -6.2620 hc        1 093      0.071033
     37 HAK        -1.1340    6.3800   -5.0910 hn        1 093      0.485800
     38 HAT1       -5.4550    6.6200   -0.8130 hc        1 093      0.077367
     39 HAT2       -5.6450    6.5410   -2.6260 hc        1 093      0.077367
     40 HAT3       -4.8270    7.9720   -1.8650 hc        1 093      0.077367
     41 HAU2        1.5100   -1.1060   -1.9950 hn        1 093      0.457300
@<TRIPOS>BOND
     1    1    2 2   
     2    2    3 2   
     3    2    4 1   
     4    2    8 1   
     5    4    5 1   
     6    4   25 1   
     7    4   41 1   
     8    5    6 1   
     9    5   26 1   
    10    5   27 1   
    11    6    7 1   
    12    6   28 1   
    13    6   29 1   
    14    7   30 1   
    15    8    9 ar  
    16    8   13 ar  
    17    9   10 1   
    18    9   11 ar  
    19   11   12 ar  
    20   11   31 1   
    21   12   14 ar  
    22   12   32 1   
    23   13   14 ar  
    24   13   33 1   
    25   14   15 1   
    26   15   16 2   
    27   15   19 1   
    28   16   17 1   
    29   16   18 1   
    30   17   34 1   
    31   17   35 1   
    32   17   36 1   
    33   18   20 1   
    34   18   37 1   
    35   19   20 1   
    36   20   21 2   
    37   21   22 1   
    38   22   23 2   
    39   22   24 1   
    40   24   38 1   
    41   24   39 1   
    42   24   40 1   
@<TRIPOS>SUBSTRUCTURE
     1 093         1 TEMP              0 ****  ****    0 ROOT
