@<TRIPOS>MOLECULE
094
   52    56     1     0     0
SMALL
bcc


@<TRIPOS>ATOM
      1 F1          0.0030   -0.8710    0.4180 f         1 094     -0.131900
      2 C1          1.3140   -0.5930    0.2360 ca        1 094      0.177900
      3 C2          2.2200   -0.7610    1.3020 ca        1 094     -0.196000
      4 C3          3.5600   -0.4590    1.1050 ca        1 094     -0.036000
      5 C4          4.0470   -0.0150   -0.1320 ca        1 094     -0.105100
      6 S1          5.7340    0.1660   -0.2430 ss        1 094     -0.151200
      7 C5          6.0630    1.8010   -0.6240 ca        1 094      0.459600
      8 C6          7.4310    2.1780   -0.7000 ca        1 094     -0.116100
      9 C7          7.7380    3.5090   -0.9850 ca        1 094     -0.117000
     10 C8          6.7000    4.4390   -1.2040 ca        1 094     -0.022700
     11 N1          6.9500    5.7840   -1.5190 n         1 094     -0.290200
     12 C9          5.8900    6.7340   -1.5490 c         1 094      0.817500
     13 O1          6.1220    7.9440   -1.7580 o         1 094     -0.639500
     14 N2          4.5880    6.2970   -1.3020 n         1 094     -0.553900
     15 C10         4.2080    4.9130   -1.3630 c3        1 094      0.047700
     16 C11         5.3560    3.9600   -1.1100 ca        1 094      0.372600
     17 N3          5.0590    2.6790   -0.8240 nb        1 094     -0.647000
     18 C12         8.2850    6.2510   -1.6450 ca        1 094      0.055600
     19 C13         9.0090    6.7300   -0.5270 ca        1 094      0.038900
     20 CL1         8.3050    6.7400    1.0180 cl        1 094     -0.063900
     21 C14        10.3140    7.2070   -0.6710 ca        1 094     -0.127500
     22 C15        10.9200    7.2130   -1.9250 ca        1 094     -0.103000
     23 C16        10.2310    6.7450   -3.0400 ca        1 094     -0.127500
     24 C17         8.9240    6.2680   -2.9080 ca        1 094      0.038900
     25 CL2         8.1190    5.7110   -4.2940 cl        1 094     -0.063900
     26 C18         8.5130    1.2180   -0.4760 ce        1 094     -0.071400
     27 C19         9.3860    1.3630    0.5340 c2        1 094     -0.147200
     28 C20        10.5070    0.4110    0.7860 c3        1 094      0.193000
     29 N4         10.5110   -0.7740   -0.0520 n3        1 094     -0.821200
     30 C21        10.0070   -0.5630   -1.3940 c3        1 094      0.166800
     31 C22         8.6160    0.0730   -1.4250 c3        1 094     -0.042200
     32 C23         3.1280    0.1450   -1.1930 ca        1 094      0.217900
     33 F2          3.5340    0.5640   -2.4120 f         1 094     -0.118900
     34 C24         1.7610   -0.1370   -1.0110 ca        1 094     -0.226000
     35 H2          1.8570   -1.1190    2.2760 ha        1 094      0.157000
     36 H3          4.2690   -0.5710    1.9440 ha        1 094      0.156000
     37 H7          8.7930    3.8210   -1.0390 ha        1 094      0.155000
     38 HN2         3.8750    6.9660   -1.4920 hn        1 094      0.336500
     39 H101        3.3970    4.7530   -0.5920 h1        1 094      0.064200
     40 H102        3.7710    4.6650   -2.3780 h1        1 094      0.064200
     41 H14        10.8600    7.5830    0.2080 ha        1 094      0.155000
     42 H15        11.9470    7.5940   -2.0350 ha        1 094      0.146000
     43 H16        10.7120    6.7560   -4.0310 ha        1 094      0.155000
     44 H19         9.3210    2.2000    1.2450 ha        1 094      0.134000
     45 H201       10.4360    0.0470    1.8530 h1        1 094      0.042200
     46 H202       11.4720    0.9990    0.6980 h1        1 094      0.042200
     47 HN4        11.4350   -1.1620   -0.0900 hn        1 094      0.364800
     48 H211       10.7010    0.0820   -2.0110 h1        1 094      0.030700
     49 H212        9.9530   -1.5730   -1.8910 h1        1 094      0.030700
     50 H221        8.4040    0.4140   -2.4720 hc        1 094      0.067200
     51 H222        7.8400   -0.6960   -1.1530 hc        1 094      0.067200
     52 H24         1.0550   -0.0020   -1.8440 ha        1 094      0.167000
@<TRIPOS>BOND
     1    1    2 1   
     2    2    3 ar  
     3    2   34 ar  
     4    3    4 ar  
     5    3   35 1   
     6    4    5 ar  
     7    4   36 1   
     8    5    6 1   
     9    5   32 ar  
    10    6    7 1   
    11    7    8 ar  
    12    7   17 ar  
    13    8    9 ar  
    14    8   26 1   
    15    9   10 ar  
    16    9   37 1   
    17   10   11 1   
    18   10   16 ar  
    19   11   12 1   
    20   11   18 1   
    21   12   13 2   
    22   12   14 1   
    23   14   15 1   
    24   14   38 1   
    25   15   16 1   
    26   15   39 1   
    27   15   40 1   
    28   16   17 ar  
    29   18   19 ar  
    30   18   24 ar  
    31   19   20 1   
    32   19   21 ar  
    33   21   22 ar  
    34   21   41 1   
    35   22   23 ar  
    36   22   42 1   
    37   23   24 ar  
    38   23   43 1   
    39   24   25 1   
    40   26   27 2   
    41   26   31 1   
    42   27   28 1   
    43   27   44 1   
    44   28   29 1   
    45   28   45 1   
    46   28   46 1   
    47   29   30 1   
    48   29   47 1   
    49   30   31 1   
    50   30   48 1   
    51   30   49 1   
    52   31   50 1   
    53   31   51 1   
    54   32   33 1   
    55   32   34 ar  
    56   34   52 1   
@<TRIPOS>SUBSTRUCTURE
     1 094         1 TEMP              0 ****  ****    0 ROOT
