@<TRIPOS>MOLECULE
094
   52    49     1     0     0
SMALL
bcc


@<TRIPOS>ATOM
      1 F1         -6.3710   -1.3310    3.3170 f         1 094     -0.097000
      2 C1         -5.1430   -1.1600    2.8000 c2        1 094      0.138000
      3 C2         -4.1230   -2.0460    3.1260 c2        1 094     -0.192000
      4 C3         -2.8470   -1.8600    2.6060 c1        1 094     -0.044000
      5 C4         -2.5900   -0.7870    1.7590 c1        1 094     -0.328000
      6 S1         -0.9080   -0.4360    1.2480 ss        1 094      0.404000
      7 C5         -0.4670   -1.4940   -0.1320 c2        1 094     -0.203000
      8 C6          0.3590   -0.6030    0.5420 c1        1 094     -0.033000
      9 C7          0.7640    0.5590   -0.0730 c1        1 094     -0.118000
     10 C8          0.3450    0.8410   -1.3700 c1        1 094      0.054000
     11 N1          0.7460    2.0820   -2.0150 n2        1 094     -0.238000
     12 C9          0.5940    2.2320   -3.4400 c2        1 094      0.408000
     13 O1          1.1040    3.1800   -4.0110 o         1 094     -0.363000
     14 N2         -0.1810    1.2750   -4.1840 n         1 094     -0.363000
     15 C10        -0.7320    0.1400   -3.5250 c3        1 094      0.026000
     16 C11        -0.4720   -0.0420   -2.0340 c2        1 094     -0.051000
     17 N3         -0.8800   -1.2150   -1.4110 n2        1 094     -0.115000
     18 C12         1.1160    3.2180   -1.2130 c2        1 094      0.062000
     19 C13         2.4590    3.5170   -1.0110 c2        1 094     -0.042000
     20 CL1         3.6940    2.4980   -1.7070 cl        1 094      0.016000
     21 C14         2.8180    4.6660   -0.3150 c1        1 094     -0.127000
     22 C15         1.8340    5.5170    0.1800 c1        1 094     -0.116000
     23 C16         0.4920    5.2180   -0.0220 c1        1 094     -0.116000
     24 C17         0.1320    4.0690   -0.7180 c1        1 094     -0.037000
     25 CL2        -1.5510    3.7460   -1.0560 cl        1 094      0.014000
     26 C18         1.1620   -1.9230    0.6260 c2        1 094     -0.074000
     27 C19         0.4320   -3.2890    1.1240 c1        1 094     -0.147000
     28 C20         1.2130   -4.4940    1.0040 c2        1 094     -0.047000
     29 N4          2.7540   -4.2270    1.2200 n3        1 094     -0.299000
     30 C21         3.2280   -3.3620    0.5950 c3        1 094     -0.071000
     31 C22         2.5470   -1.8890    0.7850 c3        1 094     -0.121000
     32 C23        -3.6120    0.1000    1.4330 c1        1 094      0.175000
     33 F2         -3.3440    1.1890    0.6970 f         1 094     -0.086000
     34 C24        -4.8880   -0.0870    1.9550 c2        1 094     -0.221000
     35 H2         -4.3030   -2.8040    3.7240 ha        1 094      0.156000
     36 H3         -2.1280   -2.4850    2.8360 ha        1 094      0.152000
     37 H7          1.3480    1.1890    0.4030 ha        1 094      0.154000
     38 HN2        -0.2780    1.3700   -5.0940 hn        1 094      0.250000
     39 H101       -0.3920   -0.6620   -3.9840 h1        1 094      0.103500
     40 H102       -1.7060    0.1680   -3.6540 h1        1 094      0.103500
     41 H14         3.7660    4.8780   -0.1720 ha        1 094      0.155000
     42 H15         2.0880    6.3280    0.6710 ha        1 094      0.150500
     43 H16        -0.2030    5.8190    0.3270 ha        1 094      0.150500
     44 H19        -0.5450   -3.3400    1.1530 ha        1 094      0.143000
     45 H201        1.0380   -5.0040    0.1810 h4        1 094      0.083000
     46 H202        0.8960   -5.1350    1.6800 h4        1 094      0.083000
     47 HN4         3.2240   -5.0050    1.0740 hn        1 094      0.161000
     48 H211        4.1790   -3.2930    0.8400 h1        1 094      0.069000
     49 H212        3.1720   -3.6060   -0.3570 h1        1 094      0.069000
     50 H221        3.0270   -1.2620    0.1990 hc        1 094      0.101000
     51 H222        2.7390   -1.4980    1.6670 hc        1 094      0.101000
     52 H24        -5.6090    0.5380    1.7250 ha        1 094      0.166000
@<TRIPOS>BOND
     1    1    2 1   
     2    2    3 1   
     3    2   34 1   
     4    3    4 1   
     5    3   35 1   
     6    4   36 1   
     7    5    6 1   
     8    5   32 1   
     9    6    7 1   
    10    7    8 1   
    11    7   17 1   
    12    8   26 1   
    13    9   10 1   
    14    9   37 1   
    15   10   16 1   
    16   11   12 1   
    17   11   18 1   
    18   12   13 1   
    19   12   14 1   
    20   14   15 1   
    21   14   38 1   
    22   15   16 1   
    23   15   39 1   
    24   15   40 1   
    25   16   17 1   
    26   18   19 1   
    27   18   24 1   
    28   19   20 1   
    29   19   21 1   
    30   21   41 1   
    31   22   23 1   
    32   22   42 1   
    33   23   43 1   
    34   24   25 1   
    35   26   27 1   
    36   26   31 1   
    37   27   44 1   
    38   28   29 1   
    39   28   45 1   
    40   28   46 1   
    41   29   30 1   
    42   29   47 1   
    43   30   31 1   
    44   30   48 1   
    45   30   49 1   
    46   31   50 1   
    47   31   51 1   
    48   32   34 1   
    49   34   52 1   
@<TRIPOS>SUBSTRUCTURE
     1 094         1 TEMP              0 ****  ****    0 ROOT
