@<TRIPOS>MOLECULE
094
   52    56     1     0     0
SMALL
bcc


@<TRIPOS>ATOM
      1 F1          0.0020   -0.8650    0.4300 f         1 094     -0.131900
      2 C1          1.3130   -0.5880    0.2460 ca        1 094      0.177900
      3 C2          2.2210   -0.7560    1.3110 ca        1 094     -0.196000
      4 C3          3.5600   -0.4550    1.1110 ca        1 094     -0.036000
      5 C4          4.0460   -0.0130   -0.1270 ca        1 094     -0.105100
      6 S1          5.7330    0.1670   -0.2400 ss        1 094     -0.151200
      7 C5          6.0620    1.8010   -0.6230 ca        1 094      0.459600
      8 C6          7.4300    2.1770   -0.7010 ca        1 094     -0.116100
      9 C7          7.7380    3.5080   -0.9870 ca        1 094     -0.117000
     10 C8          6.7010    4.4390   -1.2050 ca        1 094     -0.022700
     11 N1          6.9510    5.7830   -1.5220 n         1 094     -0.290200
     12 C9          5.8910    6.7340   -1.5510 c         1 094      0.817500
     13 O1          6.1250    7.9440   -1.7600 o         1 094     -0.639500
     14 N2          4.5900    6.2980   -1.3030 ns        1 094     -0.553900
     15 C10         4.2080    4.9140   -1.3620 c3        1 094      0.047700
     16 C11         5.3570    3.9610   -1.1100 ca        1 094      0.372600
     17 N3          5.0590    2.6800   -0.8220 nb        1 094     -0.647000
     18 C12         8.2870    6.2500   -1.6480 ca        1 094      0.055600
     19 C13         9.0110    6.7290   -0.5310 ca        1 094      0.038900
     20 Cl1         8.3080    6.7400    1.0140 cl        1 094     -0.063900
     21 C14        10.3170    7.2050   -0.6760 ca        1 094     -0.127500
     22 C15        10.9220    7.2100   -1.9300 ca        1 094     -0.103000
     23 C16        10.2320    6.7420   -3.0450 ca        1 094     -0.127500
     24 C17         8.9250    6.2660   -2.9120 ca        1 094      0.038900
     25 Cl2         8.1190    5.7080   -4.2970 cl        1 094     -0.063900
     26 C18         8.5120    1.2170   -0.4780 ce        1 094     -0.071400
     27 C19         9.3870    1.3630    0.5310 c2        1 094     -0.147200
     28 C20        10.5080    0.4100    0.7820 c3        1 094      0.193000
     29 N4         10.5100   -0.7750   -0.0550 n7        1 094     -0.821200
     30 C21        10.0040   -0.5660   -1.3960 c3        1 094      0.166800
     31 C22         8.6140    0.0710   -1.4260 c3        1 094     -0.042200
     32 C23         3.1260    0.1470   -1.1860 ca        1 094      0.217900
     33 F2          3.5300    0.5650   -2.4060 f         1 094     -0.118900
     34 C24         1.7580   -0.1330   -1.0020 ca        1 094     -0.226000
     35 H2          1.8590   -1.1130    2.2850 ha        1 094      0.157000
     36 H3          4.2700   -0.5670    1.9490 ha        1 094      0.156000
     37 H7          8.7930    3.8190   -1.0420 ha        1 094      0.155000
     38 HN2         3.8770    6.9680   -1.4920 hn        1 094      0.336500
     39 H101        3.7700    4.6660   -2.3770 h1        1 094      0.064200
     40 H102        3.3980    4.7550   -0.5900 h1        1 094      0.064200
     41 H14        10.8630    7.5820    0.2020 ha        1 094      0.155000
     42 H15        11.9490    7.5910   -2.0410 ha        1 094      0.146000
     43 H16        10.7120    6.7520   -4.0360 ha        1 094      0.155000
     44 H19         9.3230    2.2000    1.2420 ha        1 094      0.134000
     45 H201       11.4730    0.9970    0.6930 h1        1 094      0.042200
     46 H202       10.4370    0.0470    1.8500 h1        1 094      0.042200
     47 HN4        11.4340   -1.1640   -0.0940 hn        1 094      0.364800
     48 H211       10.6980    0.0790   -2.0140 h1        1 094      0.030700
     49 H212        9.9490   -1.5760   -1.8930 h1        1 094      0.030700
     50 H221        7.8370   -0.6980   -1.1520 hc        1 094      0.067200
     51 H222        8.4000    0.4110   -2.4730 hc        1 094      0.067200
     52 H24         1.0520    0.0010   -1.8340 ha        1 094      0.167000
@<TRIPOS>BOND
     1    1    2 1   
     2    2    3 ar  
     3    2   34 ar  
     4    3    4 ar  
     5    3   35 1   
     6    4    5 ar  
     7    4   36 1   
     8    5    6 1   
     9    5   32 ar  
    10    6    7 1   
    11    7    8 ar  
    12    7   17 ar  
    13    8    9 ar  
    14    8   26 1   
    15    9   10 ar  
    16    9   37 1   
    17   10   11 1   
    18   10   16 ar  
    19   11   12 1   
    20   11   18 1   
    21   12   13 2   
    22   12   14 1   
    23   14   15 1   
    24   14   38 1   
    25   15   16 1   
    26   15   39 1   
    27   15   40 1   
    28   16   17 ar  
    29   18   19 ar  
    30   18   24 ar  
    31   19   20 1   
    32   19   21 ar  
    33   21   22 ar  
    34   21   41 1   
    35   22   23 ar  
    36   22   42 1   
    37   23   24 ar  
    38   23   43 1   
    39   24   25 1   
    40   26   27 2   
    41   26   31 1   
    42   27   28 1   
    43   27   44 1   
    44   28   29 1   
    45   28   45 1   
    46   28   46 1   
    47   29   30 1   
    48   29   47 1   
    49   30   31 1   
    50   30   48 1   
    51   30   49 1   
    52   31   50 1   
    53   31   51 1   
    54   32   33 1   
    55   32   34 ar  
    56   34   52 1   
@<TRIPOS>SUBSTRUCTURE
     1 094         1 TEMP              0 ****  ****    0 ROOT
