@<TRIPOS>MOLECULE
094
   52    56     1     0     0
SMALL
bcc


@<TRIPOS>ATOM
      1 F1         -0.0060   -0.8500    0.4280 f         1 094     -0.131900
      2 C1          1.3050   -0.5760    0.2450 ca        1 094      0.177900
      3 C2          2.2130   -0.7470    1.3080 ca        1 094     -0.196000
      4 C3          3.5530   -0.4490    1.1090 ca        1 094     -0.036000
      5 C4          4.0390   -0.0060   -0.1290 ca        1 094     -0.105100
      6 S1          5.7270    0.1690   -0.2430 ss        1 094     -0.151200
      7 C5          6.0600    1.8030   -0.6240 ca        1 094      0.459600
      8 C6          7.4290    2.1760   -0.7020 ca        1 094     -0.116100
      9 C7          7.7400    3.5060   -0.9870 ca        1 094     -0.117000
     10 C8          6.7050    4.4400   -1.2040 ca        1 094     -0.022700
     11 N1          6.9580    5.7840   -1.5190 n         1 094     -0.290200
     12 C9          5.9010    6.7370   -1.5470 c         1 094      0.817500
     13 O1          6.1370    7.9470   -1.7560 o         1 094     -0.639500
     14 N2          4.5980    6.3040   -1.2990 n         1 094     -0.553900
     15 C10         4.2140    4.9210   -1.3600 c3        1 094      0.047700
     16 C11         5.3600    3.9650   -1.1090 ca        1 094      0.372600
     17 N3          5.0590    2.6850   -0.8220 nb        1 094     -0.647000
     18 C12         8.2950    6.2470   -1.6450 ca        1 094      0.055600
     19 C13         9.0200    6.7240   -0.5270 ca        1 094      0.038900
     20 CL1         8.3180    6.7350    1.0180 cl        1 094     -0.063900
     21 C14        10.3270    7.1970   -0.6720 ca        1 094     -0.127500
     22 C15        10.9320    7.2020   -1.9260 ca        1 094     -0.103000
     23 C16        10.2410    6.7370   -3.0410 ca        1 094     -0.127500
     24 C17         8.9330    6.2640   -2.9080 ca        1 094      0.038900
     25 CL2         8.1260    5.7090   -4.2950 cl        1 094     -0.063900
     26 C18         8.5090    1.2130   -0.4800 ce        1 094     -0.071400
     27 C19         9.3840    1.3560    0.5290 c2        1 094     -0.147200
     28 C20        10.5030    0.4000    0.7790 c3        1 094      0.193000
     29 N4         10.5020   -0.7850   -0.0590 n3        1 094     -0.821200
     30 C21         9.9960   -0.5720   -1.4000 c3        1 094      0.166800
     31 C22         8.6070    0.0680   -1.4290 c3        1 094     -0.042200
     32 C23         3.1190    0.1570   -1.1880 ca        1 094      0.217900
     33 F2          3.5240    0.5750   -2.4070 f         1 094     -0.118900
     34 C24         1.7510   -0.1200   -1.0040 ca        1 094     -0.226000
     35 H2          1.8510   -1.1040    2.2830 ha        1 094      0.157000
     36 H3          4.2630   -0.5630    1.9460 ha        1 094      0.156000
     37 H7          8.7960    3.8150   -1.0420 ha        1 094      0.155000
     38 HN2         3.8870    6.9760   -1.4880 hn        1 094      0.336500
     39 H101        3.7750    4.6750   -2.3740 h1        1 094      0.064200
     40 H102        3.4030    4.7630   -0.5880 h1        1 094      0.064200
     41 H14        10.8750    7.5710    0.2070 ha        1 094      0.155000
     42 H15        11.9600    7.5800   -2.0370 ha        1 094      0.146000
     43 H16        10.7210    6.7470   -4.0320 ha        1 094      0.155000
     44 H19         9.3230    2.1930    1.2410 ha        1 094      0.134000
     45 H201       11.4690    0.9850    0.6900 h1        1 094      0.042200
     46 H202       10.4320    0.0360    1.8470 h1        1 094      0.042200
     47 HN4        11.4250   -1.1750   -0.0990 hn        1 094      0.364800
     48 H211        9.9380   -1.5820   -1.8980 h1        1 094      0.030700
     49 H212       10.6910    0.0710   -2.0180 h1        1 094      0.030700
     50 H221        7.8290   -0.6990   -1.1550 hc        1 094      0.067200
     51 H222        8.3940    0.4090   -2.4760 hc        1 094      0.067200
     52 H24         1.0450    0.0160   -1.8350 ha        1 094      0.167000
@<TRIPOS>BOND
     1    1    2 1   
     2    2    3 ar  
     3    2   34 ar  
     4    3    4 ar  
     5    3   35 1   
     6    4    5 ar  
     7    4   36 1   
     8    5    6 1   
     9    5   32 ar  
    10    6    7 1   
    11    7    8 ar  
    12    7   17 ar  
    13    8    9 ar  
    14    8   26 1   
    15    9   10 ar  
    16    9   37 1   
    17   10   11 1   
    18   10   16 ar  
    19   11   12 1   
    20   11   18 1   
    21   12   13 2   
    22   12   14 1   
    23   14   15 1   
    24   14   38 1   
    25   15   16 1   
    26   15   39 1   
    27   15   40 1   
    28   16   17 ar  
    29   18   19 ar  
    30   18   24 ar  
    31   19   20 1   
    32   19   21 ar  
    33   21   22 ar  
    34   21   41 1   
    35   22   23 ar  
    36   22   42 1   
    37   23   24 ar  
    38   23   43 1   
    39   24   25 1   
    40   26   27 2   
    41   26   31 1   
    42   27   28 1   
    43   27   44 1   
    44   28   29 1   
    45   28   45 1   
    46   28   46 1   
    47   29   30 1   
    48   29   47 1   
    49   30   31 1   
    50   30   48 1   
    51   30   49 1   
    52   31   50 1   
    53   31   51 1   
    54   32   33 1   
    55   32   34 ar  
    56   34   52 1   
@<TRIPOS>SUBSTRUCTURE
     1 094         1 TEMP              0 ****  ****    0 ROOT
