@<TRIPOS>MOLECULE
094
   52    56     1     0     0
SMALL
bcc


@<TRIPOS>ATOM
      1 F1         -2.4150   -0.3470   -7.3960 f         1 094     -0.131900
      2 C1         -1.6010   -0.2610   -6.3200 ca        1 094      0.177900
      3 C2         -0.6790   -1.2940   -6.0530 ca        1 094     -0.196000
      4 C3          0.1400   -1.1980   -4.9380 ca        1 094     -0.036000
      5 C4          0.0990   -0.0910   -4.0790 ca        1 094     -0.105100
      6 S1          1.2720   -0.0640   -2.8480 ss        1 094     -0.151200
      7 C5          0.4560   -0.0340   -1.3450 ca        1 094      0.459600
      8 C6          1.2630   -0.0730   -0.1770 ca        1 094     -0.116100
      9 C7          0.6320   -0.0750    1.0670 ca        1 094     -0.117000
     10 C8         -0.7760   -0.0230    1.1410 ca        1 094     -0.022700
     11 N1         -1.4650    0.0040    2.3650 n         1 094     -0.290200
     12 C9         -2.8810   -0.1320    2.4070 c         1 094      0.817500
     13 O1         -3.4860   -0.1820    3.5000 o         1 094     -0.639500
     14 N2         -3.5820   -0.2490    1.2050 n         1 094     -0.553900
     15 C10        -3.0110    0.1040   -0.0650 c3        1 094      0.047700
     16 C11        -1.5000    0.0200   -0.0910 ca        1 094      0.372600
     17 N3         -0.8920    0.0090   -1.2920 nb        1 094     -0.647000
     18 C12        -0.7440   -0.0050    3.5890 ca        1 094      0.055600
     19 C13        -0.3660   -1.2180    4.2140 ca        1 094      0.038900
     20 CL1        -0.7440   -2.7110    3.5030 cl        1 094     -0.063900
     21 C14         0.3230   -1.2100    5.4290 ca        1 094     -0.127500
     22 C15         0.6480   -0.0020    6.0400 ca        1 094     -0.103000
     23 C16         0.2900    1.2040    5.4450 ca        1 094     -0.127500
     24 C17        -0.4020    1.2090    4.2300 ca        1 094      0.038900
     25 CL2        -0.8230    2.7020    3.5420 cl        1 094     -0.063900
     26 C18         2.7240   -0.1250   -0.2450 ce        1 094     -0.071400
     27 C19         3.4160   -1.1670    0.2450 c2        1 094     -0.147200
     28 C20         4.9060   -1.2490    0.2020 c3        1 094      0.193000
     29 N4          5.5610   -0.1870   -0.5390 n3        1 094     -0.821200
     30 C21         4.8930    1.0960   -0.4690 c3        1 094      0.166800
     31 C22         3.4200    1.0340   -0.8740 c3        1 094     -0.042200
     32 C23        -0.8250    0.9390   -4.3610 ca        1 094      0.217900
     33 F2         -0.9110    2.0350   -3.5760 f         1 094     -0.118900
     34 C24        -1.6810    0.8550   -5.4750 ca        1 094     -0.226000
     35 H2         -0.6260   -2.1640   -6.7220 ha        1 094      0.157000
     36 H3          0.8490   -2.0150   -4.7150 ha        1 094      0.156000
     37 H7          1.2410   -0.1150    1.9840 ha        1 094      0.155000
     38 HN2        -4.5720   -0.1810    1.2860 hn        1 094      0.336500
     39 H101       -3.3030    1.1600   -0.3520 h1        1 094      0.064200
     40 H102       -3.4490   -0.5960   -0.8370 h1        1 094      0.064200
     41 H14         0.6030   -2.1630    5.9060 ha        1 094      0.155000
     42 H15         1.1870   -0.0000    7.0000 ha        1 094      0.146000
     43 H16         0.5440    2.1580    5.9330 ha        1 094      0.155000
     44 H19         2.9180   -2.0320    0.7080 ha        1 094      0.134000
     45 H201        5.2690   -1.3080    1.2730 h1        1 094      0.042200
     46 H202        5.1970   -2.2180   -0.3020 h1        1 094      0.042200
     47 HN4         6.5130   -0.0960   -0.2340 hn        1 094      0.364800
     48 H211        4.9540    1.5500    0.5640 h1        1 094      0.030700
     49 H212        5.4320    1.7900   -1.1750 h1        1 094      0.030700
     50 H221        3.3360    0.9450   -1.9940 hc        1 094      0.067200
     51 H222        2.9270    1.9950   -0.5720 hc        1 094      0.067200
     52 H24        -2.4000    1.6610   -5.6800 ha        1 094      0.167000
@<TRIPOS>BOND
     1    1    2 1   
     2    2    3 ar  
     3    2   34 ar  
     4    3    4 ar  
     5    3   35 1   
     6    4    5 ar  
     7    4   36 1   
     8    5    6 1   
     9    5   32 ar  
    10    6    7 1   
    11    7    8 ar  
    12    7   17 ar  
    13    8    9 ar  
    14    8   26 1   
    15    9   10 ar  
    16    9   37 1   
    17   10   11 1   
    18   10   16 ar  
    19   11   12 1   
    20   11   18 1   
    21   12   13 2   
    22   12   14 1   
    23   14   15 1   
    24   14   38 1   
    25   15   16 1   
    26   15   39 1   
    27   15   40 1   
    28   16   17 ar  
    29   18   19 ar  
    30   18   24 ar  
    31   19   20 1   
    32   19   21 ar  
    33   21   22 ar  
    34   21   41 1   
    35   22   23 ar  
    36   22   42 1   
    37   23   24 ar  
    38   23   43 1   
    39   24   25 1   
    40   26   27 2   
    41   26   31 1   
    42   27   28 1   
    43   27   44 1   
    44   28   29 1   
    45   28   45 1   
    46   28   46 1   
    47   29   30 1   
    48   29   47 1   
    49   30   31 1   
    50   30   48 1   
    51   30   49 1   
    52   31   50 1   
    53   31   51 1   
    54   32   33 1   
    55   32   34 ar  
    56   34   52 1   
@<TRIPOS>SUBSTRUCTURE
     1 094         1 TEMP              0 ****  ****    0 ROOT
