@<TRIPOS>MOLECULE
095
   43    46     1     0     0
SMALL
bcc


@<TRIPOS>ATOM
      1 C5         -4.6630    2.4100    0.7670 ca        1 095     -0.162000
      2 C8         -5.4450    2.0910   -0.3380 ca        1 095     -0.090000
      3 C3         -3.4930    1.6910    1.0520 ca        1 095     -0.071000
      4 C6         -5.0960    1.0460   -1.2040 ca        1 095     -0.167000
      5 C1         -3.1260    0.6580    0.2140 ca        1 095     -0.142300
      6 C17        -3.9350    0.3300   -0.9240 ca        1 095      0.062600
      7 C14        -2.1900   -1.1720   -0.9830 c         1 095      0.702500
      8 C9          1.5540   -0.6320    0.9600 c         1 095      0.617100
      9 C19         4.6190   -0.0060    0.8420 c3        1 095     -0.127400
     10 C23         3.8950    0.6950   -1.4540 c3        1 095     -0.127400
     11 C4         -0.5940    0.4310    0.1760 c3        1 095     -0.067400
     12 C13        -1.8990   -1.1280    1.5520 c3        1 095      0.168800
     13 C20         6.0110   -0.2070    0.2720 c3        1 095      0.128900
     14 C22         5.3260    0.4500   -1.9020 c3        1 095      0.128900
     15 C7          0.2180   -0.0540    1.3980 c3        1 095      0.124500
     16 C18         3.5770   -0.1900   -0.2540 c3        1 095      0.151100
     17 C2         -1.9470   -0.2760    0.2620 c3        1 095     -0.084700
     18 N16        -3.3690   -0.7500   -1.6210 n         1 095     -0.479100
     19 N10        -0.5950   -0.9810    2.1860 n3        1 095     -0.796200
     20 O15        -1.4880   -2.1070   -1.3810 o         1 095     -0.595500
     21 O21         6.2580    0.6410   -0.8450 os        1 095     -0.414600
     22 O11         2.2870    0.2500    0.2210 os        1 095     -0.435900
     23 H1         -4.9630    3.2350    1.4300 ha        1 095      0.138000
     24 H2         -6.3600    2.6680   -0.5440 ha        1 095      0.136000
     25 H3         -2.8810    1.9470    1.9300 ha        1 095      0.144000
     26 H4         -5.7250    0.8050   -2.0710 ha        1 095      0.142000
     27 H5          4.4320   -0.7450    1.6630 hc        1 095      0.065950
     28 H6          4.5280    1.0260    1.2700 hc        1 095      0.065950
     29 H7          3.7610    1.7690   -1.1670 hc        1 095      0.065950
     30 H8          3.1900    0.4690   -2.2930 hc        1 095      0.065950
     31 H9         -0.7240    1.5400    0.2230 hc        1 095      0.077200
     32 H10        -0.0650    0.1810   -0.7770 hc        1 095      0.077200
     33 H11        -2.6670   -0.7460    2.2810 h1        1 095      0.064700
     34 H12        -2.1350   -2.2020    1.3180 h1        1 095      0.064700
     35 H13         6.7970    0.0900    1.0160 h1        1 095      0.051700
     36 H14         6.1610   -1.2780   -0.0310 h1        1 095      0.051700
     37 H15         5.4350   -0.5880   -2.3150 h1        1 095      0.051700
     38 H16         5.6350    1.2020   -2.6760 h1        1 095      0.051700
     39 H17         0.4600    0.8240    2.0690 h1        1 095      0.096700
     40 H18         3.5110   -1.2710   -0.5550 h1        1 095      0.074700
     41 H19        -3.7550   -1.1560   -2.4330 hn        1 095      0.343500
     42 H20        -0.1340   -1.8690    2.2870 hn        1 095      0.387800
     43 O12         2.0190   -1.7440    1.2150 o         1 095     -0.538000
@<TRIPOS>BOND
     1    1    2 ar  
     2    1    3 ar  
     3    1   23 1   
     4    2    4 ar  
     5    2   24 1   
     6    3    5 ar  
     7    3   25 1   
     8    4    6 ar  
     9    4   26 1   
    10    5    6 ar  
    11    5   17 1   
    12    6   18 1   
    13    7   17 1   
    14    7   18 1   
    15    7   20 2   
    16    8   15 1   
    17    8   22 1   
    18    8   43 2   
    19    9   13 1   
    20    9   16 1   
    21    9   27 1   
    22    9   28 1   
    23   10   14 1   
    24   10   16 1   
    25   10   29 1   
    26   10   30 1   
    27   11   15 1   
    28   11   17 1   
    29   11   31 1   
    30   11   32 1   
    31   12   17 1   
    32   12   19 1   
    33   12   33 1   
    34   12   34 1   
    35   13   21 1   
    36   13   35 1   
    37   13   36 1   
    38   14   21 1   
    39   14   37 1   
    40   14   38 1   
    41   15   19 1   
    42   15   39 1   
    43   16   22 1   
    44   16   40 1   
    45   18   41 1   
    46   19   42 1   
@<TRIPOS>SUBSTRUCTURE
     1 095         1 TEMP              0 ****  ****    0 ROOT
