@<TRIPOS>MOLECULE
095
   43    44     1     0     0
SMALL
bcc


@<TRIPOS>ATOM
      1 C5         -1.1500    0.3490   -0.0300 c2        1 095     -0.220000
      2 C8          2.8660    1.4150    0.9720 c1        1 095      0.245000
      3 C3         -1.4370    0.4290    1.2730 c2        1 095     -0.098000
      4 C6          1.5690    1.4650    1.2050 c2        1 095     -0.454000
      5 C1         -0.4840    0.5070    2.3410 c2        1 095     -0.160000
      6 C17         0.8270    0.9320    2.3230 c2        1 095      0.122000
      7 C14         0.4680    0.3360    4.5240 c2        1 095      0.306000
      8 C9         -3.6910    0.0960    6.0480 c2        1 095      0.287000
      9 C19        -6.1570    3.8990    6.5380 c3        1 095     -0.263000
     10 C23        -4.4870    5.5100    5.5650 c3        1 095     -0.263000
     11 C4         -2.0050    0.8810    4.3560 c3        1 095     -0.166000
     12 C13        -1.2700   -1.4040    3.8420 c3        1 095     -0.067000
     13 C20        -6.3150    3.3370    5.1350 c3        1 095     -0.049000
     14 C22        -4.6810    4.8050    4.2310 c3        1 095     -0.049000
     15 C7         -3.1090   -0.1570    4.6700 c3        1 095     -0.072000
     16 C18        -5.3340    5.0860    6.6680 c1        1 095     -0.036000
     17 C2         -0.8490    0.0830    3.7540 c3        1 095     -0.047000
     18 N16         1.4190    0.8080    3.6020 ns        1 095     -0.343000
     19 N10        -2.5800   -1.5060    4.4740 n7        1 095     -0.264000
     20 O15         0.6920    0.1620    5.7240 o         1 095     -0.309000
     21 O21        -5.1020    3.4520    4.3910 os        1 095     -0.303000
     22 O11        -4.2560    1.3130    6.2980 oh        1 095     -0.305000
     23 H1         -2.4920    0.4140    1.6090 ha        1 095      0.131000
     24 H2         -1.9410    0.2940   -0.7900 ha        1 095      0.116500
     25 H3         -0.1270    0.3080   -0.4230 ha        1 095      0.116500
     26 H4          0.9330    1.9720    0.4400 ha        1 095      0.216000
     27 H5         -5.6610    3.1240    7.2040 hc        1 095      0.151250
     28 H6         -7.1690    4.0990    6.9880 hc        1 095      0.151250
     29 H7         -3.4280    5.3660    5.9320 hc        1 095      0.151250
     30 H8         -4.6220    6.6200    5.4280 hc        1 095      0.151250
     31 H9         -2.3870    1.6460    3.6360 hc        1 095      0.113000
     32 H10        -1.6790    1.4050    5.2910 hc        1 095      0.113000
     33 H11        -1.3670   -1.8250    2.8030 h1        1 095      0.108000
     34 H12        -0.4940   -1.9980    4.3960 h1        1 095      0.108000
     35 H13        -7.1410    3.8580    4.5820 h1        1 095      0.091500
     36 H14        -6.5120    2.2310    5.1550 h1        1 095      0.091500
     37 H15        -5.4360    5.3490    3.6020 h1        1 095      0.091500
     38 H16        -3.7170    4.7210    3.6630 h1        1 095      0.091500
     39 H17        -3.9580   -0.0350    3.9300 h1        1 095      0.129000
     40 H18        -4.1680    1.8870    5.5190 ho        1 095      0.245000
     41 H19         2.3120    1.1560    3.8360 hn        1 095      0.256000
     42 H20        -2.5280   -1.9970    5.3500 hn        1 095      0.183000
     43 O12        -3.7370   -0.6860    6.9950 o         1 095     -0.295000
@<TRIPOS>BOND
     1    1    3 1   
     2    1   24 1   
     3    1   25 1   
     4    2    4 1   
     5    3    5 1   
     6    3   23 1   
     7    4    6 1   
     8    4   26 1   
     9    5    6 1   
    10    5   17 1   
    11    6   18 1   
    12    7   17 1   
    13    7   18 1   
    14    7   20 1   
    15    8   15 1   
    16    8   22 1   
    17    8   43 1   
    18    9   13 1   
    19    9   16 1   
    20    9   27 1   
    21    9   28 1   
    22   10   14 1   
    23   10   16 1   
    24   10   29 1   
    25   10   30 1   
    26   11   15 1   
    27   11   17 1   
    28   11   31 1   
    29   11   32 1   
    30   12   17 1   
    31   12   19 1   
    32   12   33 1   
    33   12   34 1   
    34   13   21 1   
    35   13   35 1   
    36   13   36 1   
    37   14   21 1   
    38   14   37 1   
    39   14   38 1   
    40   15   19 1   
    41   15   39 1   
    42   18   41 1   
    43   19   42 1   
    44   22   40 1   
@<TRIPOS>SUBSTRUCTURE
     1 095         1 TEMP              0 ****  ****    0 ROOT
