@<TRIPOS>MOLECULE
095
   43    42     1     0     0
SMALL
bcc


@<TRIPOS>ATOM
      1 C5          0.4540    0.0180   -0.0870 c2        1 095     -0.217000
      2 C8          4.3840   -0.0680    1.6920 c1        1 095      0.244000
      3 C3          0.0150    0.3720    1.1240 c2        1 095     -0.105000
      4 C6          3.1270    0.3260    1.6410 c2        1 095     -0.453000
      5 C1          0.7080    0.1440    2.3590 c2        1 095     -0.172000
      6 C17         2.0660    0.1140    2.5960 c2        1 095      0.120000
      7 C14         1.1310   -0.2160    4.6780 c2        1 095      0.303000
      8 C9         -3.2820    1.8700    3.7880 c2        1 095      0.312000
      9 C19        -8.5930    4.0400    5.6210 c3        1 095     -0.247000
     10 C23        -5.5890    4.8380    5.0740 c2        1 095     -0.461000
     11 C4         -1.0080    0.9680    4.0590 c3        1 095     -0.153000
     12 C13        -3.2990   -1.6780    4.1670 c1        1 095     -0.150000
     13 C20        -7.8860    3.7170    6.9160 c3        1 095     -0.025000
     14 C22        -5.5950    4.2580    6.4500 c3        1 095      0.054000
     15 C7         -2.4550    0.5960    3.6920 c3        1 095     -0.073000
     16 C18        -4.9300    4.3950    4.0350 c1        1 095      0.114000
     17 C2         -0.0270   -0.1130    3.6600 c3        1 095     -0.083000
     18 N16         2.3400   -0.1450    3.9600 n         1 095     -0.338000
     19 N10        -3.0250   -0.4650    4.5260 n3        1 095     -0.171000
     20 O15         1.0540   -0.3590    5.9010 o         1 095     -0.313000
     21 O21        -6.7810    4.5830    7.1560 os        1 095     -0.276000
     22 O11        -3.3220    2.5810    2.6440 oh        1 095     -0.326000
     23 H1         -0.9600    0.8860    1.2350 ha        1 095      0.131000
     24 H2         -0.1240    0.2330   -0.9960 ha        1 095      0.117500
     25 H3          1.3950   -0.5220   -0.2500 ha        1 095      0.117500
     26 H4          2.8090    0.8910    0.7320 ha        1 095      0.217000
     27 H5         -7.9250    3.8400    4.7490 hc        1 095      0.082333
     28 H6         -9.5100    3.4100    5.5250 hc        1 095      0.082333
     29 H7         -8.8890    5.1160    5.5970 hc        1 095      0.082333
     30 H8         -6.2100    5.7530    4.9730 ha        1 095      0.206000
     31 H9         -0.7530    1.9260    3.5320 hc        1 095      0.119000
     32 H10        -0.9350    1.1530    5.1660 hc        1 095      0.119000
     33 H11        -0.5260   -1.1210    3.6200 hc        1 095      0.144000
     34 H12        -3.0960   -1.9740    3.1170 ha        1 095      0.051000
     35 H13        -7.5540    2.6450    6.9320 h1        1 095      0.088000
     36 H14        -8.5600    3.9120    7.7950 h1        1 095      0.088000
     37 H15        -5.4320    3.1470    6.4130 h1        1 095      0.109000
     38 H16        -4.7800    4.7450    7.0570 h1        1 095      0.109000
     39 H17        -2.4770    0.2510    2.6140 h1        1 095      0.138000
     40 H18        -3.8690    3.4000    2.7790 ho        1 095      0.296000
     41 H19         3.2310   -0.0320    4.3700 hn        1 095      0.253000
     42 H20        -3.2030   -0.1800    5.4690 hn        1 095      0.254000
     43 O12        -3.8880    2.3050    4.7770 o         1 095     -0.386000
@<TRIPOS>BOND
     1    1    3 1   
     2    1   24 1   
     3    1   25 1   
     4    2    4 1   
     5    3    5 1   
     6    3   23 1   
     7    4    6 1   
     8    4   26 1   
     9    5    6 1   
    10    5   17 1   
    11    6   18 1   
    12    7   17 1   
    13    7   18 1   
    14    7   20 1   
    15    8   15 1   
    16    8   22 1   
    17    8   43 1   
    18    9   13 1   
    19    9   27 1   
    20    9   28 1   
    21    9   29 1   
    22   10   14 1   
    23   10   16 1   
    24   10   30 1   
    25   11   15 1   
    26   11   17 1   
    27   11   31 1   
    28   11   32 1   
    29   12   19 1   
    30   12   34 1   
    31   13   21 1   
    32   13   35 1   
    33   13   36 1   
    34   14   21 1   
    35   14   37 1   
    36   14   38 1   
    37   15   19 1   
    38   15   39 1   
    39   17   33 1   
    40   18   41 1   
    41   19   42 1   
    42   22   40 1   
@<TRIPOS>SUBSTRUCTURE
     1 095         1 TEMP              0 ****  ****    0 ROOT
