@<TRIPOS>MOLECULE
095
   43    44     1     0     0
SMALL
bcc


@<TRIPOS>ATOM
      1 C5          0.4860   -0.5750   -0.3440 c2        1 095     -0.218000
      2 C8          3.8370   -1.6780    2.0510 c1        1 095      0.249000
      3 C3         -0.0690   -0.0630    0.7580 c2        1 095     -0.099000
      4 C6          2.8280   -0.8680    1.7950 c2        1 095     -0.455000
      5 C1          0.3840   -0.2690    2.1030 c2        1 095     -0.163000
      6 C17         1.6280   -0.6410    2.5660 c2        1 095      0.126000
      7 C14         0.3650   -0.4290    4.4850 c2        1 095      0.305000
      8 C9         -3.3000    1.9490    4.5020 c2        1 095      0.286000
      9 C19        -5.3890    4.1530    6.9580 c3        1 095     -0.258500
     10 C23        -6.8420    6.0740    6.2300 c3        1 095     -0.258500
     11 C4         -1.1240    1.3210    3.4110 c3        1 095     -0.167000
     12 C13        -1.7720   -1.0400    3.2330 c3        1 095     -0.067000
     13 C20        -6.5760    3.2400    6.6910 c3        1 095     -0.048500
     14 C22        -7.9580    5.0580    6.0470 c3        1 095     -0.048500
     15 C7         -2.6630    1.1550    3.3780 c3        1 095     -0.069000
     16 C18        -5.6020    5.5780    6.8080 c1        1 095     -0.052000
     17 C2         -0.5520   -0.0900    3.2860 c3        1 095     -0.046000
     18 N16         1.6290   -0.7720    3.9740 n         1 095     -0.342000
     19 N10        -3.0010   -0.2670    3.3750 n3        1 095     -0.264000
     20 O15         0.0790   -0.4180    5.6850 o         1 095     -0.309000
     21 O21        -7.4550    3.7720    5.7040 os        1 095     -0.274000
     22 O11        -3.0710    3.2950    4.5630 oh        1 095     -0.289000
     23 H1         -0.9780    0.5640    0.6790 ha        1 095      0.129000
     24 H2          0.0780   -0.3670   -1.3420 ha        1 095      0.117500
     25 H3          1.3570   -1.2430   -0.3290 ha        1 095      0.117500
     26 H4          2.8790   -0.2750    0.8500 ha        1 095      0.216000
     27 H5         -4.5480    3.8940    6.2390 hc        1 095      0.146250
     28 H6         -4.9790    3.9550    7.9870 hc        1 095      0.146250
     29 H7         -6.5480    6.5110    5.2300 hc        1 095      0.146250
     30 H8         -7.2080    6.9330    6.8570 hc        1 095      0.146250
     31 H9         -0.7860    1.9650    2.5620 hc        1 095      0.111500
     32 H10        -0.7980    1.7980    4.3700 hc        1 095      0.111500
     33 H11        -1.8090   -1.5420    2.2260 h1        1 095      0.109500
     34 H12        -1.6870   -1.8340    4.0240 h1        1 095      0.109500
     35 H13        -7.1530    3.0540    7.6350 h1        1 095      0.088750
     36 H14        -6.2390    2.2620    6.2520 h1        1 095      0.088750
     37 H15        -8.5750    4.9790    6.9820 h1        1 095      0.088750
     38 H16        -8.6230    5.3270    5.1840 h1        1 095      0.088750
     39 H17        -3.0680    1.5810    2.4100 h1        1 095      0.129000
     40 H18        -2.4770    3.5640    3.8480 ho        1 095      0.229000
     41 H19         2.4390   -0.9210    4.5170 hn        1 095      0.257000
     42 H20        -3.4980   -0.5170    4.2130 hn        1 095      0.184000
     43 O12        -4.0390    1.5330    5.3930 o         1 095     -0.297000
@<TRIPOS>BOND
     1    1    3 1   
     2    1   24 1   
     3    1   25 1   
     4    2    4 1   
     5    3    5 1   
     6    3   23 1   
     7    4    6 1   
     8    4   26 1   
     9    5    6 1   
    10    5   17 1   
    11    6   18 1   
    12    7   17 1   
    13    7   18 1   
    14    7   20 1   
    15    8   15 1   
    16    8   22 1   
    17    8   43 1   
    18    9   13 1   
    19    9   16 1   
    20    9   27 1   
    21    9   28 1   
    22   10   14 1   
    23   10   16 1   
    24   10   29 1   
    25   10   30 1   
    26   11   15 1   
    27   11   17 1   
    28   11   31 1   
    29   11   32 1   
    30   12   17 1   
    31   12   19 1   
    32   12   33 1   
    33   12   34 1   
    34   13   21 1   
    35   13   35 1   
    36   13   36 1   
    37   14   21 1   
    38   14   37 1   
    39   14   38 1   
    40   15   19 1   
    41   15   39 1   
    42   18   41 1   
    43   19   42 1   
    44   22   40 1   
@<TRIPOS>SUBSTRUCTURE
     1 095         1 TEMP              0 ****  ****    0 ROOT
