@<TRIPOS>MOLECULE
095
   43    41     1     0     0
SMALL
bcc


@<TRIPOS>ATOM
      1 C5          2.6140   -1.0310   -3.6850 c1        1 095     -0.122500
      2 C8          3.9700   -0.9650   -3.6860 c1        1 095     -0.122500
      3 C3          1.9350   -1.1250   -2.4990 c1        1 095     -0.122500
      4 C6          4.6560   -0.9940   -2.5030 c1        1 095     -0.122500
      5 C1          2.6680   -1.1560   -1.2420 c1        1 095     -0.136000
      6 C17         3.9330   -1.0950   -1.2440 c1        1 095      0.070000
      7 C14         3.1400   -1.3890    0.3790 c1        1 095      0.309000
      8 C9         -0.6020    0.2700    0.7920 c1        1 095      0.287000
      9 C19        -3.8240    0.5130    1.2290 c3        1 095     -0.206000
     10 C23        -3.2820    2.7680    1.0020 c3        1 095     -0.206000
     11 C4          1.6770   -0.1920    0.1510 c3        1 095     -0.146000
     12 C13         1.5920   -2.1870   -0.1160 c3        1 095     -0.068000
     13 C20        -4.8440    0.8740    2.2990 c3        1 095     -0.017500
     14 C22        -4.3080    3.1130    2.0750 c3        1 095     -0.017500
     15 C7          0.4230   -0.3420   -0.2860 c2        1 095     -0.023000
     16 C18        -2.5500    1.4150    1.2820 c3        1 095      0.041000
     17 C2          2.3420   -1.2340   -0.2140 c2        1 095     -0.042000
     18 N16         4.2170   -1.2100   -0.3390 n3        1 095     -0.333000
     19 N10         0.3100   -1.6910   -0.3080 n3        1 095     -0.275000
     20 O15         3.1070   -1.6730    1.5620 o         1 095     -0.320000
     21 O12        -0.3930    0.1260    1.9710 o         1 095     -0.348000
     22 O21        -4.6460    2.0660    2.7520 os        1 095     -0.281000
     23 O11        -1.7120    1.1150    0.3460 os        1 095     -0.278000
     24 H1          2.1190   -1.0100   -4.5360 ha        1 095      0.140000
     25 H2          4.4570   -0.8980   -4.5330 ha        1 095      0.140000
     26 H3          0.9560   -1.1720   -2.4980 ha        1 095      0.140000
     27 H4          5.6470   -0.9470   -2.5040 ha        1 095      0.140000
     28 H5         -4.2460    0.6100    0.3410 hc        1 095      0.108750
     29 H6         -3.5530   -0.4310    1.3520 hc        1 095      0.108750
     30 H7         -3.7360    2.7070    0.1370 hc        1 095      0.108750
     31 H8         -2.6160    3.4840    0.9600 hc        1 095      0.108750
     32 H9          1.6820   -0.1190    1.1460 hc        1 095      0.116000
     33 H10         2.0740    0.6120   -0.2440 hc        1 095      0.116000
     34 H11         1.8020   -2.8550   -0.8040 h1        1 095      0.104000
     35 H12         1.6680   -2.5830    0.7720 h1        1 095      0.104000
     36 H13        -5.7430    0.8220    1.9130 h1        1 095      0.088000
     37 H14        -4.7730    0.2290    3.0440 h1        1 095      0.088000
     38 H15        -5.1080    3.4920    1.6460 h1        1 095      0.088000
     39 H16        -3.9230    3.7840    2.6860 h1        1 095      0.088000
     40 H17         0.1660    0.1450   -1.0890 h4        1 095      0.136000
     41 H18        -2.1360    1.4040    2.1660 h1        1 095      0.116000
     42 H19         5.0700   -1.2870   -0.0520 hn        1 095      0.257000
     43 H20        -0.2280   -1.9630    0.3790 hn        1 095      0.184000
@<TRIPOS>BOND
     1    1    3 1   
     2    1   24 1   
     3    2    4 1   
     4    2   25 1   
     5    3   26 1   
     6    4   27 1   
     7    5    6 1   
     8    5   17 1   
     9    6   18 1   
    10    7   18 1   
    11    7   20 1   
    12    8   21 1   
    13    8   23 1   
    14    9   13 1   
    15    9   16 1   
    16    9   28 1   
    17    9   29 1   
    18   10   14 1   
    19   10   16 1   
    20   10   30 1   
    21   10   31 1   
    22   11   15 1   
    23   11   17 1   
    24   11   32 1   
    25   11   33 1   
    26   12   17 1   
    27   12   19 1   
    28   12   34 1   
    29   12   35 1   
    30   13   22 1   
    31   13   36 1   
    32   13   37 1   
    33   14   22 1   
    34   14   38 1   
    35   14   39 1   
    36   15   19 1   
    37   15   40 1   
    38   16   23 1   
    39   16   41 1   
    40   18   42 1   
    41   19   43 1   
@<TRIPOS>SUBSTRUCTURE
     1 095         1 TEMP              0 ****  ****    0 ROOT
