@<TRIPOS>MOLECULE
096
   61    60     1     0     0
SMALL
bcc


@<TRIPOS>ATOM
      1 S           0.0460   -0.7880    0.7450 ss        1 096      0.055000
      2 C1          2.8220   -5.8950    1.2020 c1        1 096     -0.047000
      3 N1          2.5400    0.0550    1.1400 n         1 096     -0.234000
      4 C2          3.0830   -3.8540   -1.5440 ca        1 096      0.024000
      5 N2          5.4730   -1.5070    2.8490 n7        1 096     -0.142000
      6 O2          2.1550    2.1860    2.0010 o         1 096     -0.337000
      7 C3          2.6810   -3.1420   -0.4170 ca        1 096     -0.158000
      8 N3          3.4330    3.5250   -2.7950 n2        1 096     -0.333000
      9 C4          2.2610   -1.8030   -0.5170 ca        1 096     -0.072000
     10 N4          7.7560    3.1430   -2.1060 n7        1 096     -0.277000
     11 C5          1.8420   -1.1680    0.7750 c3        1 096     -0.009000
     12 C6          0.2350    0.8600    1.3520 c3        1 096     -0.309000
     13 C7          1.7130    1.1130    1.5580 c2        1 096      0.299000
     14 C8          3.8520   -0.0670    1.6730 c2        1 096     -0.101000
     15 C9          4.7480    1.1330    1.4760 c3        1 096     -0.258000
     16 C10         6.1210    0.9350    1.1210 c1        1 096     -0.006000
     17 C11         6.6030   -1.2640    2.2970 c1        1 096      0.149000
     18 C12         4.2010   -1.1930    2.3320 c1        1 096     -0.322000
     19 C13         2.2550   -1.1770   -1.7700 ca        1 096     -0.036000
     20 C14         1.7970    0.2240   -2.0010 c3        1 096     -0.120000
     21 C15         2.9660    1.1590   -2.2480 c3        1 096     -0.172000
     22 C16         2.4370    2.5580   -2.5830 c3        1 096      0.012000
     23 C17         8.6530    3.8640   -4.3950 cx        1 096     -0.237500
     24 C18         7.7300    4.0510   -3.2100 cx        1 096     -0.076000
     25 C19         8.8220    5.0650   -3.5110 cx        1 096     -0.237500
     26 C20         7.1110    3.6370   -0.9160 c3        1 096     -0.137000
     27 C21         4.2730    4.3360   -2.9700 c1        1 096      0.099000
     28 C22         2.6680   -1.8910   -2.9080 ca        1 096     -0.145000
     29 C23         3.0800   -3.2180   -2.8080 ca        1 096      0.068000
     30 H1          3.4630   -5.7970    2.0890 ha        1 096      0.038500
     31 H1A         3.3520   -5.5130   -0.6000 ho        1 096      0.275000
     32 H1B         1.7910   -6.1780    1.4500 ha        1 096      0.038500
     33 H3          2.7070   -3.6400    0.5660 ha        1 096      0.129000
     34 HO3         3.7130   -4.7680   -3.7230 ho        1 096      0.238000
     35 H5          1.9740   -1.9210    1.6100 h2        1 096      0.140000
     36 H6         -0.2980    0.9870    2.3260 h1        1 096      0.145000
     37 H6A        -0.1780    1.6010    0.6270 h1        1 096      0.145000
     38 H9          4.3150    1.8330    0.6910 hc        1 096      0.188000
     39 H10         4.7290    1.7630    2.4220 hc        1 096      0.188000
     40 H11         6.5740   -0.1070    1.1130 ha        1 096      0.091000
     41 H12         5.3780   -2.1020    3.6600 hn        1 096      0.289000
     42 H14         6.1630    0.9790   -1.1290 ha        1 096      0.013500
     43 H14A        5.7930    0.4110   -1.0510 ha        1 096      0.013500
     44 H15         1.1880    0.5890   -1.1320 hc        1 096      0.092000
     45 H15A        1.1180    0.2360   -2.8980 hc        1 096      0.092000
     46 H16         3.5910    0.7690   -3.0940 hc        1 096      0.099500
     47 H16A        3.6220    1.1970   -1.3390 hc        1 096      0.099500
     48 H17         1.7990    2.4930   -3.5140 h1        1 096      0.095000
     49 H17A        1.7760    2.9100   -1.7360 h1        1 096      0.095000
     50 H18         9.4220    3.0730   -4.3720 hc        1 096      0.107000
     51 H18A        8.2290    3.9930   -5.4060 hc        1 096      0.107000
     52 H19         6.6790    4.3660   -3.4220 h1        1 096      0.152000
     53 H19A        8.5260    6.0590   -3.8880 hc        1 096      0.107000
     54 H19B        9.7100    5.1200   -2.8590 hc        1 096      0.107000
     55 H20         7.6350    4.5150   -0.4480 h1        1 096      0.076667
     56 H20A        8.6940    2.8480   -1.9050 hn        1 096      0.150000
     57 H21         6.0640    3.9550   -1.1710 h1        1 096      0.076667
     58 H21A        7.0660    2.8010   -0.1650 h1        1 096      0.076667
     59 H22         2.6670   -1.4050   -3.8960 ha        1 096      0.152000
     60 O1          3.5040   -5.1590   -1.5120 oh        1 096     -0.309000
     61 O3          3.4720   -3.8580   -3.9590 oh        1 096     -0.249000
@<TRIPOS>BOND
     1    1   11 1   
     2    1   12 1   
     3    2   30 1   
     4    2   32 1   
     5    3   11 1   
     6    3   13 1   
     7    3   14 1   
     8    4    7 1   
     9    4   29 1   
    10    4   60 1   
    11    5   17 1   
    12    5   18 1   
    13    5   41 1   
    14    6   13 1   
    15    7    9 1   
    16    7   33 1   
    17    8   22 1   
    18    8   27 1   
    19    9   11 1   
    20    9   19 1   
    21   10   24 1   
    22   10   26 1   
    23   10   56 1   
    24   11   35 1   
    25   12   13 1   
    26   12   36 1   
    27   12   37 1   
    28   14   15 1   
    29   14   18 1   
    30   15   16 1   
    31   15   38 1   
    32   15   39 1   
    33   16   40 1   
    34   19   20 1   
    35   19   28 1   
    36   20   21 1   
    37   20   44 1   
    38   20   45 1   
    39   21   22 1   
    40   21   46 1   
    41   21   47 1   
    42   22   48 1   
    43   22   49 1   
    44   23   24 1   
    45   23   25 1   
    46   23   50 1   
    47   23   51 1   
    48   24   25 1   
    49   24   52 1   
    50   25   53 1   
    51   25   54 1   
    52   26   55 1   
    53   26   57 1   
    54   26   58 1   
    55   28   29 1   
    56   28   59 1   
    57   29   61 1   
    58   31   60 1   
    59   34   61 1   
    60   42   43 1   
@<TRIPOS>SUBSTRUCTURE
     1 096         1 TEMP              0 ****  ****    0 ROOT
