@<TRIPOS>MOLECULE
096
   61    62     1     0     0
SMALL
bcc


@<TRIPOS>ATOM
      1 S           0.0920   -0.3050    2.5250 sh        1 096      0.113000
      2 C1          2.1300   -5.5030    0.6830 c3        1 096     -0.074000
      3 N1          2.0260   -0.3950    0.2280 n4        1 096      0.004000
      4 C2          1.7160   -4.4020   -1.3890 ca        1 096      0.082000
      5 N2          5.2200   -1.7140    1.5450 n3        1 096     -0.189000
      6 O2          1.8680    1.9370   -0.1600 o         1 096     -0.409000
      7 C3          1.7610   -3.1630   -0.8370 ca        1 096     -0.241000
      8 N3          6.4610    2.6510   -0.1080 n2        1 096     -0.216000
      9 C4          1.5210   -1.9770   -1.6360 ca        1 096      0.035000
     10 N4          8.4310    4.9370   -2.3250 n3        1 096     -0.283000
     11 C5          1.6940   -0.7220   -1.1430 c2        1 096     -0.177000
     12 C6          0.6080    1.0370    1.6860 c2        1 096     -0.651000
     13 C7          1.4530    1.0480    0.6060 c2        1 096      0.314000
     14 C8          3.4640   -0.4730    0.4680 c2        1 096     -0.208000
     15 C9          4.3440    0.4730    0.0340 c2        1 096     -0.012000
     16 C10         5.7930    0.3170    0.3200 c3        1 096     -0.188000
     17 C11         6.1830   -0.8340    1.1870 c1        1 096     -0.025000
     18 C12         3.8970   -1.6390    1.2440 c1        1 096     -0.040000
     19 C13         1.0910   -2.1630   -3.0300 ca        1 096     -0.046000
     20 C14         0.6220   -1.1550   -3.7940 c2        1 096     -0.167000
     21 C15         5.7730    1.9390    2.2350 c3        1 096     -0.253000
     22 C16         6.0230    3.8300    0.0980 c2        1 096     -0.095000
     23 C17         6.3190    4.7010   -3.7600 cx        1 096     -0.235000
     24 C18         7.7220    5.2220   -3.5320 cx        1 096     -0.075000
     25 C19         7.4390    4.2050   -4.6260 cx        1 096     -0.235000
     26 C20         9.8620    5.0500   -2.4360 c3        1 096     -0.119000
     27 C21         6.4290    1.6110    0.8980 c3        1 096     -0.009000
     28 C22         1.1460   -3.5060   -3.5830 ca        1 096     -0.158000
     29 C23         1.4310   -4.5840   -2.8100 ca        1 096      0.069000
     30 H1          3.0560   -4.9230    0.9160 h1        1 096      0.094333
     31 H1A         1.2390   -5.0350    1.1680 h1        1 096      0.094333
     32 H1B         2.2390   -6.5730    0.9930 h1        1 096      0.094333
     33 H3          2.0160   -3.0370    0.2290 ha        1 096      0.163000
     34 HO3         1.6170   -6.4870   -2.6950 ho        1 096      0.239000
     35 H5          1.5620   -1.0660    0.8760 hn        1 096      0.265000
     36 H6          0.9130   -0.2760    3.5660 hs        1 096     -0.028000
     37 H6A         0.1880    2.0160    1.9500 h4        1 096      0.166000
     38 H9          7.5190    1.3580    1.0960 h1        1 096      0.136000
     39 H10         4.0250    1.3680   -0.5350 ha        1 096      0.196000
     40 H11         6.3090    0.0980   -0.6750 hc        1 096      0.190000
     41 H12         5.5060   -2.4990    2.1000 hn        1 096      0.271000
     42 H14         5.8660    1.0590    2.9180 hc        1 096      0.090667
     43 H14A        1.5810    0.1890   -1.7640 hx        1 096      0.190000
     44 H15         0.5120   -0.1230   -3.4390 ha        1 096      0.127500
     45 H15A        0.3070   -1.3240   -4.8330 ha        1 096      0.127500
     46 H16         4.6900    2.1820    2.1070 hc        1 096      0.090667
     47 H16A        6.2800    2.8090    2.7180 hc        1 096      0.090667
     48 H17         5.5510    4.2190    1.0210 h4        1 096      0.128000
     49 H17A        6.1230    4.5610   -0.7300 h4        1 096      0.128000
     50 H18         5.5710    5.3920   -4.1870 hc        1 096      0.111250
     51 H18A        5.8680    4.0100   -3.0260 hc        1 096      0.111250
     52 H19         7.9380    6.2640   -3.8640 h1        1 096      0.129000
     53 H19A        7.7830    3.1630   -4.5020 hc        1 096      0.111250
     54 H19B        7.4940    4.5330   -5.6780 hc        1 096      0.111250
     55 H20         8.1690    4.0390   -1.9590 hn        1 096      0.164000
     56 H20A       10.3190    4.3290   -3.1680 h1        1 096      0.069667
     57 H21        10.3090    4.8610   -1.4240 h1        1 096      0.069667
     58 H21A       10.1270    6.0910   -2.7590 h1        1 096      0.069667
     59 H22         0.9280   -3.6320   -4.6540 ha        1 096      0.157000
     60 O1          1.9410   -5.5890   -0.7290 os        1 096     -0.227000
     61 O3          1.4550   -5.8290   -3.3890 oh        1 096     -0.245000
@<TRIPOS>BOND
     1    1   12 1   
     2    1   36 1   
     3    2   30 1   
     4    2   31 1   
     5    2   32 1   
     6    2   60 1   
     7    3   11 1   
     8    3   13 1   
     9    3   14 1   
    10    3   35 1   
    11    4    7 1   
    12    4   29 1   
    13    4   60 1   
    14    5   17 1   
    15    5   18 1   
    16    5   41 1   
    17    6   13 1   
    18    7    9 1   
    19    7   33 1   
    20    8   22 1   
    21    8   27 1   
    22    9   11 1   
    23    9   19 1   
    24   10   24 1   
    25   10   26 1   
    26   10   55 1   
    27   11   43 1   
    28   12   13 1   
    29   12   37 1   
    30   14   15 1   
    31   14   18 1   
    32   15   16 1   
    33   15   39 1   
    34   16   17 1   
    35   16   27 1   
    36   16   40 1   
    37   19   20 1   
    38   19   28 1   
    39   20   44 1   
    40   20   45 1   
    41   21   27 1   
    42   21   42 1   
    43   21   46 1   
    44   21   47 1   
    45   22   48 1   
    46   22   49 1   
    47   23   24 1   
    48   23   25 1   
    49   23   50 1   
    50   23   51 1   
    51   24   25 1   
    52   24   52 1   
    53   25   53 1   
    54   25   54 1   
    55   26   56 1   
    56   26   57 1   
    57   26   58 1   
    58   27   38 1   
    59   28   29 1   
    60   28   59 1   
    61   29   61 1   
    62   34   61 1   
@<TRIPOS>SUBSTRUCTURE
     1 096         1 TEMP              0 ****  ****    0 ROOT
