@<TRIPOS>MOLECULE
096
   61    60     1     0     0
SMALL
bcc


@<TRIPOS>ATOM
      1 S          -1.3100    1.1840    2.2350 ss        1 096      0.074000
      2 C1          0.1570   -4.5490    2.5320 c3        1 096     -0.068000
      3 N1          0.4660    1.1650    3.9340 n         1 096     -0.285000
      4 O1          1.3100   -3.7220    2.3790 os        1 096     -0.207000
      5 C2          1.0460   -2.4720    1.7660 c2        1 096      0.055000
      6 N2          2.5690   -0.9580    6.0860 n1        1 096     -0.119000
      7 O2         -0.4160    2.4920    5.7230 o         1 096     -0.315000
      8 C3          0.7360   -1.2480    2.4070 c1        1 096     -0.095000
      9 N3         -0.7090    0.8900   -3.7010 n3        1 096     -0.256000
     10 O3          1.8510   -3.6430   -0.2530 oh        1 096     -0.255000
     11 C4          0.7820   -0.0610    1.6930 c1        1 096     -0.104000
     12 N4         -2.9970    0.4970   -5.3610 n3        1 096     -0.258000
     13 C5          0.1700    1.1960    2.3740 c3        1 096     -0.008000
     14 C6         -1.8750    1.9470    3.6460 c3        1 096     -0.309000
     15 C7         -0.4960    2.0370    4.5740 c2        1 096      0.319000
     16 C8          1.6210    0.6220    4.5430 c2        1 096      0.026000
     17 C9          2.7730    1.3180    4.5270 c2        1 096     -0.125000
     18 C10         3.8310    0.9000    5.2770 c1        1 096     -0.161000
     19 C11         3.7190   -0.2640    6.0700 c1        1 096     -0.088000
     20 C12         1.5130   -0.5430    5.3390 c1        1 096     -0.074000
     21 C13         1.1380   -0.0730    0.3200 c1        1 096     -0.040000
     22 C14         1.1040    1.2290   -0.4940 c3        1 096     -0.130000
     23 C15         1.1210    0.8850   -2.0340 c3        1 096     -0.158000
     24 C16         0.0780    1.7430   -2.7580 c3        1 096     -0.067000
     25 C17        -1.9830    0.5980   -3.1290 c3        1 096     -0.069500
     26 C18        -2.8920   -0.1520   -4.0860 c3        1 096     -0.069000
     27 C19        -3.7470   -0.3360   -6.2580 c3        1 096     -0.119000
     28 C20        -1.7200    0.7880   -5.9360 c3        1 096     -0.069000
     29 C21        -0.8100    1.5390   -4.9730 c3        1 096     -0.069500
     30 C22         1.4440   -1.2800   -0.3120 c1        1 096     -0.183000
     31 C23         1.3980   -2.4820    0.4100 c2        1 096      0.034000
     32 H1          0.3980   -5.4940    2.3340 h1        1 096      0.088000
     33 H1A        -0.4930   -4.2750    1.9560 h1        1 096      0.088000
     34 H1B        -0.1830   -4.4800    3.4800 h1        1 096      0.088000
     35 H3          0.5620   -1.2310    3.4000 ha        1 096      0.161000
     36 HO3         1.2340   -3.8970   -0.8810 ho        1 096      0.221000
     37 H5          0.5520    2.0390    1.9610 h2        1 096      0.126000
     38 H6         -2.3070    2.8120    3.3620 h1        1 096      0.151500
     39 H6A        -2.5610    1.5190    4.1130 h1        1 096      0.151500
     40 H9          2.8530    2.1390    3.9650 ha        1 096      0.139000
     41 H10         4.6710    1.4070    5.2650 ha        1 096      0.144000
     42 H11         4.4730   -0.5630    6.6050 ha        1 096      0.162000
     43 H12         0.6960   -1.0390    5.3520 ha        1 096      0.191000
     44 H14         0.2700    1.7370   -0.2750 hc        1 096      0.094500
     45 H14A        1.8840    1.7760   -0.2720 hc        1 096      0.094500
     46 H15         2.0120    1.0700   -2.4030 hc        1 096      0.091500
     47 H15A        0.9110   -0.0460   -2.1550 hc        1 096      0.091500
     48 H16        -0.5270    2.1440   -2.0980 h1        1 096      0.072500
     49 H16A        0.5230    2.4410   -3.2520 h1        1 096      0.072500
     50 H17        -2.4290    1.4650   -2.8670 h1        1 096      0.076250
     51 H17A       -1.8580    0.0770   -2.3580 h1        1 096      0.076250
     52 H18        -2.5290   -1.0600   -4.2220 h1        1 096      0.076000
     53 H18A       -3.7900   -0.2240   -3.6850 h1        1 096      0.076000
     54 H19        -3.9400    0.1510   -7.0610 h1        1 096      0.071667
     55 H19A       -4.5780   -0.6020   -5.8330 h1        1 096      0.071667
     56 H19B       -3.2160   -1.1470   -6.4830 h1        1 096      0.071667
     57 H20        -1.8570    1.3670   -6.7900 h1        1 096      0.076000
     58 H20A       -1.2740   -0.0800   -6.1970 h1        1 096      0.076000
     59 H21         0.0970    1.6050   -5.3730 h1        1 096      0.076250
     60 H21A       -1.1610    2.4330   -4.8410 h1        1 096      0.076250
     61 H22         1.6970   -1.2880   -1.2840 ha        1 096      0.141000
@<TRIPOS>BOND
     1    1   13 1   
     2    1   14 1   
     3    2    4 1   
     4    2   32 1   
     5    2   33 1   
     6    2   34 1   
     7    3   13 1   
     8    3   15 1   
     9    3   16 1   
    10    4    5 1   
    11    5    8 1   
    12    5   31 1   
    13    6   19 1   
    14    7   15 1   
    15    8   35 1   
    16    9   24 1   
    17    9   25 1   
    18    9   29 1   
    19   10   31 1   
    20   10   36 1   
    21   11   13 1   
    22   11   21 1   
    23   12   26 1   
    24   12   27 1   
    25   12   28 1   
    26   13   37 1   
    27   14   15 1   
    28   14   38 1   
    29   14   39 1   
    30   16   17 1   
    31   16   20 1   
    32   17   18 1   
    33   17   40 1   
    34   18   41 1   
    35   19   42 1   
    36   20   43 1   
    37   21   22 1   
    38   22   23 1   
    39   22   44 1   
    40   22   45 1   
    41   23   24 1   
    42   23   46 1   
    43   23   47 1   
    44   24   48 1   
    45   24   49 1   
    46   25   26 1   
    47   25   50 1   
    48   25   51 1   
    49   26   52 1   
    50   26   53 1   
    51   27   54 1   
    52   27   55 1   
    53   27   56 1   
    54   28   29 1   
    55   28   57 1   
    56   28   58 1   
    57   29   59 1   
    58   29   60 1   
    59   30   31 1   
    60   30   61 1   
@<TRIPOS>SUBSTRUCTURE
     1 096         1 TEMP              0 ****  ****    0 ROOT
