@<TRIPOS>MOLECULE
096
   61    64     1     0     0
SMALL
bcc


@<TRIPOS>ATOM
      1 S          -1.5500   -1.1790    2.7990 ss        1 096     -0.287200
      2 C1         -5.1020    1.7830   -1.1630 c3        1 096      0.119700
      3 N1         -1.9500   -1.8730    0.2700 n         1 096     -0.386000
      4 C2         -3.0230    2.2820   -0.1090 ca        1 096      0.043100
      5 N2         -2.7810   -2.5230   -3.2920 nb        1 096     -0.649000
      6 O2         -3.4070   -3.6730    0.5240 o         1 096     -0.592500
      7 C3         -2.7500    0.9410    0.1510 ca        1 096     -0.132000
      8 N3          4.1740    0.1980    0.6190 n3        1 096     -0.730600
      9 C4         -1.5340    0.5690    0.7390 ca        1 096     -0.102300
     10 N4          6.8930    0.2090   -0.4450 n3        1 096     -0.732600
     11 C5         -1.2220   -0.8690    1.0200 c3        1 096      0.258100
     12 C6         -2.6160   -2.5550    2.5170 c3        1 096     -0.099300
     13 C7         -2.7160   -2.7760    1.0240 c         1 096      0.710500
     14 C8         -1.8040   -1.9560   -1.1300 ca        1 096     -0.048700
     15 C9         -0.6090   -1.5670   -1.7760 ca        1 096     -0.120000
     16 C10        -0.5260   -1.6600   -3.1630 ca        1 096     -0.226300
     17 C11        -1.6330   -2.1390   -3.8820 ca        1 096      0.377200
     18 C12        -2.8650   -2.4360   -1.9570 ca        1 096      0.386200
     19 C13        -0.5950    1.5560    1.0900 ca        1 096     -0.053300
     20 C14         0.6960    1.2300    1.7650 c3        1 096     -0.047100
     21 C15         1.8090    0.9950    0.7600 c3        1 096     -0.078400
     22 C16         3.1060    0.6600    1.4960 c3        1 096      0.168800
     23 C17         5.2860   -0.3540    1.3820 c3        1 096      0.166800
     24 C18         6.4560   -0.8160    0.4920 c3        1 096      0.167800
     25 C19         7.9790   -0.2390   -1.2860 c3        1 096      0.157100
     26 C20         5.7840    0.7580   -1.2110 c3        1 096      0.167800
     27 C21         4.6090    1.2160   -0.3270 c3        1 096      0.166800
     28 C22        -0.8700    2.9030    0.8290 ca        1 096     -0.140000
     29 C23        -2.0750    3.2760    0.2280 ca        1 096      0.126100
     30 H1         -5.5070    1.1760   -0.3170 h1        1 096      0.049033
     31 H1A        -5.9120    2.3950   -1.6330 h1        1 096      0.049033
     32 H1B        -4.6100    1.1260   -1.9210 h1        1 096      0.049033
     33 H3         -3.4970    0.1770   -0.1120 ha        1 096      0.148000
     34 HO3        -3.1470    4.7200   -0.4210 ho        1 096      0.440000
     35 H5         -0.1160   -1.0440    0.8740 h2        1 096      0.093700
     36 H6         -2.2110   -3.4780    2.9990 h1        1 096      0.111700
     37 H6A        -3.6350   -2.3610    2.9320 h1        1 096      0.111700
     38 H9          0.2530   -1.1870   -1.2060 ha        1 096      0.145000
     39 H10         0.3940   -1.3640   -3.6860 ha        1 096      0.147000
     40 H11        -1.6050   -2.2230   -4.9830 h4        1 096      0.025100
     41 H12        -3.8170   -2.7890   -1.5150 h4        1 096      0.050100
     42 H14         0.9850    2.0810    2.4400 hc        1 096      0.057200
     43 H14A        0.5720    0.3280    2.4250 hc        1 096      0.057200
     44 H15         1.5310    0.1590    0.0660 hc        1 096      0.049700
     45 H15A        1.9440    1.9170    0.1370 hc        1 096      0.049700
     46 H16         2.8940   -0.1690    2.2310 h1        1 096      0.033700
     47 H16A        3.4190    1.5680    2.0940 h1        1 096      0.033700
     48 H17         5.6790    0.3840    2.1400 h1        1 096      0.037200
     49 H17A        4.9060   -1.2550    1.9400 h1        1 096      0.037200
     50 H18         6.1540   -1.7660   -0.0380 h1        1 096      0.036700
     51 H18A        7.3240   -1.0580    1.1660 h1        1 096      0.036700
     52 H19         8.3210    0.6210   -1.9200 h1        1 096      0.032033
     53 H19A        8.8290   -0.5680   -0.6330 h1        1 096      0.032033
     54 H19B        7.6980   -1.0920   -1.9630 h1        1 096      0.032033
     55 H20         6.1660    1.6590   -1.7690 h1        1 096      0.036700
     56 H20A        5.3970    0.0190   -1.9720 h1        1 096      0.036700
     57 H21         3.7420    1.4450   -1.0080 h1        1 096      0.037200
     58 H21A        4.9020    2.1730    0.1960 h1        1 096      0.037200
     59 H22        -0.1430    3.6850    1.0960 ha        1 096      0.156000
     60 O1         -4.1910    2.7630   -0.6770 os        1 096     -0.347900
     61 O3         -2.2780    4.6140   -0.0020 oh        1 096     -0.492100
@<TRIPOS>BOND
     1    1   11 1   
     2    1   12 1   
     3    2   30 1   
     4    2   31 1   
     5    2   32 1   
     6    2   60 1   
     7    3   11 1   
     8    3   13 1   
     9    3   14 1   
    10    4    7 ar  
    11    4   29 ar  
    12    4   60 1   
    13    5   17 ar  
    14    5   18 ar  
    15    6   13 2   
    16    7    9 ar  
    17    7   33 1   
    18    8   22 1   
    19    8   23 1   
    20    8   27 1   
    21    9   11 1   
    22    9   19 ar  
    23   10   24 1   
    24   10   25 1   
    25   10   26 1   
    26   11   35 1   
    27   12   13 1   
    28   12   36 1   
    29   12   37 1   
    30   14   15 ar  
    31   14   18 ar  
    32   15   16 ar  
    33   15   38 1   
    34   16   17 ar  
    35   16   39 1   
    36   17   40 1   
    37   18   41 1   
    38   19   20 1   
    39   19   28 ar  
    40   20   21 1   
    41   20   42 1   
    42   20   43 1   
    43   21   22 1   
    44   21   44 1   
    45   21   45 1   
    46   22   46 1   
    47   22   47 1   
    48   23   24 1   
    49   23   48 1   
    50   23   49 1   
    51   24   50 1   
    52   24   51 1   
    53   25   52 1   
    54   25   53 1   
    55   25   54 1   
    56   26   27 1   
    57   26   55 1   
    58   26   56 1   
    59   27   57 1   
    60   27   58 1   
    61   28   29 ar  
    62   28   59 1   
    63   29   61 1   
    64   34   61 1   
@<TRIPOS>SUBSTRUCTURE
     1 096         1 TEMP              0 ****  ****    0 ROOT
