@<TRIPOS>MOLECULE
096
   61    56     1     0     0
SMALL
bcc


@<TRIPOS>ATOM
      1 S           1.3400    2.2660    1.4930 sh        1 096      0.159000
      2 C1          0.9530   -5.5870    0.1670 c1        1 096     -0.048000
      3 N1          1.7650   -0.8540    0.5520 n3        1 096     -0.176000
      4 C2          3.6430   -4.3690   -1.3080 ca        1 096      0.064000
      5 N2          1.5180   -3.4930    3.3460 n2        1 096     -0.187000
      6 O2          3.1660    4.4970    3.8410 o         1 096     -0.144000
      7 C3          2.9050   -3.3490   -0.7970 ca        1 096     -0.213000
      8 N3          3.8760    3.1900   -1.8410 n3        1 096     -0.137000
      9 C4          3.0890   -1.9840   -1.2370 ca        1 096     -0.080000
     10 N4          7.2980    4.7990   -4.4310 n3        1 096     -0.135000
     11 C5          2.5660   -0.9030   -0.5890 c2        1 096     -0.053000
     12 C6          2.7490    2.5260    2.3570 c2        1 096     -0.595000
     13 C7          2.9510    3.5740    3.1250 c1        1 096      0.332000
     14 C8          1.7360   -1.7910    1.5010 c1        1 096     -0.009000
     15 C9          4.7370   -0.7520    3.4250 c3        1 096     -0.308000
     16 C10         5.1140    0.3140    2.5420 c1        1 096     -0.094000
     17 C11         1.4080   -4.2930    4.2150 c1        1 096      0.141000
     18 C12         1.6420   -2.5990    2.3930 c1        1 096     -0.129000
     19 C13         3.9170   -1.7700   -2.4340 ca        1 096     -0.006000
     20 C14         3.9090   -0.6260   -3.1480 c2        1 096     -0.239000
     21 C15         5.3790    1.6230   -0.6350 c3        1 096     -0.303000
     22 C16         2.8550    2.3340   -1.8060 c1        1 096     -0.164000
     23 C17         3.7950    4.4920   -2.4990 c3        1 096     -0.173000
     24 C18         6.0690    4.8490   -4.8620 c1        1 096     -0.203000
     25 C19         8.4820    5.0480   -5.2320 c3        1 096     -0.139000
     26 C20         7.5790    4.4780   -3.0440 c3        1 096     -0.139000
     27 C21         5.0950    2.9190   -1.2650 c1        1 096      0.015000
     28 C22         4.7730   -2.8660   -2.8620 ca        1 096     -0.180000
     29 C23         4.6510   -4.1080   -2.3310 ca        1 096      0.077000
     30 H1          0.1060   -5.5580   -0.5300 ha        1 096      0.044000
     31 H1A         2.6790   -5.7970   -0.4380 ho        1 096      0.283000
     32 H1B         0.6660   -5.3710    1.2050 ha        1 096      0.044000
     33 H3          2.1380   -3.5590   -0.0350 ha        1 096      0.125000
     34 HO3         5.2110   -5.9350   -2.3280 ho        1 096      0.239000
     35 H5          1.5540    0.0850    0.8900 hn        1 096      0.270000
     36 H6          1.7470    2.6320    0.2790 hs        1 096      0.008000
     37 H6A         3.5550    1.7480    2.3450 h4        1 096      0.247000
     38 H9          3.8740   -1.2900    2.9260 hc        1 096      0.123333
     39 H10         4.3270   -0.3190    4.3780 hc        1 096      0.123333
     40 H11         6.0980    0.2490    2.0530 ha        1 096      0.053000
     41 H12         5.5220   -1.5070    3.6800 hc        1 096      0.123333
     42 H14         5.1130    1.6970    0.4580 hc        1 096      0.120000
     43 H14A        2.7140    0.1260   -1.0040 h4        1 096      0.191000
     44 H15         3.2710    0.2350   -2.9090 ha        1 096      0.119500
     45 H15A        4.5500   -0.4990   -4.0300 ha        1 096      0.119500
     46 H16         4.8280    0.7450   -1.0660 hc        1 096      0.120000
     47 H16A        6.4800    1.4360   -0.7100 hc        1 096      0.120000
     48 H17         4.0660    5.2980   -1.7690 h1        1 096      0.114333
     49 H17A        1.9200    2.6590   -2.3100 ha        1 096      0.051000
     50 H18         4.5200    4.5330   -3.3690 h1        1 096      0.114333
     51 H18A        2.7520    4.6620   -2.8710 h1        1 096      0.114333
     52 H19         9.0720    5.8960   -4.7960 h1        1 096      0.096667
     53 H19A        5.9250    5.1010   -5.9330 ha        1 096      0.047000
     54 H19B        8.1890    5.3090   -6.2820 h1        1 096      0.096667
     55 H20         9.1320    4.1330   -5.2530 h1        1 096      0.096667
     56 H20A        8.2720    3.5970   -2.9980 h1        1 096      0.096667
     57 H21         8.0720    5.3560   -2.5500 h1        1 096      0.096667
     58 H21A        6.6230    4.2290   -2.5020 h1        1 096      0.096667
     59 H22         5.5130   -2.6630   -3.6500 ha        1 096      0.147000
     60 O1          3.5330   -5.6800   -0.9390 oh        1 096     -0.319000
     61 O3          5.4770   -5.1140   -2.7720 oh        1 096     -0.255000
@<TRIPOS>BOND
     1    1   12 1   
     2    1   36 1   
     3    2   30 1   
     4    2   32 1   
     5    3   11 1   
     6    3   14 1   
     7    3   35 1   
     8    4    7 1   
     9    4   29 1   
    10    4   60 1   
    11    5   17 1   
    12    5   18 1   
    13    6   13 1   
    14    7    9 1   
    15    7   33 1   
    16    8   22 1   
    17    8   23 1   
    18    8   27 1   
    19    9   11 1   
    20    9   19 1   
    21   10   24 1   
    22   10   25 1   
    23   10   26 1   
    24   11   43 1   
    25   12   13 1   
    26   12   37 1   
    27   14   18 1   
    28   15   16 1   
    29   15   38 1   
    30   15   39 1   
    31   15   41 1   
    32   16   40 1   
    33   19   20 1   
    34   19   28 1   
    35   20   44 1   
    36   20   45 1   
    37   21   27 1   
    38   21   42 1   
    39   21   46 1   
    40   21   47 1   
    41   22   49 1   
    42   23   48 1   
    43   23   50 1   
    44   23   51 1   
    45   24   53 1   
    46   25   52 1   
    47   25   54 1   
    48   25   55 1   
    49   26   56 1   
    50   26   57 1   
    51   26   58 1   
    52   28   29 1   
    53   28   59 1   
    54   29   61 1   
    55   31   60 1   
    56   34   61 1   
@<TRIPOS>SUBSTRUCTURE
     1 096         1 TEMP              0 ****  ****    0 ROOT
