@<TRIPOS>MOLECULE
097
   52    51     1     0     0
SMALL
bcc


@<TRIPOS>ATOM
      1 N1          1.0500   -0.6170   -0.3310 n         1 097     -0.550900
      2 C2         -2.3930    2.7230    1.3350 c3        1 097     -0.095100
      3 O2          3.1730    1.0550   -1.3010 o         1 097     -0.623100
      4 C4         -0.0320   -0.3180    0.4770 c         1 097      0.674100
      5 O3         -5.8040    0.6890   -0.3060 oh        1 097     -0.435100
      6 C5          2.3900   -0.7170    0.1890 c3        1 097      0.043700
      7 C6          3.1670   -1.9550   -0.3480 c3        1 097     -0.051000
      8 C8          3.1160   -2.0350   -1.8650 c3        1 097     -0.095433
      9 C9          4.6170   -1.8500    0.1040 c3        1 097     -0.095433
     10 C10         3.1870    0.5730   -0.1500 c         1 097      0.637100
     11 C11         4.6440    2.3680    0.7050 c3        1 097      0.076300
     12 N3         -4.8070    0.3350    0.5070 n         1 097     -0.345400
     13 O4         -4.1160   -1.2570   -1.0360 o         1 097     -0.570100
     14 C13        -2.4920   -0.6940    0.6530 c3        1 097      0.090100
     15 O5         -2.2880   -2.0710    0.8890 oh        1 097     -0.568800
     16 C14        -1.3740   -0.1160   -0.2270 c3        1 097     -0.162700
     17 C15        -1.5630    1.3450   -0.6120 c3        1 097     -0.075400
     18 C1         -1.2170    2.3920    0.4400 c3        1 097     -0.076700
     19 C3         -0.7300    3.6560   -0.2450 c3        1 097     -0.095100
     20 O1          0.0820   -0.2430    1.7160 o         1 097     -0.602100
     21 C7          2.5540   -3.2140    0.2500 c3        1 097     -0.095433
     22 N2          3.8840    1.1700    0.8740 n         1 097     -0.566900
     23 HN1         0.9730   -0.5030   -1.3160 hn        1 097      0.324500
     24 H21        -2.6790    1.8390    1.9550 hc        1 097      0.037367
     25 H22        -2.1190    3.5540    2.0310 hc        1 097      0.037367
     26 H23        -3.2730    3.0530    0.7320 hc        1 097      0.037367
     27 HO3        -6.3760   -0.1010   -0.3880 ho        1 097      0.437000
     28 H5          2.3100   -0.8370    1.3140 h1        1 097      0.095700
     29 H81         3.3480   -1.0390   -2.3170 hc        1 097      0.043033
     30 H82         3.8680   -2.7770   -2.2290 hc        1 097      0.043033
     31 H83         2.1080   -2.3660   -2.2130 hc        1 097      0.043033
     32 H91         4.6740   -1.6560    1.2020 hc        1 097      0.043033
     33 H92         5.1510   -2.8070   -0.1140 hc        1 097      0.043033
     34 H93         5.1400   -1.0260   -0.4390 hc        1 097      0.043033
     35 H111        4.5810    2.7210   -0.3590 h1        1 097      0.045033
     36 H112        4.2470    3.1740    1.3810 h1        1 097      0.045033
     37 H113        5.7210    2.1810    0.9650 h1        1 097      0.045033
     38 HN3        -4.4070    1.1820    0.8980 hn        1 097      0.309500
     39 HO5        -2.3960   -2.5360    0.0460 ho        1 097      0.417000
     40 H151       -0.9110    1.5260   -1.5130 hc        1 097      0.054200
     41 H152       -2.6240    1.4920   -0.9490 hc        1 097      0.054200
     42 H1         -0.3840    2.0040    1.0930 hc        1 097      0.071700
     43 H31        -0.4890    4.4370    0.5160 hc        1 097      0.037367
     44 H32         0.1910    3.4490   -0.8420 hc        1 097      0.037367
     45 H33        -1.5140    4.0590   -0.9300 hc        1 097      0.037367
     46 H71         1.4820   -3.3140   -0.0430 hc        1 097      0.043033
     47 H72         3.1060   -4.1130   -0.1190 hc        1 097      0.043033
     48 H73         2.6190   -3.1890    1.3640 hc        1 097      0.043033
     49 HN2         3.8560    0.7670    1.7790 hn        1 097      0.315500
     50 H28        -2.4720   -0.2290    1.6800 h1        1 097      0.122700
     51 H29        -1.3920   -0.7150   -1.1860 hc        1 097      0.076700
     52 C12        -3.8360   -0.5280   -0.0690 c         1 097      0.561100
@<TRIPOS>BOND
     1    1    4 1   
     2    1    6 1   
     3    1   23 1   
     4    2   18 1   
     5    2   24 1   
     6    2   25 1   
     7    2   26 1   
     8    3   10 2   
     9    4   16 1   
    10    4   20 2   
    11    5   12 1   
    12    5   27 1   
    13    6    7 1   
    14    6   10 1   
    15    6   28 1   
    16    7    8 1   
    17    7    9 1   
    18    7   21 1   
    19    8   29 1   
    20    8   30 1   
    21    8   31 1   
    22    9   32 1   
    23    9   33 1   
    24    9   34 1   
    25   10   22 1   
    26   11   22 1   
    27   11   35 1   
    28   11   36 1   
    29   11   37 1   
    30   12   38 1   
    31   12   52 1   
    32   13   52 2   
    33   14   15 1   
    34   14   16 1   
    35   14   50 1   
    36   14   52 1   
    37   15   39 1   
    38   16   17 1   
    39   16   51 1   
    40   17   18 1   
    41   17   40 1   
    42   17   41 1   
    43   18   19 1   
    44   18   42 1   
    45   19   43 1   
    46   19   44 1   
    47   19   45 1   
    48   21   46 1   
    49   21   47 1   
    50   21   48 1   
    51   22   49 1   
@<TRIPOS>SUBSTRUCTURE
     1 097         1 TEMP              0 ****  ****    0 ROOT
