@<TRIPOS>MOLECULE
097
   52    51     1     0     0
SMALL
bcc


@<TRIPOS>ATOM
      1 N1          0.7770   -0.1050    0.5410 n         1 097     -0.541900
      2 C2         -3.1180   -2.2780   -1.7000 c3        1 097     -0.093600
      3 O2          2.2460   -2.3770    0.0090 o         1 097     -0.620100
      4 C4          0.0690    0.5800   -0.4780 c         1 097      0.667100
      5 O3         -4.6280    3.0880    2.0270 oh        1 097     -0.433100
      6 C5          2.1960   -0.0760    0.5620 c3        1 097      0.042700
      7 C6          2.6800   -0.1050    1.9960 c3        1 097     -0.051000
      8 C8          2.1550   -1.3470    2.6820 c3        1 097     -0.096433
      9 C9          4.1940   -0.1190    2.0170 c3        1 097     -0.096433
     10 C10         2.7360   -1.2810   -0.1770 c         1 097      0.638100
     11 C11         4.3770   -2.2790   -1.7180 c3        1 097      0.076300
     12 N3         -3.8660    2.9950    0.8920 n         1 097     -0.343400
     13 C12        -2.8310    2.0270    0.8100 c         1 097      0.560100
     14 O4         -2.6050    1.2980    1.7540 o         1 097     -0.573100
     15 C13        -2.0260    1.8870   -0.4620 c3        1 097      0.094100
     16 O5         -0.9860    2.8350   -0.4650 oh        1 097     -0.601800
     17 C14        -1.4400    0.4950   -0.5380 c3        1 097     -0.159700
     18 C15        -1.8580   -0.1580   -1.8380 c3        1 097     -0.078400
     19 C1         -3.2320   -0.7710   -1.6750 c3        1 097     -0.066700
     20 C3         -4.1240   -0.3140   -2.8080 c3        1 097     -0.093600
     21 O1          0.6760    1.2100   -1.3210 o         1 097     -0.634100
     22 C7          2.1780    1.1240    2.7230 c3        1 097     -0.096433
     23 N2          3.8340   -1.1350   -1.0640 n         1 097     -0.566900
     24 HN1         0.3220   -0.5820    1.1700 hn        1 097      0.330500
     25 H21        -3.9940   -2.6760   -1.5090 hc        1 097      0.037867
     26 H22        -2.8140   -2.5690   -2.5850 hc        1 097      0.037867
     27 H23        -2.4730   -2.5680   -1.0210 hc        1 097      0.037867
     28 HO3        -5.1960    3.7680    1.9470 ho        1 097      0.433000
     29 H5          2.5120    0.7410    0.1280 h1        1 097      0.095700
     30 H81         2.3120   -2.1270    2.1100 hc        1 097      0.043589
     31 H82         1.1930   -1.2490    2.8420 hc        1 097      0.043589
     32 H83         2.6180   -1.4700    3.5370 hc        1 097      0.043589
     33 H91         4.5090    0.0360    2.9330 hc        1 097      0.043589
     34 H92         4.5350    0.5870    1.4300 hc        1 097      0.043589
     35 H93         4.5160   -0.9900    1.7030 hc        1 097      0.043589
     36 H111        4.7660   -2.8840   -1.0490 h1        1 097      0.046033
     37 H112        5.0750   -1.9940   -2.3480 h1        1 097      0.046033
     38 H113        3.6660   -2.7450   -2.2070 h1        1 097      0.046033
     39 HN3        -4.0280    3.5510    0.1870 hn        1 097      0.315500
     40 HO5        -1.2770    3.5940   -0.8240 ho        1 097      0.444000
     41 H151       -1.2150   -0.8570   -2.0720 hc        1 097      0.063700
     42 H152       -1.8820    0.5140   -2.5480 hc        1 097      0.063700
     43 H1         -3.6160   -0.4870   -0.8250 hc        1 097      0.047700
     44 H31        -4.3020    0.6450   -2.7180 hc        1 097      0.037867
     45 H32        -4.9710   -0.8080   -2.7760 hc        1 097      0.037867
     46 H33        -3.6790   -0.4850   -3.6640 hc        1 097      0.037867
     47 H71         1.2190    1.0290    2.9000 hc        1 097      0.043589
     48 H72         2.6590    1.2200    3.5720 hc        1 097      0.043589
     49 H73         2.3310    1.9170    2.1690 hc        1 097      0.043589
     50 HN2         4.1780   -0.3070   -1.2320 hn        1 097      0.315500
     51 H28        -2.6070    2.0380   -1.2340 h1        1 097      0.104700
     52 H29        -1.7660   -0.0360    0.2130 hc        1 097      0.098700
@<TRIPOS>BOND
     1    1    4 1   
     2    1    6 1   
     3    1   24 1   
     4    2   19 1   
     5    2   25 1   
     6    2   26 1   
     7    2   27 1   
     8    3   10 2   
     9    4   17 1   
    10    4   21 2   
    11    5   12 1   
    12    5   28 1   
    13    6    7 1   
    14    6   10 1   
    15    6   29 1   
    16    7    8 1   
    17    7    9 1   
    18    7   22 1   
    19    8   30 1   
    20    8   31 1   
    21    8   32 1   
    22    9   33 1   
    23    9   34 1   
    24    9   35 1   
    25   10   23 1   
    26   11   23 1   
    27   11   36 1   
    28   11   37 1   
    29   11   38 1   
    30   12   13 1   
    31   12   39 1   
    32   13   14 2   
    33   13   15 1   
    34   15   16 1   
    35   15   17 1   
    36   15   51 1   
    37   16   40 1   
    38   17   18 1   
    39   17   52 1   
    40   18   19 1   
    41   18   41 1   
    42   18   42 1   
    43   19   20 1   
    44   19   43 1   
    45   20   44 1   
    46   20   45 1   
    47   20   46 1   
    48   22   47 1   
    49   22   48 1   
    50   22   49 1   
    51   23   50 1   
@<TRIPOS>SUBSTRUCTURE
     1 097         1 TEMP              0 ****  ****    0 ROOT
