@<TRIPOS>MOLECULE
097
   55    53     1     0     0
SMALL
bcc


@<TRIPOS>ATOM
      1 N1         -0.6180   -0.2620    0.3790 n4        1 097     -0.658800
      2 C2          2.0180    2.5940   -4.2980 c2        1 097     -0.138000
      3 O2          0.9910   -1.4650   -1.5790 o         1 097     -0.391100
      4 C4         -1.5510    0.7010   -0.2400 c2        1 097      0.113100
      5 O3         -6.5290    2.3820   -0.8780 oh        1 097     -0.369300
      6 C5          0.8480    0.1050    0.2760 c3        1 097      0.069500
      7 C6          1.6350   -0.4480    1.5180 c3        1 097     -0.057000
      8 C8          1.4280   -1.9460    1.6640 c3        1 097     -0.132100
      9 C9          3.1140   -0.1470    1.3340 c3        1 097     -0.132100
     10 C10         1.4250   -0.4580   -1.0340 c         1 097      0.521100
     11 C11         3.5240   -0.6440   -2.3390 c3        1 097      0.077100
     12 N3         -5.8110    3.3380   -0.2420 n4        1 097     -0.451300
     13 O4         -4.4800    2.8300    1.6070 o         1 097     -0.339100
     14 C13        -3.7600    1.7960   -0.5470 c3        1 097      0.132300
     15 O5         -3.1290    2.6540   -1.4610 oh        1 097     -0.561800
     16 C14        -2.8310    0.8620    0.1880 c2        1 097     -0.076400
     17 C15        -3.4130    0.0730    1.2950 c3        1 097     -0.125900
     18 C1          0.9570    2.0880   -3.6620 c2        1 097     -0.297200
     19 C3          0.1600    0.9510   -4.1700 c3        1 097     -0.080900
     20 O1         -0.9370    1.4360   -1.2240 oh        1 097     -0.518100
     21 C7          1.1480    0.2790    2.7660 c3        1 097     -0.132100
     22 N2          2.5490    0.2750   -1.6830 n4        1 097     -0.665800
     23 HN1        -0.8520   -0.3350    1.3870 hn        1 097      0.491300
     24 H21         0.5410    2.5940   -2.7720 ha        1 097      0.105000
     25 H22         2.5460    3.4940   -3.9460 ha        1 097      0.152000
     26 H23         2.4100    2.1670   -5.2360 ha        1 097      0.152000
     27 HO3        -7.4040    2.7560   -1.1570 ho        1 097      0.511000
     28 H5         -0.7620   -1.1940   -0.0520 hn        1 097      0.491300
     29 H81         1.5730   -2.4760    0.6910 hc        1 097      0.076478
     30 H82         0.4170   -2.1900    2.0710 hc        1 097      0.076478
     31 H83         2.1780   -2.3560    2.3920 hc        1 097      0.076478
     32 H91         3.5720   -0.8050    0.5580 hc        1 097      0.076478
     33 H92         3.2880    0.9320    1.1030 hc        1 097      0.076478
     34 H93         3.6540   -0.3660    2.2960 hc        1 097      0.076478
     35 H111        4.0220   -1.2910   -1.5670 hx        1 097      0.132367
     36 H112        2.9870   -1.2970   -3.0840 hx        1 097      0.132367
     37 H113        4.2990   -0.0210   -2.8690 hx        1 097      0.132367
     38 HN3        -6.3750    3.8190    0.4920 hn        1 097      0.492800
     39 HO5        -2.4480    3.1780   -1.0050 ho        1 097      0.450000
     40 H151       -4.5320    0.1650    1.3190 hc        1 097      0.102700
     41 H152       -3.0310    0.4410    2.2860 hc        1 097      0.102700
     42 H1         -3.1840   -1.0200    1.1980 hc        1 097      0.102700
     43 H31         0.0080    0.1840   -3.3660 hc        1 097      0.048700
     44 H32         0.6470    0.4530   -5.0460 hc        1 097      0.048700
     45 H33        -0.8460    1.3100   -4.5080 hc        1 097      0.048700
     46 H71         0.1240   -0.0420    3.0760 hc        1 097      0.076478
     47 H72         1.1680    1.3860    2.6250 hc        1 097      0.076478
     48 H73         1.8310    0.0320    3.6240 hc        1 097      0.076478
     49 HN2         3.0420    0.8480   -0.9840 hn        1 097      0.488800
     50 H28        -1.4270    1.3130   -2.0690 ho        1 097      0.497000
     51 H29        -4.4630    1.1590   -1.1880 h1        1 097      0.180700
     52 H12         0.9130    1.2370    0.2810 hx        1 097      0.149700
     53 H321       -5.4570    4.0340   -0.9290 hn        1 097      0.492800
     54 H221        2.1480    0.9130   -2.4180 hn        1 097      0.488800
     55 C12        -4.6110    2.6290    0.4180 c         1 097      0.530100
@<TRIPOS>BOND
     1    1    4 1   
     2    1    6 1   
     3    1   23 1   
     4    1   28 1   
     5    2   18 2   
     6    2   25 1   
     7    2   26 1   
     8    3   10 2   
     9    4   16 2   
    10    4   20 1   
    11    5   12 1   
    12    5   27 1   
    13    6    7 1   
    14    6   10 1   
    15    6   52 1   
    16    7    8 1   
    17    7    9 1   
    18    7   21 1   
    19    8   29 1   
    20    8   30 1   
    21    8   31 1   
    22    9   32 1   
    23    9   33 1   
    24    9   34 1   
    25   10   22 1   
    26   11   22 1   
    27   11   35 1   
    28   11   36 1   
    29   11   37 1   
    30   12   38 1   
    31   12   53 1   
    32   12   55 1   
    33   13   55 2   
    34   14   15 1   
    35   14   16 1   
    36   14   51 1   
    37   14   55 1   
    38   15   39 1   
    39   16   17 1   
    40   17   40 1   
    41   17   41 1   
    42   17   42 1   
    43   18   19 1   
    44   18   24 1   
    45   19   43 1   
    46   19   44 1   
    47   19   45 1   
    48   20   50 1   
    49   21   46 1   
    50   21   47 1   
    51   21   48 1   
    52   22   49 1   
    53   22   54 1   
@<TRIPOS>SUBSTRUCTURE
     1 097         1 TEMP              0 ****  ****    0 ROOT
