@<TRIPOS>MOLECULE
098
   61    57     1     0     0
SMALL
bcc


@<TRIPOS>ATOM
      1 C5         -0.1200    2.4050    0.3340 c3        1 098     -0.010000
      2 C7         -0.8140    3.0180    2.4980 c3        1 098     -0.038000
      3 C8         -2.1540    3.0950    3.2530 cx        1 098     -0.206000
      4 C10        -2.0580    3.4090    4.7370 cx        1 098     -0.206000
      5 C13         3.0500    0.3760   -0.3890 c1        1 098     -0.050000
      6 C15         4.0070   -0.3680   -2.4760 c1        1 098     -0.089000
      7 C17         4.8730   -1.2070   -0.3870 c1        1 098      0.081000
      8 C20         0.0760   -0.0700    0.3210 c1        1 098      0.303000
      9 C24         0.3650   -3.3410   -0.2630 c3        1 098      0.008000
     10 C26        -0.0260   -4.4170   -1.2270 c3        1 098     -0.156000
     11 C28        -2.3810   -4.9230   -2.3860 c1        1 098     -0.119000
     12 O1         -2.0900    4.9300   -1.5270 oh        1 098     -0.241000
     13 N2         -0.9480    4.2180   -1.2560 n         1 098     -0.195000
     14 C3         -1.0410    2.8750   -0.7710 c2        1 098      0.188000
     15 O4         -1.9030    2.1310   -1.2020 o         1 098     -0.319000
     16 N6         -0.8980    2.0010    1.4640 n3        1 098     -0.300000
     17 C9         -2.5450    4.4720    3.7650 cx        1 098     -0.206000
     18 C11         0.7050    1.2320   -0.1600 c2        1 098     -0.110000
     19 C12         2.1220    1.3440    0.3840 c2        1 098     -0.117000
     20 C14         3.0810    0.4080   -1.7820 c2        1 098     -0.169000
     21 C16         4.9030   -1.1750   -1.7780 c1        1 098     -0.213000
     22 O18         5.9540   -1.8120    0.3000 o         1 098     -0.251000
     23 C19         3.9470   -0.4320    0.3080 c2        1 098     -0.142000
     24 O21        -0.0060   -0.3000    1.5160 o         1 098     -0.368000
     25 N22        -0.2820   -1.1050   -0.6460 n3        1 098     -0.339000
     26 C23        -0.7290   -2.3840   -0.1910 c3        1 098      0.066000
     27 O25         1.5590   -2.6810   -0.7280 oh        1 098     -0.328000
     28 C27        -1.4580   -4.1060   -1.7290 c1        1 098     -0.074000
     29 C29        -3.7310   -4.5530   -2.4370 c1        1 098     -0.119000
     30 C30        -4.1600   -3.3560   -1.8250 c1        1 098     -0.119000
     31 C31        -3.2340   -2.5340   -1.1640 c1        1 098     -0.119000
     32 C32        -1.8890   -2.9010   -1.1120 c1        1 098     -0.099000
     33 H5          0.4800    3.1400    0.5950 h1        1 098      0.118000
     34 H7         -0.6200    3.8890    2.0870 h1        1 098      0.089000
     35 H7A        -0.0960    2.7860    3.1290 h1        1 098      0.089000
     36 H8         -2.8980    2.5110    2.9880 hc        1 098      0.141000
     37 H10        -2.7500    3.0020    5.3050 hc        1 098      0.109750
     38 H10A       -1.1500    3.5370    5.0880 hc        1 098      0.109750
     39 H15         4.0290   -0.3460   -3.4580 ha        1 098      0.133000
     40 H24         0.5240   -3.7320    0.6250 h1        1 098      0.087000
     41 H26         0.5940   -4.4070   -1.9910 hc        1 098      0.100000
     42 H26A       -0.0270   -5.2830   -0.7610 hc        1 098      0.100000
     43 H28        -2.0830   -5.7560   -2.8120 ha        1 098      0.138750
     44 HO1        -1.8930    5.7960   -1.5900 ho        1 098      0.234000
     45 HN2        -0.1260    4.5900   -1.4200 hn        1 098      0.208000
     46 HN6        -1.7740    1.8930    1.2090 hn        1 098      0.204000
     47 H9         -3.5100    4.6600    3.7880 hc        1 098      0.109750
     48 H9A        -1.9100    5.1950    3.5710 hc        1 098      0.109750
     49 H11         0.7300    1.2400   -1.1410 ha        1 098      0.100000
     50 H12         2.4440    2.2680    0.2720 ha        1 098      0.118500
     51 H12A        2.1260    1.1090    1.3380 ha        1 098      0.118500
     52 H14         2.4510    0.9760   -2.2730 ha        1 098      0.127000
     53 H16         5.5560   -1.7220   -2.2680 ha        1 098      0.133000
     54 HO18        5.9340   -2.6940    0.1670 ho        1 098      0.217000
     55 H19         3.9260   -0.4540    1.2900 ha        1 098      0.161000
     56 HN22       -0.2640   -0.9180   -1.5460 hn        1 098      0.236000
     57 H23        -1.0470   -2.3140    0.7360 h1        1 098      0.142000
     58 HO25        2.1990   -3.2880   -0.8710 ho        1 098      0.206000
     59 H29        -4.3800   -5.1280   -2.8990 ha        1 098      0.138750
     60 H30        -5.1070   -3.0980   -1.8610 ha        1 098      0.138750
     61 H31        -3.5330   -1.7030   -0.7400 ha        1 098      0.138750
@<TRIPOS>BOND
     1    1   14 1   
     2    1   16 1   
     3    1   18 1   
     4    1   33 1   
     5    2    3 1   
     6    2   16 1   
     7    2   34 1   
     8    2   35 1   
     9    3    4 1   
    10    3   17 1   
    11    3   36 1   
    12    4   17 1   
    13    4   37 1   
    14    4   38 1   
    15    5   20 1   
    16    5   23 1   
    17    6   20 1   
    18    6   39 1   
    19    7   21 1   
    20    7   23 1   
    21    8   24 1   
    22    8   25 1   
    23    9   10 1   
    24    9   26 1   
    25    9   27 1   
    26    9   40 1   
    27   10   28 1   
    28   10   41 1   
    29   10   42 1   
    30   11   29 1   
    31   11   43 1   
    32   12   13 1   
    33   12   44 1   
    34   13   14 1   
    35   13   45 1   
    36   14   15 1   
    37   16   46 1   
    38   17   47 1   
    39   17   48 1   
    40   18   19 1   
    41   18   49 1   
    42   19   50 1   
    43   19   51 1   
    44   20   52 1   
    45   21   53 1   
    46   22   54 1   
    47   23   55 1   
    48   25   26 1   
    49   25   56 1   
    50   26   32 1   
    51   26   57 1   
    52   27   58 1   
    53   28   32 1   
    54   29   59 1   
    55   30   31 1   
    56   30   60 1   
    57   31   61 1   
@<TRIPOS>SUBSTRUCTURE
     1 098         1 TEMP              0 ****  ****    0 ROOT
