@<TRIPOS>MOLECULE
098
   64    59     1     0     0
SMALL
bcc


@<TRIPOS>ATOM
      1 C5        -95.6710   78.8580 -105.6720 c3        1 098     -0.154000
      2 C7        172.3520  267.3980  660.1800 c3        1 098     -0.031000
      3 C8        172.6240  266.5190  662.7100 c1        1 098     -0.543000
      4 C10       172.7470  266.0640  663.9620 c1        1 098      0.750000
      5 C13       -96.1700   79.4440 -101.9600 c1        1 098     -0.242000
      6 C15       248.4790 -616.8060 -254.8810 c2        1 098      0.158000
      7 C17       248.3270 -618.1150 -252.8410 c1        1 098      0.458000
      8 C24       -99.4970   80.0510  -98.3300 c2        1 098      0.017000
      9 C26      -100.5460   80.1840  -97.4920 c2        1 098     -0.248000
     10 C28      -102.1880   80.7630  -99.2020 c1        1 098     -0.157000
     11 O1        -95.5320   79.5460 -108.4850 oh        1 098     -0.217000
     12 C3        -95.1590   80.1470 -106.2350 c2        1 098      0.328000
     13 O4        -94.3580   80.9480 -105.7980 o         1 098     -0.163000
     14 N6        172.9060  268.6450  659.8250 n3        1 098     -0.366000
     15 C9        172.5050  266.9330  661.5510 c1        1 098      0.365000
     16 C11       -96.4530   79.0690 -104.3790 c3        1 098     -0.128000
     17 C12       -95.5340   79.5080 -103.2400 c3        1 098     -0.048000
     18 C14       248.4020 -616.7110 -256.3370 c3        1 098     -0.265000
     19 C16       248.2650 -617.9760 -254.2110 c2        1 098     -0.315000
     20 O18       248.3650 -618.2890 -251.6940 o         1 098      0.087000
     21 C19       -96.6510   79.4010 -100.8640 c1        1 098     -0.135000
     22 N22       -98.5680   80.1650 -103.6740 n         1 098     -0.312000
     23 C23       -99.6450   81.1280 -103.7960 c3        1 098      0.007000
     24 O25       -98.2280   79.7130  -97.9560 oh        1 098     -0.274000
     25 C27      -101.8700   80.5270  -97.9460 c2        1 098      0.011000
     26 C29      -102.4980   80.9830 -100.4010 c1        1 098     -0.070000
     27 C30      -102.8320   81.1970 -101.6560 c2        1 098     -0.098000
     28 C31      -101.9030   81.1520 -102.7620 c2        1 098     -0.065000
     29 C32      -100.5680   81.1140 -102.6250 c2        1 098     -0.223000
     30 H5        -96.3190   78.3190 -106.4160 hc        1 098      0.156000
     31 H7        172.8020  266.5810  659.5170 h1        1 098      0.194000
     32 H7A       172.4620  269.4510  660.2040 hn        1 098      0.219000
     33 H8        171.2280  267.4080  659.9730 h1        1 098      0.194000
     34 H10       -59.0250  116.9620  179.2150 ha        1 098      0.000000
     35 H10A      -58.8790  116.8000  178.5740 ha        1 098      0.000000
     36 H15       248.1490 -617.6810 -256.8350 hc        1 098      0.156000
     37 H24       -99.1940   82.1610 -103.8970 h1        1 098      0.106000
     38 H26A      -99.5380   80.1980  -99.4230 h4        1 098      0.161000
     39 H28      -102.6540   80.5860  -97.1660 ha        1 098      0.156000
     40 HO1       -95.9540   79.7710 -109.3450 ho        1 098      0.269000
     41 HN2       -95.2510   81.4250 -107.9410 hn        1 098      0.277000
     42 HN6       -94.7690   78.2120 -105.4660 hc        1 098      0.156000
     43 H9        118.4390  102.4590  179.2330 ha        1 098      0.000000
     44 H9A       118.4510  101.8060  179.4110 ha        1 098      0.000000
     45 H11       -96.9050   78.0680 -104.1120 hc        1 098      0.153000
     46 H12       -95.1680   80.5570 -103.4330 hc        1 098      0.121000
     47 H12A      -94.6270   78.8360 -103.2280 hc        1 098      0.121000
     48 H14       247.6270 -615.9460 -256.6240 hc        1 098      0.156000
     49 H16       248.0190 -618.9190 -254.7550 ha        1 098      0.242000
     50 HO18      -97.0710   79.3680  -99.8830 ha        1 098      0.256000
     51 H19       249.3870 -616.3430 -256.7430 hc        1 098      0.156000
     52 HN22      248.7230 -615.8690 -254.3380 ha        1 098      0.169000
     53 H23      -100.2010   80.9100 -104.7540 h1        1 098      0.106000
     54 HO25      -98.1900   79.6010  -96.9930 ho        1 098      0.232000
     55 H29      -103.8840   81.4230 -101.9090 ha        1 098      0.156000
     56 H30      -102.3690   81.1640 -103.7640 ha        1 098      0.132000
     57 H31      -100.0990   81.1200 -101.6270 ha        1 098      0.134000
     58 C20       -97.5800   80.0810 -104.5970 c2        1 098      0.314000
     59 N2        -95.7320   80.5650 -107.6220 n4        1 098     -0.015000
     60 O21       -97.5790   80.8020 -105.6350 o         1 098     -0.498000
     61 H26      -100.4300   80.0260  -96.4070 ha        1 098      0.145000
     62 H62       173.8990  268.6960  659.7880 hn        1 098      0.219000
     63 H222      -98.4970   79.6420 -102.8270 hn        1 098      0.253000
     64 H22       -96.7500   80.7550 -107.4820 hn        1 098      0.277000
@<TRIPOS>BOND
     1    1   12 1   
     2    1   16 1   
     3    1   30 1   
     4    1   42 1   
     5    2   14 1   
     6    2   15 1   
     7    2   31 1   
     8    2   33 1   
     9    3    4 1   
    10    3   15 1   
    11    5   17 1   
    12    5   21 1   
    13    6   18 1   
    14    6   19 1   
    15    6   52 1   
    16    7   19 1   
    17    7   20 1   
    18    8    9 1   
    19    8   24 1   
    20    8   38 1   
    21    9   25 1   
    22    9   61 1   
    23   10   25 1   
    24   10   26 1   
    25   11   40 1   
    26   11   59 1   
    27   12   13 1   
    28   12   59 1   
    29   14   32 1   
    30   14   62 1   
    31   16   17 1   
    32   16   45 1   
    33   16   58 1   
    34   17   46 1   
    35   17   47 1   
    36   18   36 1   
    37   18   48 1   
    38   18   51 1   
    39   19   49 1   
    40   21   50 1   
    41   22   23 1   
    42   22   58 1   
    43   22   63 1   
    44   23   29 1   
    45   23   37 1   
    46   23   53 1   
    47   24   54 1   
    48   25   39 1   
    49   26   27 1   
    50   27   28 1   
    51   27   55 1   
    52   28   29 1   
    53   28   56 1   
    54   29   57 1   
    55   34   35 1   
    56   41   59 1   
    57   43   44 1   
    58   58   60 1   
    59   59   64 1   
@<TRIPOS>SUBSTRUCTURE
     1 098         1 TEMP              0 ****  ****    0 ROOT
