@<TRIPOS>MOLECULE
098
   61    64     1     0     0
SMALL
bcc


@<TRIPOS>ATOM
      1 C5          1.9590    0.7780    0.0670 c3        1 098      0.115500
      2 C7          3.5340    2.1830   -1.1450 c3        1 098      0.186800
      3 C8          4.8630    2.0960   -1.8520 cx        1 098     -0.143700
      4 C10         6.0180    2.9030   -1.3230 cx        1 098     -0.129400
      5 C13         0.9070   -2.9330    0.0790 ca        1 098     -0.050300
      6 C15         0.6700   -4.7250   -1.5350 ca        1 098     -0.098000
      7 C17        -0.7510   -4.6600    0.4060 ca        1 098      0.122100
      8 C24        -3.7320   -0.2940   -0.5800 c3        1 098      0.121100
      9 C26        -4.9020    0.6110   -1.0210 c3        1 098     -0.072100
     10 C28        -5.1210    3.1860   -1.0520 ca        1 098     -0.119000
     11 O1          2.5720    0.7530    3.7370 oh        1 098     -0.431100
     12 C3          2.7010    0.6650    1.4190 c         1 098      0.555100
     13 O4          3.8980    0.3300    1.4800 o         1 098     -0.584100
     14 N6          2.8490    0.9000   -1.0750 n3        1 098     -0.803200
     15 C9          6.0100    1.4130   -1.1550 cx        1 098     -0.129400
     16 C11         1.0170   -0.4420   -0.1010 c3        1 098     -0.126700
     17 C12         1.5920   -1.6960    0.5460 c3        1 098     -0.045100
     18 C14         1.3020   -3.5560   -1.1100 ca        1 098     -0.160000
     19 C16        -0.3580   -5.2900   -0.7870 ca        1 098     -0.155000
     20 O18        -1.7770   -5.2540    1.1060 oh        1 098     -0.501100
     21 C19        -0.1250   -3.4860    0.8430 ca        1 098     -0.202000
     22 N22        -1.2950    0.4390   -0.3280 n         1 098     -0.521900
     23 C23        -2.6560    0.6400    0.0970 c3        1 098      0.145000
     24 O25        -3.1610   -0.9610   -1.6920 oh        1 098     -0.599800
     25 C27        -4.4490    2.0060   -0.7670 ca        1 098     -0.078300
     26 C29        -4.5070    4.4040   -0.7360 ca        1 098     -0.122000
     27 C30        -3.2450    4.4320   -0.1460 ca        1 098     -0.133000
     28 C31        -2.5660    3.2420    0.1450 ca        1 098     -0.097000
     29 C32        -3.1740    2.0360   -0.1660 ca        1 098     -0.104300
     30 H5          1.3260    1.7160    0.0900 h1        1 098      0.088700
     31 H7          3.6980    2.6230   -0.1160 h1        1 098      0.042200
     32 H7A         2.8570    2.8850   -1.7100 h1        1 098      0.042200
     33 H8          4.7620    1.9740   -2.9480 hc        1 098      0.086700
     34 H10         6.7170    3.3610   -2.0450 hc        1 098      0.076200
     35 H10A        5.8670    3.5440   -0.4360 hc        1 098      0.076200
     36 H15         0.9880   -5.2080   -2.4710 ha        1 098      0.135000
     37 H24        -4.0780   -1.0520    0.1740 h1        1 098      0.046700
     38 H26A       -5.8230    0.3770   -0.4300 hc        1 098      0.064200
     39 H28        -6.1150    3.1680   -1.5200 ha        1 098      0.135000
     40 HO1         3.4100    1.2520    3.8080 ho        1 098      0.428000
     41 HN2         1.0370    0.8550    2.6060 hn        1 098      0.333500
     42 HN6         3.5150    0.1450   -1.0700 hn        1 098      0.376800
     43 H9          5.8360    0.9870   -0.1480 hc        1 098      0.076200
     44 H9A         6.7100    0.8010   -1.7500 hc        1 098      0.076200
     45 H11         0.8890   -0.6510   -1.2030 hc        1 098      0.098700
     46 H12         1.5050   -1.6130    1.6650 hc        1 098      0.074700
     47 H12A        2.6880   -1.7560    0.2950 hc        1 098      0.074700
     48 H14         2.1150   -3.1230   -1.7100 ha        1 098      0.135000
     49 H16        -0.8630   -6.2110   -1.1070 ha        1 098      0.149000
     50 HO18       -1.9160   -4.7450    1.9180 ho        1 098      0.421000
     51 H19        -0.4430   -2.9930    1.7750 ha        1 098      0.149000
     52 HN22       -1.1580    0.3620   -1.3120 hn        1 098      0.329500
     53 H23        -2.7090    0.4490    1.2130 h1        1 098      0.100700
     54 HO25       -3.8350   -1.5660   -2.0260 ho        1 098      0.412000
     55 H29        -5.0290    5.3460   -0.9580 ha        1 098      0.133000
     56 H30        -2.7750    5.3970    0.0960 ha        1 098      0.134000
     57 H31        -1.5720    3.2690    0.6130 ha        1 098      0.140000
     58 C20        -0.3400   -0.0920    0.5140 c         1 098      0.658100
     59 N2          2.0200    1.1240    2.5790 n         1 098     -0.355400
     60 O21        -0.5490   -0.2160    1.7420 o         1 098     -0.640100
     61 H26        -5.1330    0.4550   -2.1060 hc        1 098      0.064200
@<TRIPOS>BOND
     1    1   12 1   
     2    1   14 1   
     3    1   16 1   
     4    1   30 1   
     5    2    3 1   
     6    2   14 1   
     7    2   31 1   
     8    2   32 1   
     9    3    4 1   
    10    3   15 1   
    11    3   33 1   
    12    4   15 1   
    13    4   34 1   
    14    4   35 1   
    15    5   17 1   
    16    5   18 ar  
    17    5   21 ar  
    18    6   18 ar  
    19    6   19 ar  
    20    6   36 1   
    21    7   19 ar  
    22    7   20 1   
    23    7   21 ar  
    24    8    9 1   
    25    8   23 1   
    26    8   24 1   
    27    8   37 1   
    28    9   25 1   
    29    9   38 1   
    30    9   61 1   
    31   10   25 ar  
    32   10   26 ar  
    33   10   39 1   
    34   11   40 1   
    35   11   59 1   
    36   12   13 2   
    37   12   59 1   
    38   14   42 1   
    39   15   43 1   
    40   15   44 1   
    41   16   17 1   
    42   16   45 1   
    43   16   58 1   
    44   17   46 1   
    45   17   47 1   
    46   18   48 1   
    47   19   49 1   
    48   20   50 1   
    49   21   51 1   
    50   22   23 1   
    51   22   52 1   
    52   22   58 1   
    53   23   29 1   
    54   23   53 1   
    55   24   54 1   
    56   25   29 ar  
    57   26   27 ar  
    58   26   55 1   
    59   27   28 ar  
    60   27   56 1   
    61   28   29 ar  
    62   28   57 1   
    63   41   59 1   
    64   58   60 2   
@<TRIPOS>SUBSTRUCTURE
     1 098         1 TEMP              0 ****  ****    0 ROOT
