@<TRIPOS>MOLECULE
099
   49    44     1     0     0
SMALL
bcc


@<TRIPOS>ATOM
      1 C4         -3.1100    4.2480   -1.5040 c1        1 099     -0.120000
      2 C5         -2.4790    1.8670   -2.8620 c1        1 099     -0.097000
      3 C6          0.8280   -2.3640    2.7960 c1        1 099     -0.160000
      4 C7          1.9120   -1.6880    4.8380 c1        1 099     -0.140250
      5 C8          2.6920   -0.8470    2.7230 c1        1 099     -0.146000
      6 C10         2.1100   -1.6100    0.5900 c3        1 099     -0.121000
      7 C13         2.7930   -0.9020    4.1080 c1        1 099      0.074000
      8 C15        -1.5920    2.3890   -1.9320 c1        1 099     -0.093000
      9 C17         0.8650   -0.2170   -1.0290 c1        1 099      0.298000
     10 C20         0.8610   -1.5190   -0.2800 c2        1 099     -0.109000
     11 C1         -4.0030    3.7200   -2.4420 c1        1 099     -0.140250
     12 C2         -3.6870    2.5250   -3.1240 c1        1 099     -0.140250
     13 C3          0.9300   -2.4190    4.1840 c1        1 099     -0.140250
     14 C9         -0.6920    3.9910   -0.3780 c3        1 099     -0.157000
     15 C11         0.8490   -2.6720   -1.2700 c3        1 099     -0.181000
     16 C12         1.7070   -1.5800    2.0680 c1        1 099     -0.050000
     17 C14        -1.9110    3.5970   -1.2430 c1        1 099     -0.071000
     18 C16        -0.4380   -3.4890   -1.0890 c2        1 099      0.236000
     19 C18         0.3520    2.9690   -0.5720 c3        1 099      0.007000
     20 C19        -0.1690    1.9600   -1.5120 c3        1 099      0.059000
     21 N21        -0.8760   -4.3860   -2.1320 n         1 099     -0.194000
     22 N22        -0.2170    0.6920   -0.8780 n3        1 099     -0.334000
     23 O23         3.6740   -0.1950    4.9520 oh        1 099     -0.256000
     24 O24         0.6620    2.3440    0.6890 oh        1 099     -0.326000
     25 O25        -2.0250   -5.1310   -1.9620 oh        1 099     -0.241000
     26 O26        -1.0820   -3.3910   -0.0610 o         1 099     -0.328000
     27 O27         1.8310    0.0940   -1.7020 o         1 099     -0.378000
     28 H4         -3.3290    5.0740   -1.0330 ha        1 099      0.134000
     29 H5         -2.2620    1.0420   -3.3340 ha        1 099      0.140000
     30 H6          0.1400   -2.8770    2.3390 ha        1 099      0.156000
     31 H7          1.9830   -1.7270    5.8110 ha        1 099      0.132250
     32 H8          3.3110   -0.2940    2.2110 ha        1 099      0.152000
     33 H10         2.5810   -2.4450    0.3980 hc        1 099      0.107000
     34 H10A        2.6990   -0.8510    0.3970 hc        1 099      0.107000
     35 H20         0.0660   -1.5670    0.2850 ha        1 099      0.131000
     36 H1         -4.8440    4.1780   -2.6260 ha        1 099      0.132250
     37 H2         -4.3100    2.1580   -3.7780 ha        1 099      0.132250
     38 H3          0.3100   -2.9720    4.6970 ha        1 099      0.132250
     39 H9         -0.9520    4.0240    0.5640 hc        1 099      0.102000
     40 H9A        -0.3550    4.8650   -0.6590 hc        1 099      0.102000
     41 H11         1.6240   -3.2450   -1.1100 hc        1 099      0.125000
     42 H11A        0.8870   -2.3200   -2.1800 hc        1 099      0.125000
     43 H18         1.1570    3.3840   -0.9430 h1        1 099      0.087000
     44 H19         0.4080    1.9130   -2.3010 h1        1 099      0.141000
     45 HN21       -0.3780   -4.4810   -2.8920 hn        1 099      0.213000
     46 HN22       -0.9690    0.4330   -0.4380 hn        1 099      0.239000
     47 HO23        3.2950    0.5700    5.2030 ho        1 099      0.216000
     48 HO24        1.3040    2.8030    1.0970 ho        1 099      0.209000
     49 HO25       -2.1520   -5.6530   -2.6800 ho        1 099      0.235000
@<TRIPOS>BOND
     1    1   17 1   
     2    1   28 1   
     3    2    8 1   
     4    2   29 1   
     5    3   16 1   
     6    3   30 1   
     7    4   13 1   
     8    4   31 1   
     9    5    7 1   
    10    5   32 1   
    11    6   10 1   
    12    6   16 1   
    13    6   33 1   
    14    6   34 1   
    15    7   23 1   
    16    8   20 1   
    17    9   22 1   
    18    9   27 1   
    19   10   15 1   
    20   10   35 1   
    21   11   12 1   
    22   11   36 1   
    23   12   37 1   
    24   13   38 1   
    25   14   17 1   
    26   14   19 1   
    27   14   39 1   
    28   14   40 1   
    29   15   18 1   
    30   15   41 1   
    31   15   42 1   
    32   18   21 1   
    33   18   26 1   
    34   19   20 1   
    35   19   24 1   
    36   19   43 1   
    37   20   22 1   
    38   20   44 1   
    39   21   25 1   
    40   21   45 1   
    41   22   46 1   
    42   23   47 1   
    43   24   48 1   
    44   25   49 1   
@<TRIPOS>SUBSTRUCTURE
     1 099         1 TEMP              0 ****  ****    0 ROOT
