@<TRIPOS>MOLECULE
099
   49    51     1     0     0
SMALL
bcc


@<TRIPOS>ATOM
      1 C4         -5.8330   -0.2000    0.0390 ca        1 099     -0.122000
      2 C5         -3.3520   -1.0610   -1.0020 ca        1 099     -0.093000
      3 C6          4.2930   -1.2400   -0.3640 ca        1 099     -0.167000
      4 C7          6.3870   -0.0860    0.0190 ca        1 099     -0.158000
      5 C8          4.3930    1.1600   -0.6440 ca        1 099     -0.213000
      6 C10         2.2220   -0.0030   -1.0600 c3        1 099     -0.047100
      7 C13         5.7500    1.1260   -0.2980 ca        1 099      0.126100
      8 C15        -3.4780    0.1850   -0.4090 ca        1 099     -0.110300
      9 C20         1.3460    0.5150    0.0800 c3        1 099     -0.110700
     10 C1         -5.7100   -1.4540   -0.5730 ca        1 099     -0.125000
     11 C2         -4.4860   -1.8810   -1.0820 ca        1 099     -0.132000
     12 C3          5.6460   -1.2610   -0.0200 ca        1 099     -0.097000
     13 C9         -4.6000    1.9620    0.7440 c3        1 099     -0.070100
     14 C11         1.2360   -0.5010    1.2020 c3        1 099     -0.161400
     15 C12         3.6610   -0.0320   -0.6760 ca        1 099     -0.047300
     16 C14        -4.7130    0.6130    0.1220 ca        1 099     -0.082300
     17 C16         0.4230   -1.7350    0.8800 c         1 099      0.586100
     18 C18        -3.1000    2.3260    0.6760 c3        1 099      0.119100
     19 C19        -2.4190    1.2550   -0.2590 c3        1 099      0.156000
     20 N21         0.2310   -2.6540    1.9650 n         1 099     -0.354400
     21 N22        -1.1460    0.7570    0.1770 n         1 099     -0.538900
     22 O24        -2.5060    2.2900    1.9630 oh        1 099     -0.603800
     23 O25        -0.7480   -3.5410    1.7760 oh        1 099     -0.434100
     24 O26         0.0510   -2.0540   -0.2590 o         1 099     -0.553100
     25 H4         -6.7980    0.1290    0.4470 ha        1 099      0.132000
     26 H5         -2.3820   -1.4060   -1.3920 ha        1 099      0.157000
     27 H6          3.7230   -2.1810   -0.4000 ha        1 099      0.137000
     28 H7          7.4530   -0.0860    0.2860 ha        1 099      0.151000
     29 H8          3.9070    2.1120   -0.8980 ha        1 099      0.140000
     30 H10         1.8710   -1.0280   -1.3570 hc        1 099      0.085200
     31 H10A        2.0900    0.6700   -1.9530 hc        1 099      0.085200
     32 H20         1.8460    1.4330    0.5160 hc        1 099      0.082700
     33 H1         -6.5920   -2.1070   -0.6460 ha        1 099      0.130000
     34 H2         -4.4030   -2.8720   -1.5510 ha        1 099      0.134000
     35 H3          6.1330   -2.2180    0.2200 ha        1 099      0.135000
     36 H9         -5.2080    2.7120    0.1780 hc        1 099      0.061200
     37 H9A        -4.9580    1.9480    1.8040 hc        1 099      0.061200
     38 H11         2.2820   -0.8460    1.4500 hc        1 099      0.081200
     39 H11A        0.8200   -0.0040    2.1190 hc        1 099      0.081200
     40 H18        -2.9550    3.3470    0.2320 h1        1 099      0.046700
     41 H19        -2.2740    1.7520   -1.2690 h1        1 099      0.104700
     42 HN21        0.0520   -2.1870    2.8480 hn        1 099      0.296500
     43 HN22       -1.1220    0.3520    1.0810 hn        1 099      0.315500
     44 HO23        5.9840    3.0100   -0.5250 ho        1 099      0.420000
     45 HO24       -2.9770    2.9390    2.5000 ho        1 099      0.406000
     46 HO25       -0.4220   -4.1580    1.0920 ho        1 099      0.435000
     47 C17         0.0260    1.0290   -0.4940 c         1 099      0.671100
     48 O23         6.5280    2.2600   -0.2430 oh        1 099     -0.498100
     49 O27         0.0240    1.7000   -1.5480 o         1 099     -0.617100
@<TRIPOS>BOND
     1    1   10 ar  
     2    1   16 ar  
     3    1   25 1   
     4    2    8 ar  
     5    2   11 ar  
     6    2   26 1   
     7    3   12 ar  
     8    3   15 ar  
     9    3   27 1   
    10    4    7 ar  
    11    4   12 ar  
    12    4   28 1   
    13    5    7 ar  
    14    5   15 ar  
    15    5   29 1   
    16    6    9 1   
    17    6   15 1   
    18    6   30 1   
    19    6   31 1   
    20    7   48 1   
    21    8   16 ar  
    22    8   19 1   
    23    9   14 1   
    24    9   32 1   
    25    9   47 1   
    26   10   11 ar  
    27   10   33 1   
    28   11   34 1   
    29   12   35 1   
    30   13   16 1   
    31   13   18 1   
    32   13   36 1   
    33   13   37 1   
    34   14   17 1   
    35   14   38 1   
    36   14   39 1   
    37   17   20 1   
    38   17   24 2   
    39   18   19 1   
    40   18   22 1   
    41   18   40 1   
    42   19   21 1   
    43   19   41 1   
    44   20   23 1   
    45   20   42 1   
    46   21   43 1   
    47   21   47 1   
    48   22   45 1   
    49   23   46 1   
    50   44   48 1   
    51   47   49 2   
@<TRIPOS>SUBSTRUCTURE
     1 099         1 TEMP              0 ****  ****    0 ROOT
