@<TRIPOS>MOLECULE
099
   49    48     1     0     0
SMALL
bcc


@<TRIPOS>ATOM
      1 C4          1.0910   -0.2520    0.2460 c1        1 099      0.005000
      2 C5          0.9250    2.2180    1.6090 c2        1 099     -0.168000
      3 C6          1.7940   -5.6970    7.2290 c3        1 099     -0.193000
      4 C7          1.0270   -7.5940    8.6160 c2        1 099     -0.270000
      5 C8         -0.4220   -5.6180    8.3090 c2        1 099     -0.251000
      6 C10         0.2580   -3.6930    6.8860 c3        1 099     -0.154000
      7 C13        -0.1500   -6.9170    8.8870 c2        1 099      0.184000
      8 C15         0.0970    1.2110    1.9260 c2        1 099      0.017000
      9 C20        -0.8930   -3.7040    5.8840 c3        1 099     -0.103000
     10 C1          1.5600   -1.5950    0.2200 c2        1 099     -0.562000
     11 C2          2.5810   -1.9750   -0.5330 c1        1 099      0.351000
     12 C3          2.0070   -7.0260    7.7960 c1        1 099     -0.113000
     13 C9         -1.2340    0.3950   -0.0140 c3        1 099     -0.184000
     14 C11        -0.5620   -4.4880    4.6250 c3        1 099     -0.189000
     15 C12         0.4910   -5.0280    7.4990 c2        1 099     -0.029000
     16 C14        -0.1460    0.0470    0.9970 c3        1 099     -0.129000
     17 C16         0.2800   -3.7480    3.6070 c2        1 099      0.244000
     18 C18        -1.2310    1.0910    4.1610 c1        1 099     -0.058000
     19 C19        -0.6140    1.1640    3.1390 c1        1 099     -0.173000
     20 N21         1.6870   -3.6930    3.8210 n         1 099     -0.193000
     21 N22        -2.1670   -2.0110    4.5560 n         1 099     -0.403000
     22 O24        -2.0040    1.0390    5.2340 oh        1 099     -0.169000
     23 O25         2.3970   -3.3160    2.7580 oh        1 099     -0.241000
     24 O26        -0.2370   -3.1330    2.6570 o         1 099     -0.338000
     25 H4         -0.5110   -0.8300    1.6130 hc        1 099      0.087000
     26 H5          1.0980    3.0690    2.2800 ha        1 099      0.131000
     27 H6          2.6280   -5.0440    7.6310 hc        1 099      0.151500
     28 H7          1.2000   -8.5890    9.0530 ha        1 099      0.164000
     29 H8         -1.3820   -5.1330    8.5480 ha        1 099      0.138000
     30 H10         1.1930   -3.3230    6.3890 hc        1 099      0.128000
     31 H10A        0.0120   -2.9530    7.7020 hc        1 099      0.128000
     32 H20        -1.7680   -4.2310    6.3740 hc        1 099      0.125000
     33 H1          1.0590   -2.3780    0.8460 ha        1 099      0.203000
     34 H2          1.4730    2.2260    0.6560 ha        1 099      0.131000
     35 H3          1.9600   -5.7660    6.1160 hc        1 099      0.151500
     36 H9         -1.4520   -0.4870   -0.6620 hc        1 099      0.083667
     37 H9A        -2.1660    0.6840    0.5280 hc        1 099      0.083667
     38 H11        -0.0470   -5.4410    4.9280 hc        1 099      0.121000
     39 H11A       -1.5170   -4.7780    4.1050 hc        1 099      0.121000
     40 H18        -0.9100    1.2480   -0.6580 hc        1 099      0.083667
     41 H19        -2.1670   -2.6200    3.7730 hn        1 099      0.238500
     42 HN21        2.0740   -4.5630    4.1720 hn        1 099      0.220000
     43 HN22       -2.4520   -1.0690    4.4010 hn        1 099      0.238500
     44 HO23       -1.8240   -6.9080    9.8210 ho        1 099      0.227000
     45 HO24       -1.4670    0.6250    5.9470 ho        1 099      0.262000
     46 HO25        2.4020   -2.3360    2.7760 ho        1 099      0.239000
     47 C17        -1.3760   -2.2760    5.6410 c2        1 099      0.298000
     48 O23        -1.0650   -7.5030    9.7070 oh        1 099     -0.226000
     49 O27        -1.1400   -1.3740    6.4790 o         1 099     -0.406000
@<TRIPOS>BOND
     1    1   10 1   
     2    1   16 1   
     3    2    8 1   
     4    2   26 1   
     5    2   34 1   
     6    3   12 1   
     7    3   15 1   
     8    3   27 1   
     9    3   35 1   
    10    4    7 1   
    11    4   12 1   
    12    4   28 1   
    13    5    7 1   
    14    5   15 1   
    15    5   29 1   
    16    6    9 1   
    17    6   15 1   
    18    6   30 1   
    19    6   31 1   
    20    7   48 1   
    21    8   16 1   
    22    8   19 1   
    23    9   14 1   
    24    9   32 1   
    25    9   47 1   
    26   10   11 1   
    27   10   33 1   
    28   13   16 1   
    29   13   36 1   
    30   13   37 1   
    31   13   40 1   
    32   14   17 1   
    33   14   38 1   
    34   14   39 1   
    35   16   25 1   
    36   17   20 1   
    37   17   24 1   
    38   18   19 1   
    39   18   22 1   
    40   20   23 1   
    41   20   42 1   
    42   21   41 1   
    43   21   43 1   
    44   21   47 1   
    45   22   45 1   
    46   23   46 1   
    47   44   48 1   
    48   47   49 1   
@<TRIPOS>SUBSTRUCTURE
     1 099         1 TEMP              0 ****  ****    0 ROOT
