@<TRIPOS>MOLECULE
09A
   42    43     1     0     0
SMALL
bcc


@<TRIPOS>ATOM
      1 C22         1.4740   -3.0590   -0.1760 cx        1 09A     -0.027000
      2 C5          2.8860   -8.0660    5.4870 c3        1 09A      0.002000
      3 C21         1.6220   -2.1550    0.9500 cu        1 09A     -0.046000
      4 C23         2.1860   -3.4860    1.0770 cu        1 09A     -0.520000
      5 C8          3.9200   -8.3310    4.5110 c1        1 09A     -0.165000
      6 C3          3.0710   -6.5700    5.7570 c2        1 09A     -0.142000
      7 C20         1.4530   -1.0080    1.5610 c2        1 09A     -0.160000
      8 C24         2.8250   -4.3780    1.7510 c1        1 09A      0.211000
      9 C6          4.7440   -7.6310    3.9490 c1        1 09A     -0.200000
     10 C1          3.9430   -5.7730    5.1200 c2        1 09A     -0.137000
     11 C19         3.2340    3.5160    4.6920 c1        1 09A     -0.228500
     12 C17         4.8370   -6.1840    3.8770 c3        1 09A      0.168000
     13 C14         5.9310   -4.4710    5.0300 c2        1 09A      0.304000
     14 C9          3.1320   -1.0610    5.8980 c2        1 09A      0.292000
     15 C4          3.6990   -3.2740    4.8550 c3        1 09A     -0.147000
     16 C13         4.3880   -4.1360    7.0400 c3        1 09A     -0.078000
     17 C7          2.9410   -2.5610    5.9970 c3        1 09A     -0.021000
     18 C2          4.4600   -4.4240    5.5250 c3        1 09A     -0.046000
     19 C18         3.4860    2.6970    5.5270 c1        1 09A     -0.228500
     20 N16         6.0750   -5.4560    4.0500 n         1 09A     -0.357000
     21 N10         3.3530   -3.1330    7.2780 n3        1 09A     -0.278000
     22 O12         3.5820   -0.2820    6.7440 o         1 09A     -0.368000
     23 O11         2.7220   -0.5230    4.7180 oh        1 09A     -0.322000
     24 H1          2.0880   -2.9160   -1.0870 hc        1 09A      0.130500
     25 H2          3.0260   -8.6350    6.4430 hc        1 09A      0.117500
     26 H3          0.9240   -0.1720    1.0830 ha        1 09A      0.142000
     27 H4          0.4910   -3.5250   -0.3880 hc        1 09A      0.130500
     28 H5          1.8570   -8.2760    5.0930 hc        1 09A      0.117500
     29 H6          2.4430   -6.1920    6.5800 ha        1 09A      0.154000
     30 H7          1.8280   -0.8220    2.5800 ha        1 09A      0.142000
     31 H8          3.0130    4.2440    3.9530 ha        1 09A      0.229000
     32 H9          4.3370   -5.8130    2.9240 h1        1 09A      0.165000
     33 H10         2.9850   -3.6560    4.0830 hc        1 09A      0.117000
     34 H11         4.4090   -2.5700    4.3520 hc        1 09A      0.117000
     35 H12         4.0960   -5.0600    7.6090 h1        1 09A      0.106000
     36 H13         5.4000   -3.8020    7.4050 h1        1 09A      0.106000
     37 H14         1.8290   -2.7460    5.8960 h1        1 09A      0.138000
     38 H15         2.8700    0.4410    4.7280 ho        1 09A      0.253000
     39 H16         3.7150    1.9770    6.2790 ha        1 09A      0.229000
     40 H17         6.9480   -5.8710    3.8390 hn        1 09A      0.249000
     41 H18         3.6760   -2.4210    7.9100 hn        1 09A      0.184000
     42 O15         6.8400   -3.7220    5.4110 o         1 09A     -0.332000
@<TRIPOS>BOND
     1    1    3 1   
     2    1    4 1   
     3    1   24 1   
     4    1   27 1   
     5    2    5 1   
     6    2    6 1   
     7    2   25 1   
     8    2   28 1   
     9    3    4 1   
    10    3    7 1   
    11    4    8 1   
    12    5    9 1   
    13    6   10 1   
    14    6   29 1   
    15    7   26 1   
    16    7   30 1   
    17    9   12 1   
    18   10   12 1   
    19   10   18 1   
    20   11   19 1   
    21   11   31 1   
    22   12   20 1   
    23   12   32 1   
    24   13   18 1   
    25   13   20 1   
    26   13   42 1   
    27   14   17 1   
    28   14   22 1   
    29   14   23 1   
    30   15   17 1   
    31   15   18 1   
    32   15   33 1   
    33   15   34 1   
    34   16   18 1   
    35   16   21 1   
    36   16   35 1   
    37   16   36 1   
    38   17   21 1   
    39   17   37 1   
    40   19   39 1   
    41   20   40 1   
    42   21   41 1   
    43   23   38 1   
@<TRIPOS>SUBSTRUCTURE
     1 09A         1 TEMP              0 ****  ****    0 ROOT
