@<TRIPOS>MOLECULE
09A
   42    43     1     0     0
SMALL
bcc


@<TRIPOS>ATOM
      1 C22        -0.1460    2.3590    0.6520 c3        1 09A     -0.055000
      2 C5          4.8970   -8.9870    7.0320 c3        1 09A     -0.199000
      3 C21         0.8280    1.6350   -0.2020 c2        1 09A     -0.134000
      4 C23        -1.5300    2.2340    0.1270 c2        1 09A     -0.486000
      5 C8          6.3120   -9.2280    6.7560 c1        1 09A     -0.106000
      6 C3          4.3740   -7.6090    6.8530 c2        1 09A     -0.072000
      7 C20         1.8340    0.8780    0.2600 c2        1 09A     -0.071000
      8 C24        -2.3550    3.2160   -0.1510 c1        1 09A      0.189000
      9 C6          7.1440   -8.1780    6.3400 c2        1 09A     -0.278000
     10 C1          5.2010   -6.6300    6.4490 c2        1 09A     -0.169000
     11 C19         2.1070    0.6330    1.6150 c1        1 09A     -0.146000
     12 C17         6.6310   -6.9070    6.1840 c2        1 09A      0.171000
     13 C14         6.3410   -4.6520    5.7680 c2        1 09A      0.308000
     14 C9          2.7370   -2.6890    4.9020 c2        1 09A      0.291000
     15 C4          3.9090   -4.9090    5.0960 c3        1 09A     -0.147000
     16 C13         4.4380   -4.4130    7.4430 c3        1 09A     -0.068000
     17 C7          2.8600   -3.9600    5.7190 c3        1 09A     -0.020000
     18 C2          4.9460   -5.1700    6.1920 c3        1 09A     -0.045000
     19 C18         2.3620    0.4050    2.7640 c1        1 09A     -0.213000
     20 N16         7.2550   -5.7310    5.7910 n         1 09A     -0.324000
     21 N10         3.1900   -3.7310    7.1250 n3        1 09A     -0.276000
     22 O12         2.8170   -1.5180    5.2850 o         1 09A     -0.368000
     23 O11         2.4760   -2.8990    3.5850 oh        1 09A     -0.311000
     24 H1          0.1570    3.4420    0.6990 hc        1 09A      0.103500
     25 H2          4.7070   -9.3200    8.0960 hc        1 09A      0.159000
     26 H3          0.6920    1.7660   -1.2880 ha        1 09A      0.133000
     27 H4         -0.1220    1.9620    1.7060 hc        1 09A      0.103500
     28 H5          4.3080   -9.6950    6.3750 hc        1 09A      0.159000
     29 H6          3.3090   -7.4250    7.0610 ha        1 09A      0.142000
     30 H7          2.5320    0.3920   -0.4490 ha        1 09A      0.140000
     31 H8         -1.8750    1.1890   -0.0200 ha        1 09A      0.191000
     32 H9          8.2050   -8.3940    6.1440 ha        1 09A      0.152000
     33 H10         3.4170   -5.8640    4.7850 hc        1 09A      0.119000
     34 H11         4.3760   -4.4470    4.1910 hc        1 09A      0.119000
     35 H12         4.2130   -5.1510    8.2620 h1        1 09A      0.105000
     36 H13         5.2260   -3.7030    7.8140 h1        1 09A      0.105000
     37 H14         1.8390   -4.4470    5.6950 h1        1 09A      0.140000
     38 H15         2.3990   -2.0430    3.1240 ho        1 09A      0.256000
     39 H16         2.5920    0.2140    3.7870 ha        1 09A      0.247000
     40 H17         8.2140   -5.6580    5.5600 hn        1 09A      0.265000
     41 H18         3.2440   -2.7480    7.3320 hn        1 09A      0.187000
     42 O15         6.6550   -3.5030    5.4540 o         1 09A     -0.294000
@<TRIPOS>BOND
     1    1    3 1   
     2    1    4 1   
     3    1   24 1   
     4    1   27 1   
     5    2    5 1   
     6    2    6 1   
     7    2   25 1   
     8    2   28 1   
     9    3    7 1   
    10    3   26 1   
    11    4    8 1   
    12    4   31 1   
    13    5    9 1   
    14    6   10 1   
    15    6   29 1   
    16    7   11 1   
    17    7   30 1   
    18    9   12 1   
    19    9   32 1   
    20   10   12 1   
    21   10   18 1   
    22   11   19 1   
    23   12   20 1   
    24   13   18 1   
    25   13   20 1   
    26   13   42 1   
    27   14   17 1   
    28   14   22 1   
    29   14   23 1   
    30   15   17 1   
    31   15   18 1   
    32   15   33 1   
    33   15   34 1   
    34   16   18 1   
    35   16   21 1   
    36   16   35 1   
    37   16   36 1   
    38   17   21 1   
    39   17   37 1   
    40   19   39 1   
    41   20   40 1   
    42   21   41 1   
    43   23   38 1   
@<TRIPOS>SUBSTRUCTURE
     1 09A         1 TEMP              0 ****  ****    0 ROOT
