@<TRIPOS>MOLECULE
09A
   42    41     1     0     0
SMALL
bcc


@<TRIPOS>ATOM
      1 C22        -0.2190   -1.8130    0.3420 c3        1 09A     -0.029000
      2 C5          2.6600   -8.6690    3.5400 c3        1 09A     -0.119000
      3 C21         1.0060   -2.0560    1.1470 c2        1 09A     -0.139000
      4 C23        -1.3570    0.3650   -0.1380 c1        1 09A      0.197000
      5 C8          3.7250   -7.8040    3.9280 c1        1 09A     -0.107000
      6 C3          4.3760   -4.0590    4.5130 c1        1 09A      0.172000
      7 C20         1.4290   -1.3030    2.1210 c1        1 09A     -0.084000
      8 C24        -0.9230   -0.5560    0.6910 c2        1 09A     -0.493000
      9 C6          4.6180   -7.0740    4.2500 c1        1 09A     -0.223000
     10 C1          5.1750   -4.8590    5.1950 c2        1 09A     -0.343000
     11 C19         1.9810   -0.6530    3.1250 c2        1 09A     -0.201000
     12 C17         5.7020   -6.1920    4.6180 c3        1 09A      0.205000
     13 C14         6.5650   -5.9310    6.7970 c2        1 09A      0.345000
     14 C9          3.1750   -1.0110    7.0980 c2        1 09A      0.304000
     15 C4          4.9920   -1.2140    5.4520 c3        1 09A     -0.264000
     16 C13         5.6640   -3.7460    7.4790 c2        1 09A      0.094000
     17 C7          4.1780   -1.9880    6.4910 c3        1 09A      0.030000
     18 C2          5.7450   -4.7120    6.5270 c2        1 09A     -0.240000
     19 C18         3.0550    0.2530    3.0260 c1        1 09A     -0.049000
     20 N16         6.6150   -6.7250    5.6330 ns        1 09A     -0.341000
     21 N10         4.9500   -2.5880    7.5540 n7        1 09A     -0.313000
     22 O12         3.3190   -0.2500    8.0570 o         1 09A     -0.356000
     23 O11         1.9740   -0.9980    6.4610 oh        1 09A     -0.310000
     24 H1         -0.9250   -2.6780    0.5010 hc        1 09A      0.102000
     25 H2          2.6270   -9.5710    4.2050 hc        1 09A      0.100667
     26 H3          1.5710   -2.9660    0.8630 ha        1 09A      0.154000
     27 H4          0.0680   -1.8110   -0.7460 hc        1 09A      0.102000
     28 H5          2.7970   -9.0120    2.4820 hc        1 09A      0.100667
     29 H6          1.6760   -8.1360    3.6170 hc        1 09A      0.100667
     30 H7          1.6740   -0.9060    4.1670 ha        1 09A      0.183000
     31 H8         -1.0930   -0.4080    1.7790 ha        1 09A      0.196000
     32 H9          6.3230   -5.9670    3.6960 h1        1 09A      0.129000
     33 H10         5.6550   -1.9190    4.8930 hc        1 09A      0.113333
     34 H11         4.2930   -0.7240    4.7200 hc        1 09A      0.113333
     35 H12         5.6190   -0.4280    5.9350 hc        1 09A      0.113333
     36 H13         6.2540   -3.9410    8.4120 h4        1 09A      0.172000
     37 H14         3.5740   -2.7980    5.9700 h1        1 09A      0.147000
     38 H15         1.3940   -0.3360    6.8760 ho        1 09A      0.247000
     39 H16         3.0760    0.9850    2.2080 ha        1 09A      0.066000
     40 H17         6.6840   -7.7120    5.7240 hn        1 09A      0.230000
     41 H18         5.2180   -1.9520    8.2780 hn        1 09A      0.242000
     42 O15         7.1600   -6.2070    7.8510 o         1 09A     -0.350000
@<TRIPOS>BOND
     1    1    3 1   
     2    1    8 1   
     3    1   24 1   
     4    1   27 1   
     5    2    5 1   
     6    2   25 1   
     7    2   28 1   
     8    2   29 1   
     9    3    7 1   
    10    3   26 1   
    11    4    8 1   
    12    5    9 1   
    13    6   10 1   
    14    7   11 1   
    15    8   31 1   
    16    9   12 1   
    17   10   12 1   
    18   10   18 1   
    19   11   19 1   
    20   11   30 1   
    21   12   20 1   
    22   12   32 1   
    23   13   18 1   
    24   13   20 1   
    25   13   42 1   
    26   14   17 1   
    27   14   22 1   
    28   14   23 1   
    29   15   17 1   
    30   15   33 1   
    31   15   34 1   
    32   15   35 1   
    33   16   18 1   
    34   16   21 1   
    35   16   36 1   
    36   17   21 1   
    37   17   37 1   
    38   19   39 1   
    39   20   40 1   
    40   21   41 1   
    41   23   38 1   
@<TRIPOS>SUBSTRUCTURE
     1 09A         1 TEMP              0 ****  ****    0 ROOT
