@<TRIPOS>MOLECULE
09A
   42    45     1     0     0
SMALL
bcc


@<TRIPOS>ATOM
      1 C22         6.0810    1.7840   -1.0130 ca        1 09A     -0.124000
      2 C5         -4.1990    2.5870    1.5700 ca        1 09A     -0.163000
      3 C21         6.0030    0.6590   -1.8350 ca        1 09A     -0.132000
      4 C23         5.2570    1.8850    0.1080 ca        1 09A     -0.132000
      5 C8         -4.9100    2.8730    0.4090 ca        1 09A     -0.090000
      6 C3         -3.2510    1.5540    1.5960 ca        1 09A     -0.071000
      7 C20         5.1010   -0.3620   -1.5400 ca        1 09A     -0.111500
      8 C24         4.3590    0.8630    0.4100 ca        1 09A     -0.111500
      9 C6         -4.7090    2.1450   -0.7700 ca        1 09A     -0.168000
     10 C1         -3.0320    0.8220    0.4470 ca        1 09A     -0.142300
     11 C19         4.2780   -0.2660   -0.4120 ca        1 09A     -0.095300
     12 C17        -3.7690    1.1170   -0.7490 ca        1 09A      0.063600
     13 C14        -2.3980   -0.6440   -1.3170 c         1 09A      0.702500
     14 C9          1.1600   -1.7160    0.7730 c         1 09A      0.615100
     15 C4         -0.6210    0.0190    0.3760 c3        1 09A     -0.068400
     16 C13        -2.3710   -1.5580    1.0650 c3        1 09A      0.168800
     17 C7         -0.0690   -1.0410    1.3570 c3        1 09A      0.125500
     18 C2         -2.0980   -0.3250    0.1730 c3        1 09A     -0.085700
     19 C18         3.3560   -1.3920   -0.0920 c3        1 09A      0.184700
     20 N16        -3.3840    0.2440   -1.7790 n         1 09A     -0.479100
     21 N10        -1.1360   -1.9740    1.7190 n3        1 09A     -0.795200
     22 O12         1.3510   -2.9170    0.5740 o         1 09A     -0.535000
     23 O11         2.1550   -0.8300    0.4760 os        1 09A     -0.435900
     24 H1          6.7920    2.5890   -1.2490 ha        1 09A      0.132000
     25 H2         -4.3790    3.1750    2.4820 ha        1 09A      0.137000
     26 H3          6.6510    0.5790   -2.7200 ha        1 09A      0.133000
     27 H4          5.3150    2.7720    0.7560 ha        1 09A      0.133000
     28 H5         -5.6500    3.6890    0.4090 ha        1 09A      0.136000
     29 H6         -2.6940    1.3310    2.5180 ha        1 09A      0.144000
     30 H7          5.0370   -1.2440   -2.1950 ha        1 09A      0.138500
     31 H8          3.7020    0.9400    1.2900 ha        1 09A      0.138500
     32 H9         -5.2790    2.3820   -1.6780 ha        1 09A      0.142000
     33 H10        -0.5090    1.0400    0.8180 hc        1 09A      0.078200
     34 H11        -0.0620   -0.0050   -0.5920 hc        1 09A      0.078200
     35 H12        -3.0990   -1.2770    1.8770 h1        1 09A      0.065200
     36 H13        -2.8230   -2.3880    0.4560 h1        1 09A      0.065200
     37 H14         0.2680   -0.5390    2.3120 h1        1 09A      0.095700
     38 H15         3.0780   -1.9800   -1.0060 h1        1 09A      0.064700
     39 H16         3.8130   -2.0830    0.6670 h1        1 09A      0.064700
     40 H17        -3.7550    0.2600   -2.6930 hn        1 09A      0.343500
     41 H18        -0.8910   -2.9170    1.4720 hn        1 09A      0.387800
     42 O15        -1.8810   -1.5220   -2.0140 o         1 09A     -0.594500
@<TRIPOS>BOND
     1    1    3 ar  
     2    1    4 ar  
     3    1   24 1   
     4    2    5 ar  
     5    2    6 ar  
     6    2   25 1   
     7    3    7 ar  
     8    3   26 1   
     9    4    8 ar  
    10    4   27 1   
    11    5    9 ar  
    12    5   28 1   
    13    6   10 ar  
    14    6   29 1   
    15    7   11 ar  
    16    7   30 1   
    17    8   11 ar  
    18    8   31 1   
    19    9   12 ar  
    20    9   32 1   
    21   10   12 ar  
    22   10   18 1   
    23   11   19 1   
    24   12   20 1   
    25   13   18 1   
    26   13   20 1   
    27   13   42 2   
    28   14   17 1   
    29   14   22 2   
    30   14   23 1   
    31   15   17 1   
    32   15   18 1   
    33   15   33 1   
    34   15   34 1   
    35   16   18 1   
    36   16   21 1   
    37   16   35 1   
    38   16   36 1   
    39   17   21 1   
    40   17   37 1   
    41   19   23 1   
    42   19   38 1   
    43   19   39 1   
    44   20   40 1   
    45   21   41 1   
@<TRIPOS>SUBSTRUCTURE
     1 09A         1 TEMP              0 ****  ****    0 ROOT
