@<TRIPOS>MOLECULE
09A
   42    36     1     0     0
SMALL
bcc


@<TRIPOS>ATOM
      1 C22        -3.9400   -3.9300   -4.1790 c1        1 09A     -0.125833
      2 C5          2.1710    3.2580    4.1340 c1        1 09A     -0.125833
      3 C21        -2.6170   -3.7460   -4.5700 c1        1 09A     -0.125833
      4 C23        -4.4470   -3.2310   -3.0940 c1        1 09A     -0.125833
      5 C8          2.7640    2.2650    4.8460 c1        1 09A     -0.125833
      6 C3          1.5650    2.9750    2.9440 c1        1 09A     -0.076000
      7 C20        -1.8000   -2.8570   -3.8700 c1        1 09A     -0.125833
      8 C24        -3.6270   -2.3380   -2.3890 c1        1 09A     -0.109000
      9 C6          2.7520    0.9810    4.3690 c1        1 09A     -0.168000
     10 C1          1.5540    1.6450    2.4520 c1        1 09A     -0.142000
     11 C19        -2.3120   -2.1530   -2.7750 c1        1 09A     -0.117000
     12 C17         2.1220    0.6910    3.1350 c2        1 09A      0.074000
     13 C14         1.4220    0.0500    1.3820 c1        1 09A      0.317000
     14 C9          0.0590    0.1050   -0.9800 c1        1 09A      0.319000
     15 C4          0.3250    1.2660    1.3670 c3        1 09A     -0.157000
     16 C13         1.7600    1.9330    0.1810 c3        1 09A     -0.068000
     17 C7         -0.0300    1.4820   -0.2420 c2        1 09A     -0.023000
     18 C2          1.1290    1.1660    1.4300 c1        1 09A     -0.050000
     19 C18        -1.0120   -1.3620   -2.5450 c2        1 09A      0.024000
     20 N16         2.0180   -0.2680    2.5280 n3        1 09A     -0.336000
     21 N10         0.8210    2.1570   -0.5970 n3        1 09A     -0.270000
     22 O15         1.3020   -0.6740    0.4200 o         1 09A     -0.306000
     23 O12         1.1230   -0.3280   -1.3100 o         1 09A     -0.347000
     24 O11        -1.1240   -0.5900   -1.3250 os        1 09A     -0.268000
     25 H1         -4.5330   -4.5730   -4.6850 ha        1 09A      0.137333
     26 H2          2.1790    4.1830    4.4760 ha        1 09A      0.137333
     27 H3         -2.2690   -4.2280   -5.3190 ha        1 09A      0.137333
     28 H4         -5.3820   -3.3610   -2.8190 ha        1 09A      0.137333
     29 H5          3.1940    2.4640    5.6900 ha        1 09A      0.137333
     30 H6          1.1410    3.6840    2.4350 ha        1 09A      0.134000
     31 H7         -0.8700   -2.7270   -4.1450 ha        1 09A      0.137333
     32 H8         -3.9870   -1.8440   -1.6200 ha        1 09A      0.132000
     33 H9          3.1810    0.2590    4.8850 ha        1 09A      0.142000
     34 H10        -0.1370    0.4690    1.7060 hc        1 09A      0.126000
     35 H11         0.0460    2.0570    1.8790 hc        1 09A      0.126000
     36 H12         2.1710    2.7870    0.4760 h1        1 09A      0.111500
     37 H13         2.4480    1.3550   -0.2680 h1        1 09A      0.111500
     38 H14        -0.9560    1.7600   -0.4700 h4        1 09A      0.108000
     39 H15        -0.8590   -0.7550   -3.3020 h4        1 09A      0.112000
     40 H16        -0.2530   -1.9920   -2.4680 h4        1 09A      0.112000
     41 H17         2.3530   -1.0980    2.7570 hn        1 09A      0.257000
     42 H18         0.5570    3.0670   -0.5200 hn        1 09A      0.164000
@<TRIPOS>BOND
     1    1    4 1   
     2    1   25 1   
     3    2    5 1   
     4    2   26 1   
     5    3    7 1   
     6    3   27 1   
     7    4   28 1   
     8    5   29 1   
     9    6   10 1   
    10    6   30 1   
    11    7   31 1   
    12    8   11 1   
    13    8   32 1   
    14    9   12 1   
    15    9   33 1   
    16   10   12 1   
    17   12   20 1   
    18   13   20 1   
    19   13   22 1   
    20   14   23 1   
    21   14   24 1   
    22   15   17 1   
    23   15   18 1   
    24   15   34 1   
    25   15   35 1   
    26   16   18 1   
    27   16   21 1   
    28   16   36 1   
    29   16   37 1   
    30   17   21 1   
    31   17   38 1   
    32   19   24 1   
    33   19   39 1   
    34   19   40 1   
    35   20   41 1   
    36   21   42 1   
@<TRIPOS>SUBSTRUCTURE
     1 09A         1 TEMP              0 ****  ****    0 ROOT
