@<TRIPOS>MOLECULE
09B
   43    45     1     0     0
SMALL
bcc


@<TRIPOS>ATOM
      1 C13        -0.6560    1.0570    0.5060 ca        1 09B     -0.159000
      2 C14         0.6930    1.3660    0.3650 ca        1 09B     -0.091000
      3 C2         -6.9450    6.2590    3.2840 ca        1 09B     -0.090500
      4 C3         -4.5800    6.3020    2.7350 ca        1 09B     -0.090500
      5 C12        -1.1560    0.5550    1.7180 ca        1 09B     -0.065000
      6 C5         -6.7430    5.1140    4.0490 ca        1 09B     -0.121000
      7 C6         -4.3840    5.1590    3.5070 ca        1 09B     -0.121000
      8 C15         1.5990    1.1930    1.4190 ca        1 09B     -0.164000
      9 C1         -5.8620    6.8570    2.6230 ca        1 09B     -0.012000
     10 C11        -0.2820    0.3740    2.7700 ca        1 09B     -0.140000
     11 C8         -5.4610    4.5600    4.1670 ca        1 09B     -0.062000
     12 C10         1.1070    0.6970    2.6240 ca        1 09B      0.061000
     13 C18         0.9050   -0.0660    4.7850 c2        1 09B      0.300000
     14 C24        -3.8960    1.4190    5.1260 c2        1 09B      0.255000
     15 C21        -1.4620    0.7310    4.9680 c3        1 09B     -0.203000
     16 C20        -0.9920   -1.6220    4.1320 c3        1 09B     -0.062000
     17 C22        -2.8200    0.6910    4.4880 c1        1 09B      0.062000
     18 C16        -0.5180   -0.1510    4.1630 c3        1 09B     -0.054000
     19 C9         -5.2890    3.3540    5.0270 c3        1 09B      0.024000
     20 N7         -6.2320    8.9810    1.1960 n1        1 09B     -0.035000
     21 N17         1.7920    0.4450    3.8280 n         1 09B     -0.325000
     22 N19        -0.9620   -2.3450    5.3670 n3        1 09B     -0.341000
     23 O23         1.2250   -0.3890    5.9360 o         1 09B     -0.339000
     24 O26        -4.0680    2.6950    4.6440 os        1 09B     -0.284000
     25 H1         -1.3440    1.2050   -0.3390 ha        1 09B      0.140000
     26 H2          1.0650    1.7560   -0.5950 ha        1 09B      0.137000
     27 H3         -7.9530    6.6920    3.1950 ha        1 09B      0.147500
     28 H4         -3.7300    6.7690    2.2150 ha        1 09B      0.147500
     29 H5         -2.2250    0.3140    1.8350 ha        1 09B      0.159000
     30 H6         -7.5940    4.6430    4.5630 ha        1 09B      0.147500
     31 H7         -3.3780    4.7190    3.5940 ha        1 09B      0.147500
     32 H8          2.6610    1.4420    1.2910 ha        1 09B      0.142000
     33 H9         -1.0980    1.8040    4.9380 hc        1 09B      0.159000
     34 H10        -1.4170    0.4190    6.0580 hc        1 09B      0.159000
     35 H11        -2.0510   -1.6120    3.7400 h1        1 09B      0.116000
     36 H12        -0.3470   -2.1740    3.3900 h1        1 09B      0.116000
     37 H13        -1.5960   -1.9620    6.0380 hn        1 09B      0.155500
     38 H14        -5.1980    3.6450    6.1090 h1        1 09B      0.110500
     39 H15        -6.1490    2.6400    4.9090 h1        1 09B      0.110500
     40 H16         2.7670    0.5370    3.9440 hn        1 09B      0.258000
     41 H17        -0.0410   -2.3720    5.7610 hn        1 09B      0.155500
     42 O25        -4.7280    0.9780    5.9300 o         1 09B     -0.353000
     43 C4         -6.0660    8.0250    1.8380 c1        1 09B     -0.097000
@<TRIPOS>BOND
     1    1    2 1   
     2    1    5 1   
     3    1   25 1   
     4    2    8 1   
     5    2   26 1   
     6    3    6 1   
     7    3    9 1   
     8    3   27 1   
     9    4    7 1   
    10    4    9 1   
    11    4   28 1   
    12    5   10 1   
    13    5   29 1   
    14    6   11 1   
    15    6   30 1   
    16    7   11 1   
    17    7   31 1   
    18    8   12 1   
    19    8   32 1   
    20    9   43 1   
    21   10   12 1   
    22   10   18 1   
    23   11   19 1   
    24   12   21 1   
    25   13   18 1   
    26   13   21 1   
    27   13   23 1   
    28   14   17 1   
    29   14   24 1   
    30   14   42 1   
    31   15   17 1   
    32   15   18 1   
    33   15   33 1   
    34   15   34 1   
    35   16   18 1   
    36   16   22 1   
    37   16   35 1   
    38   16   36 1   
    39   19   24 1   
    40   19   38 1   
    41   19   39 1   
    42   20   43 1   
    43   21   40 1   
    44   22   37 1   
    45   22   41 1   
@<TRIPOS>SUBSTRUCTURE
     1 09B         1 TEMP              0 ****  ****    0 ROOT
