@<TRIPOS>MOLECULE
09B
   43    45     1     0     0
SMALL
bcc


@<TRIPOS>ATOM
      1 C13        -0.9050    1.0900    0.6640 ca        1 09B     -0.159000
      2 C14         0.4230    1.3890    0.3820 ca        1 09B     -0.090000
      3 C2         -6.8290    6.1360    3.4410 ca        1 09B     -0.091000
      4 C3         -4.4900    6.1540    2.7860 ca        1 09B     -0.091000
      5 C12        -1.2790    0.5880    1.9200 ca        1 09B     -0.075000
      6 C5         -6.5810    5.0560    4.2820 ca        1 09B     -0.120500
      7 C6         -4.2490    5.0750    3.6350 ca        1 09B     -0.120500
      8 C15         1.4320    1.2120    1.3380 ca        1 09B     -0.164000
      9 C1         -5.7820    6.6890    2.6880 ca        1 09B     -0.012000
     10 C11        -0.3030    0.3890    2.8740 ca        1 09B     -0.144000
     11 C8         -5.2900    4.5220    4.3860 ca        1 09B     -0.062000
     12 C10         1.0650    0.7160    2.5870 ca        1 09B      0.066000
     13 C18         1.0830   -0.0090    4.7720 c2        1 09B      0.304000
     14 C24        -3.6820    1.4500    5.4880 c2        1 09B      0.259000
     15 C21        -1.2800    0.6930    5.1840 c3        1 09B     -0.200000
     16 C20        -0.7530   -1.6500    4.3230 c3        1 09B     -0.053000
     17 C22        -2.6740    0.6460    4.8330 c1        1 09B      0.041000
     18 C16        -0.3900   -0.1460    4.2790 c3        1 09B     -0.056000
     19 C9         -5.0640    3.3890    5.3290 c3        1 09B      0.024000
     20 N7         -6.2360    8.6930    1.1200 n1        1 09B     -0.034000
     21 N17         1.8690    0.4700    3.7140 ns        1 09B     -0.330000
     22 N19        -1.9890   -2.0460    3.7230 n8        1 09B     -0.330000
     23 O23         1.5110   -0.2720    5.9000 o         1 09B     -0.324000
     24 O26        -3.8900    2.6730    4.8990 os        1 09B     -0.282000
     25 H1         -1.6780    1.2470   -0.1040 ha        1 09B      0.140000
     26 H2          0.6970    1.7780   -0.6110 ha        1 09B      0.138000
     27 H3         -7.8440    6.5550    3.3640 ha        1 09B      0.147500
     28 H4         -3.6680    6.5840    2.1950 ha        1 09B      0.147500
     29 H5         -2.3360    0.3700    2.1440 ha        1 09B      0.153000
     30 H6         -7.4050    4.6200    4.8680 ha        1 09B      0.147500
     31 H7         -3.2360    4.6500    3.7110 ha        1 09B      0.147500
     32 H8          2.4750    1.4600    1.1030 ha        1 09B      0.143000
     33 H9         -0.9080    1.7620    5.1920 hc        1 09B      0.163500
     34 H10        -1.1670    0.3160    6.2510 hc        1 09B      0.163500
     35 H11         0.0800   -2.2120    3.8100 h1        1 09B      0.105000
     36 H12        -0.7630   -1.9580    5.4080 h1        1 09B      0.105000
     37 H13        -1.9980   -1.8380    2.7430 hn        1 09B      0.157000
     38 H14        -4.8740    3.7670    6.3700 h1        1 09B      0.110500
     39 H15        -5.9400    2.6860    5.3460 h1        1 09B      0.110500
     40 H16         2.8430    0.6240    3.7490 hn        1 09B      0.259000
     41 H17        -2.7740   -1.5960    4.1570 hn        1 09B      0.157000
     42 O25        -4.4390    1.1030    6.4050 o         1 09B     -0.351000
     43 C4         -6.0320    7.7910    1.8260 c1        1 09B     -0.098000
@<TRIPOS>BOND
     1    1    2 1   
     2    1    5 1   
     3    1   25 1   
     4    2    8 1   
     5    2   26 1   
     6    3    6 1   
     7    3    9 1   
     8    3   27 1   
     9    4    7 1   
    10    4    9 1   
    11    4   28 1   
    12    5   10 1   
    13    5   29 1   
    14    6   11 1   
    15    6   30 1   
    16    7   11 1   
    17    7   31 1   
    18    8   12 1   
    19    8   32 1   
    20    9   43 1   
    21   10   12 1   
    22   10   18 1   
    23   11   19 1   
    24   12   21 1   
    25   13   18 1   
    26   13   21 1   
    27   13   23 1   
    28   14   17 1   
    29   14   24 1   
    30   14   42 1   
    31   15   17 1   
    32   15   18 1   
    33   15   33 1   
    34   15   34 1   
    35   16   18 1   
    36   16   22 1   
    37   16   35 1   
    38   16   36 1   
    39   19   24 1   
    40   19   38 1   
    41   19   39 1   
    42   20   43 1   
    43   21   40 1   
    44   22   37 1   
    45   22   41 1   
@<TRIPOS>SUBSTRUCTURE
     1 09B         1 TEMP              0 ****  ****    0 ROOT
