@<TRIPOS>MOLECULE
09B
   43    37     1     0     0
SMALL
bcc


@<TRIPOS>ATOM
      1 C4         -7.4900   -3.2860    0.7000 c1        1 09B     -0.098000
      2 C13         3.3280    0.9760   -3.4230 c1        1 09B     -0.115833
      3 C14         4.7310    0.9120   -3.4050 c1        1 09B     -0.115833
      4 C2         -4.9330   -3.1390    1.1520 c1        1 09B     -0.115833
      5 C3         -6.1660   -1.3680    0.1010 c1        1 09B     -0.090000
      6 C12         2.6150    1.0030   -2.2240 c1        1 09B     -0.115833
      7 C5         -3.7860   -2.3610    1.1160 c1        1 09B     -0.115833
      8 C6         -5.0200   -0.5910    0.0650 c1        1 09B     -0.130000
      9 C15         5.4130    0.8770   -2.1880 c1        1 09B     -0.115833
     10 C1         -6.1230   -2.6420    0.6440 c1        1 09B     -0.011000
     11 C11         3.2940    0.9680   -1.0090 c1        1 09B     -0.145000
     12 C8         -3.8300   -1.0870    0.5720 c1        1 09B     -0.064000
     13 C10         4.7040    0.9040   -0.9910 c1        1 09B      0.070000
     14 C18         3.9920    0.9440    1.2990 c1        1 09B      0.317000
     15 C24        -0.5120    0.4750    0.4410 c1        1 09B      0.288000
     16 C21         1.8960   -0.1960    0.6910 c3        1 09B     -0.150000
     17 C20         2.1720    1.9500    0.6280 c3        1 09B     -0.074000
     18 C22         0.6540    0.3790    1.4160 c2        1 09B     -0.027000
     19 C16         2.8150    0.9880    0.4170 c2        1 09B     -0.052000
     20 C9         -2.8040    0.0110    0.7310 c3        1 09B      0.021000
     21 N7         -8.5200   -3.7720    0.7420 n1        1 09B     -0.034000
     22 N17         5.1600    0.8890    0.4690 n3        1 09B     -0.333000
     23 N19         1.0580    1.5440    1.7150 n3        1 09B     -0.261000
     24 O23         3.9800    1.0410    2.5100 o         1 09B     -0.319000
     25 O25        -0.5750    1.4020   -0.3420 o         1 09B     -0.360000
     26 O26        -1.5220   -0.5000    0.4560 os        1 09B     -0.268000
     27 H1          2.8510    1.0000   -4.2750 ha        1 09B      0.146000
     28 H2          5.2290    0.8930   -4.2450 ha        1 09B      0.146000
     29 H3         -4.9020   -4.0360    1.5340 ha        1 09B      0.146000
     30 H4         -7.0050   -1.0180   -0.2560 ha        1 09B      0.147000
     31 H5          1.6400    1.0470   -2.2370 ha        1 09B      0.146000
     32 H6         -2.9480   -2.7110    1.4730 ha        1 09B      0.146000
     33 H7         -5.0500    0.3070   -0.3180 ha        1 09B      0.142000
     34 H8          6.3890    0.8330   -2.1770 ha        1 09B      0.146000
     35 H9          1.6290   -0.6160   -0.1520 hc        1 09B      0.118500
     36 H10         2.3480   -0.8480    1.2630 hc        1 09B      0.118500
     37 H11         1.7390    2.2500   -0.1990 h1        1 09B      0.113000
     38 H12         2.7430    2.6630    0.9840 h1        1 09B      0.113000
     39 H13         0.2580   -0.1600    2.1320 h4        1 09B      0.146000
     40 H14        -3.0060    0.7400    0.1080 h1        1 09B      0.108000
     41 H15        -2.8290    0.3510    1.6500 h1        1 09B      0.108000
     42 H16         6.0230    0.8540    0.7610 hn        1 09B      0.257000
     43 H17         0.3590    2.1300    1.6690 hn        1 09B      0.170000
@<TRIPOS>BOND
     1    1   21 1   
     2    2    6 1   
     3    2   27 1   
     4    3    9 1   
     5    3   28 1   
     6    4    7 1   
     7    4   29 1   
     8    5   10 1   
     9    5   30 1   
    10    6   31 1   
    11    7   32 1   
    12    8   12 1   
    13    8   33 1   
    14    9   34 1   
    15   11   13 1   
    16   11   19 1   
    17   12   20 1   
    18   13   22 1   
    19   14   22 1   
    20   14   24 1   
    21   15   25 1   
    22   15   26 1   
    23   16   18 1   
    24   16   19 1   
    25   16   35 1   
    26   16   36 1   
    27   17   19 1   
    28   17   23 1   
    29   17   37 1   
    30   17   38 1   
    31   18   23 1   
    32   18   39 1   
    33   20   26 1   
    34   20   40 1   
    35   20   41 1   
    36   22   42 1   
    37   23   43 1   
@<TRIPOS>SUBSTRUCTURE
     1 09B         1 TEMP              0 ****  ****    0 ROOT
