@<TRIPOS>MOLECULE
09B
   43    46     1     0     0
SMALL
bcc


@<TRIPOS>ATOM
      1 C13        -4.5100    2.7740    1.7720 ca        1 09B     -0.162000
      2 C14        -5.1100    3.2660    0.6180 ca        1 09B     -0.090000
      3 C2          4.8010    1.0360    0.3530 ca        1 09B     -0.091000
      4 C3          5.6020   -0.2610   -1.5370 ca        1 09B     -0.091000
      5 C12        -3.6950    1.6330    1.7290 ca        1 09B     -0.071000
      6 C5          3.7580    0.1300    0.5270 ca        1 09B     -0.120500
      7 C6          4.5540   -1.1600   -1.3600 ca        1 09B     -0.120500
      8 C15        -4.9260    2.6450   -0.6240 ca        1 09B     -0.167000
      9 C1          5.7290    0.8420   -0.6800 ca        1 09B     -0.016000
     10 C11        -3.4960    1.0040    0.5180 ca        1 09B     -0.143300
     11 C8          3.6290   -0.9710   -0.3250 ca        1 09B     -0.068300
     12 C10        -4.1180    1.5110   -0.6710 ca        1 09B      0.062600
     13 C18        -2.9350   -0.3380   -1.3650 c         1 09B      0.701500
     14 C24         0.3110   -2.0910    0.6760 c         1 09B      0.615100
     15 C21        -1.1980   -0.0840    0.4730 c3        1 09B     -0.068400
     16 C20        -3.1630   -1.4920    0.8990 c3        1 09B      0.168800
     17 C22        -0.8270   -1.3220    1.3210 c3        1 09B      0.127500
     18 C16        -2.6900   -0.2170    0.1640 c3        1 09B     -0.085700
     19 C9          2.5450   -1.9780   -0.1440 c3        1 09B      0.178700
     20 N7          7.6710    2.5170   -1.0070 n1        1 09B     -0.361800
     21 N17        -3.7780    0.7090   -1.7730 n         1 09B     -0.479100
     22 N19        -2.0250   -2.1290    1.5520 n3        1 09B     -0.795200
     23 O23        -2.4820   -1.1970   -2.1290 o         1 09B     -0.594500
     24 O26         1.4230   -1.3200    0.4770 os        1 09B     -0.438900
     25 H1         -4.6730    3.2820    2.7340 ha        1 09B      0.138000
     26 H2         -5.7460    4.1630    0.6730 ha        1 09B      0.137000
     27 H3          4.8970    1.9030    1.0250 ha        1 09B      0.147000
     28 H4          6.3290   -0.4140   -2.3490 ha        1 09B      0.147000
     29 H5         -3.2260    1.2480    2.6470 ha        1 09B      0.144000
     30 H6          3.0240    0.2810    1.3350 ha        1 09B      0.147500
     31 H7          4.4530   -2.0220   -2.0370 ha        1 09B      0.147500
     32 H8         -5.4080    3.0440   -1.5260 ha        1 09B      0.142000
     33 H9         -0.9980    0.8490    1.0560 hc        1 09B      0.078200
     34 H10        -0.5900   -0.0470   -0.4650 hc        1 09B      0.078200
     35 H11        -3.8930   -1.2080    1.7080 h1        1 09B      0.065700
     36 H12        -3.6790   -2.1870    0.1830 h1        1 09B      0.065700
     37 H13        -0.4520   -0.9930    2.3360 h1        1 09B      0.096700
     38 H14         2.2100   -2.4090   -1.1250 h1        1 09B      0.070200
     39 H15         2.8830   -2.8120    0.5290 h1        1 09B      0.070200
     40 H16        -4.0910    0.8640   -2.6950 hn        1 09B      0.343500
     41 H17        -1.8960   -3.0710    1.2260 hn        1 09B      0.388800
     42 O25         0.3500   -3.2790    0.3550 o         1 09B     -0.531000
     43 C4          6.7970    1.7630   -0.8600 cg        1 09B      0.232800
@<TRIPOS>BOND
     1    1    2 ar  
     2    1    5 ar  
     3    1   25 1   
     4    2    8 ar  
     5    2   26 1   
     6    3    6 ar  
     7    3    9 ar  
     8    3   27 1   
     9    4    7 ar  
    10    4    9 ar  
    11    4   28 1   
    12    5   10 ar  
    13    5   29 1   
    14    6   11 ar  
    15    6   30 1   
    16    7   11 ar  
    17    7   31 1   
    18    8   12 ar  
    19    8   32 1   
    20    9   43 1   
    21   10   12 ar  
    22   10   18 1   
    23   11   19 1   
    24   12   21 1   
    25   13   18 1   
    26   13   21 1   
    27   13   23 2   
    28   14   17 1   
    29   14   24 1   
    30   14   42 2   
    31   15   17 1   
    32   15   18 1   
    33   15   33 1   
    34   15   34 1   
    35   16   18 1   
    36   16   22 1   
    37   16   35 1   
    38   16   36 1   
    39   17   22 1   
    40   17   37 1   
    41   19   24 1   
    42   19   38 1   
    43   19   39 1   
    44   20   43 3   
    45   21   40 1   
    46   22   41 1   
@<TRIPOS>SUBSTRUCTURE
     1 09B         1 TEMP              0 ****  ****    0 ROOT
