@<TRIPOS>MOLECULE
09B
   43    46     1     0     0
SMALL
bcc


@<TRIPOS>ATOM
      1 C13        -0.3660   -0.0990    0.1030 ca        1 09B     -0.160000
      2 C14         1.0000    0.0960   -0.0750 ca        1 09B     -0.088000
      3 C2         -6.9260    6.1690    3.5570 ca        1 09B     -0.092000
      4 C3         -4.5130    6.4100    3.6680 ca        1 09B     -0.092000
      5 C12        -0.9350   -0.0770    1.3850 ca        1 09B     -0.068000
      6 C5         -6.8090    4.8480    3.9770 ca        1 09B     -0.126000
      7 C6         -4.4040    5.0870    4.0910 ca        1 09B     -0.126000
      8 C15         1.8550    0.3220    1.0120 ca        1 09B     -0.164000
      9 C1         -5.7750    6.9560    3.4000 ca        1 09B     -0.028000
     10 C11        -0.1130    0.1350    2.4730 ca        1 09B     -0.148300
     11 C8         -5.5480    4.2990    4.2480 ca        1 09B     -0.056300
     12 C10         1.2950    0.3410    2.2870 ca        1 09B      0.059600
     13 C18         0.9730    0.4890    4.5610 c         1 09B      0.700500
     14 C24        -3.9010    1.1350    5.0220 c2        1 09B      0.479100
     15 C21        -1.4180    1.3720    4.2850 c3        1 09B      0.077800
     16 C20        -1.0360   -1.0540    4.5260 c3        1 09B      0.141800
     17 C22        -2.5730    0.6900    4.9080 c2        1 09B     -0.508200
     18 C16        -0.4270    0.2370    3.9390 c3        1 09B     -0.079700
     19 C9         -5.4780    2.8850    4.7200 c3        1 09B      0.182700
     20 N7         -5.9850    9.4100    2.6160 n1        1 09B     -0.373800
     21 N17         1.9240    0.5330    3.5300 n         1 09B     -0.475100
     22 N19        -2.2520   -0.6600    5.3140 n4        1 09B     -0.542800
     23 O23         1.2420    0.6000    5.7620 o         1 09B     -0.596500
     24 O26        -4.1260    2.4270    4.5820 os        1 09B     -0.438900
     25 H1         -1.0140   -0.2680   -0.7700 ha        1 09B      0.140000
     26 H2          1.4260    0.0780   -1.0900 ha        1 09B      0.138000
     27 H3         -7.9180    6.5960    3.3470 ha        1 09B      0.142500
     28 H4         -3.6090    7.0260    3.5460 ha        1 09B      0.142500
     29 H5         -2.0190   -0.2130    1.5170 ha        1 09B      0.148000
     30 H6         -7.7110    4.2300    4.0970 ha        1 09B      0.149500
     31 H7         -3.4130    4.6520    4.3020 ha        1 09B      0.149500
     32 H8          2.9300    0.4800    0.8540 ha        1 09B      0.144000
     33 H9         -1.7350    1.9290    3.3670 hc        1 09B      0.060200
     34 H10        -0.9340    2.0970    4.9900 hc        1 09B      0.060200
     35 H11        -1.3520   -1.7430    3.6970 hx        1 09B      0.089200
     36 H12        -0.3110   -1.5780    5.2050 hx        1 09B      0.089200
     37 H13        -2.0410   -0.6800    6.3160 hn        1 09B      0.423300
     38 H14        -5.7800    2.8160    5.8010 h1        1 09B      0.063200
     39 H15        -6.1500    2.2210    4.1140 h1        1 09B      0.063200
     40 H16         2.8740    0.7740    3.6420 hn        1 09B      0.345500
     41 H17        -3.0460   -1.2810    5.1380 hn        1 09B      0.423300
     42 O25        -4.8840    0.4980    5.4670 o         1 09B     -0.488000
     43 C4         -5.8910    8.3060    2.9690 cg        1 09B      0.238800
@<TRIPOS>BOND
     1    1    2 ar  
     2    1    5 ar  
     3    1   25 1   
     4    2    8 ar  
     5    2   26 1   
     6    3    6 ar  
     7    3    9 ar  
     8    3   27 1   
     9    4    7 ar  
    10    4    9 ar  
    11    4   28 1   
    12    5   10 ar  
    13    5   29 1   
    14    6   11 ar  
    15    6   30 1   
    16    7   11 ar  
    17    7   31 1   
    18    8   12 ar  
    19    8   32 1   
    20    9   43 1   
    21   10   12 ar  
    22   10   18 1   
    23   11   19 1   
    24   12   21 1   
    25   13   18 1   
    26   13   21 1   
    27   13   23 2   
    28   14   17 2   
    29   14   24 1   
    30   14   42 1   
    31   15   17 1   
    32   15   18 1   
    33   15   33 1   
    34   15   34 1   
    35   16   18 1   
    36   16   22 1   
    37   16   35 1   
    38   16   36 1   
    39   17   22 1   
    40   19   24 1   
    41   19   38 1   
    42   19   39 1   
    43   20   43 3   
    44   21   40 1   
    45   22   37 1   
    46   22   41 1   
@<TRIPOS>SUBSTRUCTURE
     1 09B         1 TEMP              0 ****  ****    0 ROOT
