@<TRIPOS>MOLECULE
09C
   43    46     1     0     0
SMALL
bcc


@<TRIPOS>ATOM
      1 C1         -1.0110    0.2620    0.3540 c2        1 09C      0.314000
      2 N1          1.3140    1.2100    0.1320 n7        1 09C     -0.264000
      3 O1         -1.9730   -0.3710   -0.1260 o         1 09C     -0.369000
      4 C2          0.3390    0.2700   -0.3860 c3        1 09C      0.019000
      5 N2         -1.1470    0.9560    1.5280 ns        1 09C     -0.369000
      6 N3          3.4700    0.0400    4.5150 n2        1 09C     -0.161000
      7 N4          2.8250   -2.1310    0.2440 nu        1 09C     -0.189000
      8 C3          2.0580    4.0170    5.2600 c1        1 09C     -0.058000
      9 C4          2.6140   -1.5950   -3.8970 ca        1 09C     -0.107000
     10 C5          2.0230    3.5230    3.8930 c3        1 09C     -0.200000
     11 C6          1.5770   -1.2160   -3.0300 ca        1 09C     -0.086000
     12 C7          3.0390   -0.8310    3.6840 c2        1 09C     -0.099000
     13 C8          1.6670   -1.6500    0.7050 c1        1 09C     -0.033000
     14 C9          2.9780    1.8810    6.0020 c2        1 09C      0.041000
     15 C10         3.9580   -2.4140   -2.0330 ca        1 09C     -0.105000
     16 C11        -0.0940    1.7320    2.1130 c3        1 09C      0.017000
     17 C12         1.2770    1.5020    1.5070 c2        1 09C      0.026000
     18 C13         2.5440    3.1490    6.2700 c2        1 09C     -0.276000
     19 C14         3.7800   -2.1820   -3.4080 ca        1 09C     -0.151000
     20 C15         2.3990    1.6630    2.2530 c2        1 09C     -0.247000
     21 C16         0.8220   -1.1840   -0.4980 c3        1 09C     -0.184000
     22 C17         2.9250    1.3360    4.6510 c2        1 09C     -0.066000
     23 C18         2.9320   -2.0340   -1.1810 ca        1 09C     -0.044000
     24 C19         2.4370    2.1200    3.6300 c2        1 09C     -0.034000
     25 C20         1.7300   -1.4290   -1.6760 ca        1 09C     -0.110000
     26 HA          0.1040    0.6250   -1.4400 h1        1 09C      0.136000
     27 HAE         2.4900   -1.4220   -4.9780 ha        1 09C      0.156000
     28 HAF         0.9770    3.6960    3.5010 hc        1 09C      0.168000
     29 HAG         0.6590   -0.7610   -3.4330 ha        1 09C      0.154000
     30 HAH         2.2010   -0.7390    2.9620 h4        1 09C      0.133000
     31 HAI        -0.0810   -1.8580   -0.5640 hc        1 09C      0.181000
     32 HAJ         3.3770    1.2250    6.7980 ha        1 09C      0.162000
     33 HAK         4.8770   -2.8830   -1.6520 ha        1 09C      0.157000
     34 H1AL       -0.0420    1.4990    3.2180 h1        1 09C      0.101000
     35 H2AL       -2.0250    0.9420    1.9960 hn        1 09C      0.249000
     36 H12         2.2360    1.0150   -0.2090 hn        1 09C      0.198000
     37 H13        -0.3400    2.8320    1.9980 h1        1 09C      0.101000
     38 H14         3.5630   -1.8060    3.6830 h4        1 09C      0.133000
     39 H15         3.5440   -2.5350    0.7920 hn        1 09C      0.259000
     40 H16         3.3960    1.4590    1.8210 ha        1 09C      0.145000
     41 HAD         2.6890    4.2200    3.2940 hc        1 09C      0.168000
     42 Br1         2.5840    3.8140    8.0210 br        1 09C      0.068000
     43 Br2         5.1430   -2.6770   -4.5940 br        1 09C      0.070000
@<TRIPOS>BOND
     1    1    3 1   
     2    1    4 1   
     3    1    5 1   
     4    2    4 1   
     5    2   17 1   
     6    2   36 1   
     7    4   21 1   
     8    4   26 1   
     9    5   16 1   
    10    5   35 1   
    11    6   12 1   
    12    6   22 1   
    13    7   13 1   
    14    7   23 1   
    15    7   39 1   
    16    8   10 1   
    17    8   18 1   
    18    9   11 1   
    19    9   19 1   
    20    9   27 1   
    21   10   24 1   
    22   10   28 1   
    23   10   41 1   
    24   11   25 1   
    25   11   29 1   
    26   12   30 1   
    27   12   38 1   
    28   13   21 1   
    29   14   18 1   
    30   14   22 1   
    31   14   32 1   
    32   15   19 1   
    33   15   23 1   
    34   15   33 1   
    35   16   17 1   
    36   16   34 1   
    37   16   37 1   
    38   17   20 1   
    39   18   42 1   
    40   19   43 1   
    41   20   24 1   
    42   20   40 1   
    43   21   25 1   
    44   21   31 1   
    45   22   24 1   
    46   23   25 1   
@<TRIPOS>SUBSTRUCTURE
     1 09C         1 TEMP              0 ****  ****    0 ROOT
