@<TRIPOS>MOLECULE
09C
   43    47     1     0     0
SMALL
bcc


@<TRIPOS>ATOM
      1 C1          0.7650    2.1830   -2.2840 c         1 09C      0.666500
      2 N1          0.2970    0.4100   -0.5130 n3        1 09C     -0.804200
      3 O1          1.5080    3.0060   -2.8570 o         1 09C     -0.661500
      4 C2          1.2240    1.4170   -1.0200 c3        1 09C      0.202700
      5 N2         -0.5110    1.9980   -2.7650 n         1 09C     -0.573900
      6 N3         -2.9610   -2.2280    0.5200 na        1 09C     -0.187400
      7 N4          4.6520    0.3880   -2.0790 na        1 09C     -0.188400
      8 C3         -5.6090    0.9720    0.4270 ca        1 09C     -0.128000
      9 C4          3.8840   -1.3810    1.5980 ca        1 09C     -0.136000
     10 C5         -4.2800    1.1010    0.0540 ca        1 09C     -0.089000
     11 C6          2.9540   -0.5730    0.9600 ca        1 09C     -0.084000
     12 C7         -1.7960   -1.6010    0.0810 cc        1 09C     -0.072100
     13 C8          3.4620    1.0820   -2.2790 cc        1 09C     -0.054100
     14 C9         -5.3340   -1.4030    0.9310 ca        1 09C     -0.112000
     15 C10         5.5060   -1.1060   -0.2060 ca        1 09C     -0.116000
     16 C11        -1.4680    1.1270   -2.1520 c3        1 09C      0.062000
     17 C12        -1.1030    0.7810   -0.6770 c3        1 09C      0.237700
     18 C13        -6.1280   -0.2660    0.8580 ca        1 09C     -0.009900
     19 C14         5.1410   -1.6470    1.0200 ca        1 09C     -0.011900
     20 C15        -2.0490   -0.2550   -0.1930 cd        1 09C     -0.153400
     21 C16         2.5870    0.8540   -1.2150 cd        1 09C     -0.176400
     22 C17        -3.9870   -1.2800    0.5560 ca        1 09C     -0.050200
     23 C18         4.5730   -0.2850   -0.8560 ca        1 09C     -0.058200
     24 C19        -3.4460   -0.0160    0.1070 ca        1 09C     -0.075800
     25 C20         3.2730   -0.0140   -0.2790 ca        1 09C     -0.062800
     26 HA          1.2840    2.2200   -0.2160 h1        1 09C      0.096700
     27 HAE         3.6340   -1.8200    2.5760 ha        1 09C      0.144000
     28 HAF        -3.8830    2.0720   -0.2780 ha        1 09C      0.139000
     29 HAG         1.9800   -0.3680    1.4270 ha        1 09C      0.155000
     30 HAH        -0.8630   -2.1640    0.0010 h4        1 09C      0.175000
     31 HAI         3.3170    1.7110   -3.1660 h4        1 09C      0.198000
     32 HAJ        -5.7370   -2.3690    1.2690 ha        1 09C      0.149000
     33 HAK         6.4880   -1.3060   -0.6560 ha        1 09C      0.146000
     34 H1AL       -2.4830    1.6170   -2.1580 h1        1 09C      0.048700
     35 H2AL       -1.5440    0.1720   -2.7480 h1        1 09C      0.048700
     36 H12         0.4790   -0.4820   -0.9350 hn        1 09C      0.366800
     37 H13        -0.7980    2.5190   -3.5610 hn        1 09C      0.322500
     38 H14        -3.0370   -3.1620    0.8240 hn        1 09C      0.304700
     39 H15         5.4520    0.4370   -2.6520 hn        1 09C      0.303700
     40 H16        -1.2620    1.7140   -0.0510 h1        1 09C      0.077700
     41 HAD        -6.2690    1.8520    0.3880 ha        1 09C      0.147000
     42 BR1        -7.9360   -0.3750    1.3470 br        1 09C     -0.090100
     43 BR2         6.3500   -2.7540    1.9330 br        1 09C     -0.097100
@<TRIPOS>BOND
     1    1    3 2   
     2    1    4 1   
     3    1    5 1   
     4    2    4 1   
     5    2   17 1   
     6    2   36 1   
     7    4   21 1   
     8    4   26 1   
     9    5   16 1   
    10    5   37 1   
    11    6   12 1   
    12    6   22 1   
    13    6   38 1   
    14    7   13 1   
    15    7   23 1   
    16    7   39 1   
    17    8   10 ar  
    18    8   18 ar  
    19    8   41 1   
    20    9   11 ar  
    21    9   19 ar  
    22    9   27 1   
    23   10   24 ar  
    24   10   28 1   
    25   11   25 ar  
    26   11   29 1   
    27   12   20 2   
    28   12   30 1   
    29   13   21 2   
    30   13   31 1   
    31   14   18 ar  
    32   14   22 ar  
    33   14   32 1   
    34   15   19 ar  
    35   15   23 ar  
    36   15   33 1   
    37   16   17 1   
    38   16   34 1   
    39   16   35 1   
    40   17   20 1   
    41   17   40 1   
    42   18   42 1   
    43   19   43 1   
    44   20   24 1   
    45   21   25 1   
    46   22   24 ar  
    47   23   25 ar  
@<TRIPOS>SUBSTRUCTURE
     1 09C         1 TEMP              0 ****  ****    0 ROOT
