@<TRIPOS>MOLECULE
09C
   43    47     1     0     0
SMALL
bcc


@<TRIPOS>ATOM
      1 C1         -0.4580   -0.6170    0.3290 c         1 09C      0.692500
      2 N1          1.7410   -0.1630    1.4170 n3        1 09C     -0.824200
      3 O1         -1.1320   -1.2010   -0.5380 o         1 09C     -0.629500
      4 C2          1.0500   -0.3330    0.1390 c3        1 09C      0.196700
      5 N2         -1.0880   -0.1020    1.4470 n         1 09C     -0.570900
      6 N3          3.0150    0.7300    5.4440 na        1 09C     -0.189400
      7 N4          2.5840   -3.3990   -1.3220 na        1 09C     -0.188400
      8 C3          2.0680    4.7020    4.6770 ca        1 09C     -0.127000
      9 C4          2.8280   -0.3880   -4.1760 ca        1 09C     -0.127000
     10 C5          1.6830    3.6750    3.8290 ca        1 09C     -0.089000
     11 C6          2.2520   -0.1810   -2.9320 ca        1 09C     -0.087000
     12 C7          2.4280    0.1160    4.3380 cc        1 09C     -0.062100
     13 C8          1.9340   -2.7160   -0.2950 cc        1 09C     -0.049100
     14 C9          3.1760    3.1520    6.2070 ca        1 09C     -0.112000
     15 C10         3.3240   -2.7240   -3.6620 ca        1 09C     -0.112000
     16 C11        -0.3670    0.3690    2.5950 c3        1 09C      0.101000
     17 C12         1.0820    0.8330    2.2600 c3        1 09C      0.242700
     18 C13         2.8040    4.4430    5.8510 ca        1 09C     -0.010900
     19 C14         3.3570   -1.6440   -4.5350 ca        1 09C     -0.011900
     20 C15         1.8180    1.0730    3.5250 cd        1 09C     -0.168400
     21 C16         1.6920   -1.3950   -0.6750 cd        1 09C     -0.150400
     22 C17         2.7920    2.1070    5.3540 ca        1 09C     -0.053200
     23 C18         2.7440   -2.5220   -2.4020 ca        1 09C     -0.052200
     24 C19         2.0340    2.3620    4.1470 ca        1 09C     -0.072800
     25 C20         2.1990   -1.2370   -2.0210 ca        1 09C     -0.061800
     26 HA          1.0700    0.6290   -0.4730 h1        1 09C      0.052700
     27 HAE         2.8680    0.4430   -4.8970 ha        1 09C      0.145000
     28 HAF         1.1090    3.8880    2.9160 ha        1 09C      0.140000
     29 HAG         1.8350    0.8010   -2.6670 ha        1 09C      0.138000
     30 HAH         2.4860   -0.9670    4.1970 h4        1 09C      0.179000
     31 HAI         1.6930   -3.2160    0.6460 h4        1 09C      0.175000
     32 HAJ         3.7500    2.9490    7.1220 ha        1 09C      0.148000
     33 HAK         3.7340   -3.7050   -3.9420 ha        1 09C      0.146000
     34 H1AL       -0.3140   -0.4380    3.3820 h1        1 09C      0.045700
     35 H2AL       -0.9200    1.2480    3.0330 h1        1 09C      0.045700
     36 H12         2.7020    0.0780    1.2630 hn        1 09C      0.382800
     37 H13        -2.0480   -0.3250    1.5800 hn        1 09C      0.317500
     38 H14         3.5200    0.2790    6.1590 hn        1 09C      0.303700
     39 H15         2.7770   -4.3640   -1.3420 hn        1 09C      0.301700
     40 H16         0.9970    1.8300    1.7190 h1        1 09C      0.035700
     41 HAD         1.7920    5.7390    4.4280 ha        1 09C      0.147000
     42 BR1         3.2920    5.8770    6.9560 br        1 09C     -0.090100
     43 BR2         4.1230   -1.8590   -6.2340 br        1 09C     -0.096100
@<TRIPOS>BOND
     1    1    3 2   
     2    1    4 1   
     3    1    5 1   
     4    2    4 1   
     5    2   17 1   
     6    2   36 1   
     7    4   21 1   
     8    4   26 1   
     9    5   16 1   
    10    5   37 1   
    11    6   12 1   
    12    6   22 1   
    13    6   38 1   
    14    7   13 1   
    15    7   23 1   
    16    7   39 1   
    17    8   10 ar  
    18    8   18 ar  
    19    8   41 1   
    20    9   11 ar  
    21    9   19 ar  
    22    9   27 1   
    23   10   24 ar  
    24   10   28 1   
    25   11   25 ar  
    26   11   29 1   
    27   12   20 2   
    28   12   30 1   
    29   13   21 2   
    30   13   31 1   
    31   14   18 ar  
    32   14   22 ar  
    33   14   32 1   
    34   15   19 ar  
    35   15   23 ar  
    36   15   33 1   
    37   16   17 1   
    38   16   34 1   
    39   16   35 1   
    40   17   20 1   
    41   17   40 1   
    42   18   42 1   
    43   19   43 1   
    44   20   24 1   
    45   21   25 1   
    46   22   24 ar  
    47   23   25 ar  
@<TRIPOS>SUBSTRUCTURE
     1 09C         1 TEMP              0 ****  ****    0 ROOT
