@<TRIPOS>MOLECULE
09C
   43    36     1     0     0
SMALL
bcc


@<TRIPOS>ATOM
      1 C1         -2.2450   -0.1380   -1.3060 c1        1 09C      0.300000
      2 N1         -0.1660   -0.0830   -0.0880 n3        1 09C     -0.303000
      3 O1         -2.9240   -0.5750   -2.3150 o         1 09C     -0.354000
      4 C2         -0.6900   -0.1170   -1.3610 c2        1 09C      0.045000
      5 N2         -2.7690    0.8490   -0.5100 n3        1 09C     -0.380000
      6 N3          0.4470   -0.0290    4.2310 n2        1 09C     -0.212000
      7 N4         -0.0220   -3.5850   -1.9880 n2        1 09C     -0.211000
      8 BR1         2.6720    4.5070    6.1240 br        1 09C      0.050000
      9 BR2         1.9630   -3.4410   -7.0200 br        1 09C      0.044000
     10 C3          1.3590    3.9550    3.6030 c1        1 09C     -0.127000
     11 C4          0.9400   -1.3090   -5.3160 c1        1 09C     -0.127000
     12 C5          0.7190    3.1440    2.6680 c1        1 09C     -0.089000
     13 C6          0.4590   -0.7890   -4.1310 c1        1 09C     -0.087000
     14 C7         -0.1620   -0.3330    3.0230 c1        1 09C     -0.035000
     15 C8         -0.4850   -2.6300   -1.1710 c1        1 09C     -0.022000
     16 C9          1.4750    2.1240    5.1390 c1        1 09C     -0.112000
     17 C10         0.8900   -3.5140   -4.3610 c1        1 09C     -0.112000
     18 C11        -2.1530    0.9160    0.7770 c3        1 09C     -0.015000
     19 C12        -0.7320    0.9660    0.7320 c3        1 09C      0.041000
     20 C13         1.7350    3.4330    4.8390 c2        1 09C     -0.151000
     21 C14         1.1580   -2.6760   -5.4350 c2        1 09C     -0.152000
     22 C15        -0.1570    0.8150    2.2390 c2        1 09C     -0.176000
     23 C16        -0.3590   -1.4090   -1.8220 c2        1 09C     -0.158000
     24 C17         0.8270    1.3030    4.1960 c1        1 09C     -0.008000
     25 C18         0.4010   -2.9810   -3.1590 c2        1 09C     -0.007000
     26 C19         0.4550    1.8240    2.9650 c1        1 09C     -0.061000
     27 C20         0.1890   -1.6410   -3.0460 c2        1 09C     -0.050000
     28 HA         -0.3000    0.4350   -1.9900 h4        1 09C      0.092000
     29 HAD         1.5260    4.8620    3.4040 DU        1 09C      0.179500
     30 HAE         1.2610   -0.6850   -6.0410 DU        1 09C      0.179500
     31 HAF         0.4690    3.4930    1.8460 ha        1 09C      0.140000
     32 HAG         0.3150    0.1100   -4.0520 DU        1 09C      0.179500
     33 HAH        -0.4020   -1.1820    2.7360 DU        1 09C      0.179500
     34 HAI        -0.8160   -2.7620   -0.3050 DU        1 09C      0.179500
     35 HAJ         1.6880    1.7750    6.0300 ha        1 09C      0.148000
     36 HAK         1.1070   -4.4650   -4.4180 DU        1 09C      0.179500
     37 H1AL       -2.4810    1.7400    1.2380 h1        1 09C      0.085000
     38 H2AL       -2.4130    0.1780    1.2720 h1        1 09C      0.085000
     39 H12         0.7070    0.0190   -0.1330 hn        1 09C      0.178000
     40 H13        -3.6420    1.0910   -0.6080 hn        1 09C      0.231000
     41 H14         0.5800   -0.6390    4.9710 DU        1 09C      0.179500
     42 H15         0.0080   -4.4530   -1.8080 DU        1 09C      0.179500
     43 H16        -0.4340    1.8960    0.3500 h1        1 09C      0.075000
@<TRIPOS>BOND
     1    1    3 1   
     2    1    5 1   
     3    2    4 1   
     4    2   19 1   
     5    2   39 1   
     6    4   23 1   
     7    4   28 1   
     8    5   18 1   
     9    5   40 1   
    10    6   14 1   
    11    6   24 1   
    12    7   15 1   
    13    7   25 1   
    14    8   20 1   
    15    9   21 1   
    16   10   12 1   
    17   10   20 1   
    18   11   13 1   
    19   11   21 1   
    20   12   31 1   
    21   13   27 1   
    22   14   22 1   
    23   15   23 1   
    24   16   20 1   
    25   16   35 1   
    26   17   21 1   
    27   17   25 1   
    28   18   19 1   
    29   18   37 1   
    30   18   38 1   
    31   19   22 1   
    32   19   43 1   
    33   22   26 1   
    34   23   27 1   
    35   24   26 1   
    36   25   27 1   
@<TRIPOS>SUBSTRUCTURE
     1 09C         1 TEMP              0 ****  ****    0 ROOT
