@<TRIPOS>MOLECULE
09D
   47    48     1     0     0
SMALL
bcc


@<TRIPOS>ATOM
      1 C1          0.1980    0.2960   -0.1460 c2        1 09D     -0.209000
      2 C2          4.3760   -0.1860    0.8340 c1        1 09D      0.252000
      3 C3          0.0040    0.4240    1.1690 c2        1 09D     -0.111000
      4 C4          3.1480    0.2210    1.0890 c2        1 09D     -0.457000
      5 C5         -9.6050    3.0070    5.0130 c2        1 09D     -0.256000
      6 C6         -9.7660    1.6380    4.7440 c1        1 09D     -0.077000
      7 C7         -7.2900    1.4260    5.1380 c2        1 09D     -0.076000
      8 C8          0.8880   -0.0590    2.1910 c2        1 09D     -0.182000
      9 C9         -7.2000    2.7590    5.3680 c2        1 09D     -0.132000
     10 C10         2.2630   -0.1610    2.1630 c2        1 09D      0.130000
     11 C11        -8.3880    3.5920    5.3040 c2        1 09D     -0.132000
     12 C12        -8.5780    0.7790    4.8070 c3        1 09D     -0.192000
     13 C13         1.6950   -0.9040    4.2690 c2        1 09D      0.303000
     14 C14        -3.6060    2.6030    5.7620 c2        1 09D      0.226000
     15 C15        -5.7280    4.8060    5.2070 c3        1 09D     -0.181000
     16 C16        -0.4300    0.4380    4.3250 c3        1 09D     -0.207000
     17 C17        -3.9550   -0.2240    3.2380 c1        1 09D     -0.008000
     18 C18        -6.7360    5.7230    5.8380 c3        1 09D     -0.323000
     19 C19        -5.8870    3.3850    5.7420 c3        1 09D      0.067000
     20 C20        -1.8840    0.4980    4.1560 c1        1 09D     -0.101000
     21 C21         0.3820   -0.5610    3.5280 c3        1 09D     -0.105000
     22 N22         2.7590   -0.6970    3.3740 n         1 09D     -0.337000
     23 N23        -2.6130   -0.2890    3.3440 n3        1 09D     -0.185000
     24 O24         1.8190   -1.3090    5.4280 o         1 09D     -0.313000
     25 O26        -4.8440    2.5630    5.1850 os        1 09D     -0.297000
     26 S27        -8.4050    5.2430    5.5450 ss        1 09D      0.336000
     27 BR2        -8.9700   -0.6160    6.1110 br        1 09D      0.031000
     28 H1         -0.8970    0.9410    1.5490 ha        1 09D      0.121000
     29 H2         -0.5150    0.7000   -0.8770 ha        1 09D      0.120500
     30 H3          1.0590   -0.2330   -0.5770 ha        1 09D      0.120500
     31 H4          2.7000    0.9560    0.3760 ha        1 09D      0.218000
     32 H6         -8.4920    0.2430    3.8180 h1        1 09D      0.182000
     33 H8         -5.8310    4.8040    4.0910 hc        1 09D      0.114500
     34 H9         -4.6890    5.1580    5.4520 hc        1 09D      0.114500
     35 H10        -0.0510    1.4830    4.1330 hc        1 09D      0.158500
     36 H11        -0.2720    0.2390    5.4310 hc        1 09D      0.158500
     37 H12        -0.1730   -1.5290    3.3920 hc        1 09D      0.133000
     38 H13        -4.4380    0.5470    3.8840 ha        1 09D      0.064000
     39 H14        -6.5570    5.7910    6.9410 h1        1 09D      0.128000
     40 H15        -6.6400    6.7560    5.4140 h1        1 09D      0.128000
     41 H16        -5.7810    3.3890    6.8670 h1        1 09D      0.124000
     42 H17        -2.9120    1.8880    5.2450 h5        1 09D      0.240000
     43 H18         3.7160   -0.7090    3.6210 hn        1 09D      0.257000
     44 H19        -2.1750   -0.9830    2.7560 hn        1 09D      0.205000
     45 H7         -6.3920    0.7860    5.1770 ha        1 09D      0.153000
     46 O25        -3.4130    3.3620    6.7080 o         1 09D     -0.360000
     47 H5        -10.5130    3.6340    4.9740 ha        1 09D      0.157000
@<TRIPOS>BOND
     1    1    3 1   
     2    1   29 1   
     3    1   30 1   
     4    2    4 1   
     5    3    8 1   
     6    3   28 1   
     7    4   10 1   
     8    4   31 1   
     9    5    6 1   
    10    5   11 1   
    11    5   47 1   
    12    6   12 1   
    13    7    9 1   
    14    7   12 1   
    15    7   45 1   
    16    8   10 1   
    17    8   21 1   
    18    9   11 1   
    19    9   19 1   
    20   10   22 1   
    21   11   26 1   
    22   12   27 1   
    23   12   32 1   
    24   13   21 1   
    25   13   22 1   
    26   13   24 1   
    27   14   25 1   
    28   14   42 1   
    29   14   46 1   
    30   15   18 1   
    31   15   19 1   
    32   15   33 1   
    33   15   34 1   
    34   16   20 1   
    35   16   21 1   
    36   16   35 1   
    37   16   36 1   
    38   17   23 1   
    39   17   38 1   
    40   18   26 1   
    41   18   39 1   
    42   18   40 1   
    43   19   25 1   
    44   19   41 1   
    45   20   23 1   
    46   21   37 1   
    47   22   43 1   
    48   23   44 1   
@<TRIPOS>SUBSTRUCTURE
     1 09D         1 TEMP              0 ****  ****    0 ROOT
