@<TRIPOS>MOLECULE
09D
   47    48     1     0     0
SMALL
bcc


@<TRIPOS>ATOM
      1 C1         -0.4210   -1.3360    0.5100 c2        1 09D     -0.213000
      2 C2          3.4900    0.1920   -0.5160 c1        1 09D      0.252000
      3 C3         -0.3510   -0.5170    1.5630 c2        1 09D     -0.111000
      4 C4          2.3250    0.2580    0.0970 c2        1 09D     -0.458000
      5 C5         -9.3410    4.1250    3.9390 c2        1 09D     -0.259000
      6 C6         -9.7220    2.9830    3.2190 c1        1 09D     -0.083000
      7 C7         -7.7700    1.8280    4.3110 c2        1 09D     -0.080000
      8 C8          0.8600   -0.0090    2.1420 c2        1 09D     -0.184000
      9 C9         -7.4410    2.9720    4.9580 c2        1 09D     -0.128000
     10 C10         2.0370    0.3300    1.5090 c2        1 09D      0.131000
     11 C11        -8.2420    4.1700    4.7770 c2        1 09D     -0.129000
     12 C12        -8.9290    1.7600    3.3940 c3        1 09D     -0.189000
     13 C13         2.4270    0.8450    3.7210 c2        1 09D      0.303000
     14 C14        -4.4860    1.4650    6.4010 c2        1 09D      0.239000
     15 C15        -5.5590    4.3500    5.9310 c3        1 09D     -0.181000
     16 C16        -0.0140    1.1950    4.2190 c3        1 09D     -0.239000
     17 C17        -2.8070   -0.9940    5.2880 c1        1 09D     -0.017000
     18 C18        -6.4660    5.4250    6.4600 c3        1 09D     -0.322000
     19 C19        -6.2760    3.0030    5.9070 c3        1 09D      0.065000
     20 C20        -1.2980    0.7010    4.7400 c1        1 09D      0.045000
     21 C21         1.0050    0.2460    3.6280 c3        1 09D     -0.104000
     22 N22         2.9970    0.8000    2.4350 ns        1 09D     -0.336000
     23 N23        -1.6310   -0.6180    4.7670 n7        1 09D     -0.202000
     24 O24         2.9990    1.2690    4.7290 o         1 09D     -0.313000
     25 O26        -5.3450    1.9950    5.4770 os        1 09D     -0.293000
     26 S27        -7.9330    5.6380    5.5060 ss        1 09D      0.335000
     27 Br2       -10.1660    0.3770    3.9910 br        1 09D      0.027000
     28 H1         -1.2760   -0.1660    2.0570 ha        1 09D      0.122000
     29 H2         -1.3830   -1.6750    0.1040 ha        1 09D      0.120000
     30 H3          0.4670   -1.7310   -0.0010 ha        1 09D      0.120000
     31 H4          1.4120    0.2410   -0.5480 ha        1 09D      0.218000
     32 H6         -8.5870    1.4280    2.3730 h1        1 09D      0.176000
     33 H8         -5.1940    4.6040    4.9030 hc        1 09D      0.115500
     34 H9         -4.6580    4.2520    6.5970 hc        1 09D      0.115500
     35 H10         0.4570    1.7400    5.0960 hc        1 09D      0.162000
     36 H11        -0.2840    1.9890    3.4620 hc        1 09D      0.162000
     37 H12         1.0360   -0.7290    4.1860 hc        1 09D      0.129000
     38 H13        -2.9800   -2.0940    5.2660 ha        1 09D      0.043000
     39 H14        -6.7430    5.2060    7.5220 h1        1 09D      0.127000
     40 H15        -5.9470    6.4170    6.4400 h1        1 09D      0.127000
     41 H16        -6.6360    2.7470    6.9470 h1        1 09D      0.123000
     42 H17        -3.8350    0.6800    5.9340 h5        1 09D      0.252000
     43 H18         3.8380    1.2490    2.1760 hn        1 09D      0.256000
     44 H19        -0.9910   -1.3050    4.3880 hn        1 09D      0.137000
     45 H7         -7.1660    0.9140    4.4430 ha        1 09D      0.156000
     46 O25        -4.5320    1.8870    7.5550 o         1 09D     -0.372000
     47 H5         -9.9590    5.0300    3.8080 ha        1 09D      0.155000
@<TRIPOS>BOND
     1    1    3 1   
     2    1   29 1   
     3    1   30 1   
     4    2    4 1   
     5    3    8 1   
     6    3   28 1   
     7    4   10 1   
     8    4   31 1   
     9    5    6 1   
    10    5   11 1   
    11    5   47 1   
    12    6   12 1   
    13    7    9 1   
    14    7   12 1   
    15    7   45 1   
    16    8   10 1   
    17    8   21 1   
    18    9   11 1   
    19    9   19 1   
    20   10   22 1   
    21   11   26 1   
    22   12   27 1   
    23   12   32 1   
    24   13   21 1   
    25   13   22 1   
    26   13   24 1   
    27   14   25 1   
    28   14   42 1   
    29   14   46 1   
    30   15   18 1   
    31   15   19 1   
    32   15   33 1   
    33   15   34 1   
    34   16   20 1   
    35   16   21 1   
    36   16   35 1   
    37   16   36 1   
    38   17   23 1   
    39   17   38 1   
    40   18   26 1   
    41   18   39 1   
    42   18   40 1   
    43   19   25 1   
    44   19   41 1   
    45   20   23 1   
    46   21   37 1   
    47   22   43 1   
    48   23   44 1   
@<TRIPOS>SUBSTRUCTURE
     1 09D         1 TEMP              0 ****  ****    0 ROOT
