@<TRIPOS>MOLECULE
09D
   47    51     1     0     0
SMALL
bcc


@<TRIPOS>ATOM
      1 C1         -5.7690   -1.6590    2.3120 ca        1 09D     -0.162000
      2 C2         -6.5200   -0.5570    2.7070 ca        1 09D     -0.090000
      3 C3         -4.7510   -1.5300    1.3540 ca        1 09D     -0.071000
      4 C4         -6.2920    0.7150    2.1680 ca        1 09D     -0.166000
      5 C5          4.9120    1.5390    1.2150 ca        1 09D     -0.129000
      6 C6          4.9630    0.3150    1.8690 ca        1 09D     -0.082000
      7 C7          2.9730   -0.3850    0.6900 ca        1 09D     -0.062000
      8 C8         -4.5050   -0.2870    0.8090 ca        1 09D     -0.142300
      9 C9          2.9180    0.8490    0.0310 ca        1 09D     -0.104300
     10 C10        -5.2820    0.8480    1.2170 ca        1 09D      0.062600
     11 C11         3.8930    1.8230    0.2920 ca        1 09D      0.025900
     12 C12         3.9880   -0.6540    1.6080 ca        1 09D     -0.043900
     13 C13        -3.8020    1.6730   -0.3420 c         1 09D      0.702500
     14 C14        -0.2150   -0.0060   -1.5440 c         1 09D      0.614100
     15 C15         1.4350    2.5690   -1.0750 c3        1 09D     -0.104400
     16 C16        -2.0460   -0.0850    0.1930 c3        1 09D     -0.066400
     17 C17        -3.6740   -0.5530   -1.5830 c3        1 09D      0.168800
     18 C18         2.5930    3.4210   -1.5110 c3        1 09D     -0.035300
     19 C19         1.8420    1.1010   -0.9840 c3        1 09D      0.194400
     20 C20        -1.3810   -0.8150   -0.9970 c3        1 09D      0.127500
     21 C21        -3.5000    0.1540   -0.2200 c3        1 09D     -0.083700
     22 N22        -4.8570    1.9960    0.5270 n         1 09D     -0.478100
     23 N23        -2.4000   -1.1290   -1.9980 n3        1 09D     -0.797200
     24 O24        -3.2320    2.4920   -1.0690 o         1 09D     -0.599500
     25 O26         0.6860    0.3340   -0.5750 os        1 09D     -0.431900
     26 S27         3.9690    3.3600   -0.4070 ss        1 09D     -0.164000
     27 BR2         4.0470   -2.3060    2.4850 br        1 09D     -0.088100
     28 H1         -5.9710   -2.6470    2.7520 ha        1 09D      0.138000
     29 H2         -7.3140   -0.6790    3.4600 ha        1 09D      0.136000
     30 H3         -4.1630   -2.4070    1.0450 ha        1 09D      0.145000
     31 H4         -6.8940    1.5750    2.4890 ha        1 09D      0.142000
     32 H6          5.7720    0.1150    2.5890 ha        1 09D      0.149000
     33 H8          1.0400    2.9120   -0.0830 hc        1 09D      0.078200
     34 H9          0.5980    2.6550   -1.8210 hc        1 09D      0.078200
     35 H10        -1.9990   -0.7300    1.1050 hc        1 09D      0.079200
     36 H11        -1.5200    0.8760    0.4170 hc        1 09D      0.079200
     37 H12        -4.4020   -1.4050   -1.4740 h1        1 09D      0.064700
     38 H13        -4.0810    0.1660   -2.3450 h1        1 09D      0.064700
     39 H14         2.9260    3.1230   -2.5360 h1        1 09D      0.083200
     40 H15         2.2870    4.4980   -1.5500 h1        1 09D      0.083200
     41 H16         2.1850    0.7310   -1.9940 h1        1 09D      0.086700
     42 H17        -0.9430   -1.7980   -0.6490 h1        1 09D      0.098700
     43 H18        -5.2430    2.8950    0.6470 hn        1 09D      0.343500
     44 H19        -2.1270   -0.8030   -2.9090 hn        1 09D      0.389800
     45 H7          2.1950   -1.1370    0.4780 ha        1 09D      0.155000
     46 O25        -0.0040    0.3250   -2.7110 o         1 09D     -0.536000
     47 H5          5.6800    2.3020    1.4210 ha        1 09D      0.149000
@<TRIPOS>BOND
     1    1    2 ar  
     2    1    3 ar  
     3    1   28 1   
     4    2    4 ar  
     5    2   29 1   
     6    3    8 ar  
     7    3   30 1   
     8    4   10 ar  
     9    4   31 1   
    10    5    6 ar  
    11    5   11 ar  
    12    5   47 1   
    13    6   12 ar  
    14    6   32 1   
    15    7    9 ar  
    16    7   12 ar  
    17    7   45 1   
    18    8   10 ar  
    19    8   21 1   
    20    9   11 ar  
    21    9   19 1   
    22   10   22 1   
    23   11   26 1   
    24   12   27 1   
    25   13   21 1   
    26   13   22 1   
    27   13   24 2   
    28   14   20 1   
    29   14   25 1   
    30   14   46 2   
    31   15   18 1   
    32   15   19 1   
    33   15   33 1   
    34   15   34 1   
    35   16   20 1   
    36   16   21 1   
    37   16   35 1   
    38   16   36 1   
    39   17   21 1   
    40   17   23 1   
    41   17   37 1   
    42   17   38 1   
    43   18   26 1   
    44   18   39 1   
    45   18   40 1   
    46   19   25 1   
    47   19   41 1   
    48   20   23 1   
    49   20   42 1   
    50   22   43 1   
    51   23   44 1   
@<TRIPOS>SUBSTRUCTURE
     1 09D         1 TEMP              0 ****  ****    0 ROOT
