@<TRIPOS>MOLECULE
09D
   47    47     1     0     0
SMALL
bcc


@<TRIPOS>ATOM
      1 C1          2.7840    0.2030    1.3750 c2        1 09D     -0.226000
      2 C2          0.6830    3.4370    3.2910 c1        1 09D      0.240000
      3 C3          1.6120   -0.4370    1.3130 c2        1 09D     -0.106000
      4 C4          0.7320    2.4050    2.4730 c2        1 09D     -0.447000
      5 C5         -8.2540    4.8790    8.1000 c2        1 09D     -0.245000
      6 C6         -8.7070    3.7730    8.8510 c1        1 09D     -0.050000
      7 C7         -7.0040    2.4320    7.5810 c2        1 09D     -0.083000
      8 C8          0.4170   -0.0680    2.0150 c2        1 09D     -0.148000
      9 C9         -6.6280    3.5310    6.8770 c2        1 09D     -0.114000
     10 C10         0.0330    1.1450    2.5460 c2        1 09D      0.104000
     11 C11        -7.2500    4.8100    7.1560 c2        1 09D     -0.117000
     12 C12        -8.0530    2.4820    8.6180 c3        1 09D     -0.206000
     13 C13        -1.7110   -0.2620    3.0750 c2        1 09D      0.303000
     14 C14        -4.2760    1.6960    4.8140 c2        1 09D      0.267000
     15 C15        -6.2820    6.0680    4.2720 c1        1 09D     -0.126000
     16 C16        -1.2900   -1.7240    1.0800 c3        1 09D     -0.239000
     17 C17        -0.1800   -4.8560   -0.5530 c1        1 09D      0.035000
     18 C18        -5.5480    6.5050    5.4410 c3        1 09D     -0.367000
     19 C19        -5.5910    3.4300    5.8070 c3        1 09D     -0.015000
     20 C20        -0.4000   -2.7880    0.5380 c1        1 09D      0.059000
     21 C21        -0.6600   -1.0960    2.3080 c3        1 09D     -0.057000
     22 N22        -1.2200    1.0400    3.2030 n         1 09D     -0.336000
     23 N23        -0.9550   -3.8960   -0.0180 n3        1 09D     -0.215000
     24 O24        -2.8010   -0.6510    3.5210 o         1 09D     -0.374000
     25 O26        -5.4110    2.0390    5.4770 os        1 09D     -0.282000
     26 S27        -6.9890    6.3520    6.4960 ss        1 09D      0.351000
     27 BR2        -7.3240    1.9330   10.3400 br        1 09D      0.045000
     28 H1          1.5050   -1.3590    0.7020 ha        1 09D      0.168000
     29 H2          3.6550   -0.1460    0.8060 ha        1 09D      0.112000
     30 H3          2.9630    1.0850    2.0020 ha        1 09D      0.112000
     31 H4          1.4160    2.4900    1.5940 ha        1 09D      0.215000
     32 H6         -8.8590    1.7270    8.3840 h1        1 09D      0.187000
     33 H8         -5.9160    3.9580    4.8630 h1        1 09D      0.132000
     34 H9         -6.7190    6.8380    3.6240 ha        1 09D      0.069000
     35 H10        -2.3340   -2.0570    1.3460 hc        1 09D      0.117500
     36 H11        -1.3820   -0.9520    0.2630 hc        1 09D      0.117500
     37 H12        -0.2600   -1.8890    2.9940 hc        1 09D      0.148000
     38 H13        -0.7810   -5.7060   -0.9640 ha        1 09D      0.013000
     39 H14        -4.6870    5.8460    5.7010 h1        1 09D      0.135500
     40 H15        -5.2040    7.5670    5.5080 h1        1 09D      0.135500
     41 H16        -4.6110    3.8430    6.1710 h1        1 09D      0.132000
     42 H17        -4.2520    0.6110    4.5800 h5        1 09D      0.218000
     43 H18        -1.7240    1.8110    3.5730 hn        1 09D      0.279000
     44 H19        -1.9650   -3.9900   -0.0170 hn        1 09D      0.123000
     45 H7         -6.5420    1.4500    7.3750 ha        1 09D      0.164000
     46 O25        -3.4420    2.5670    4.5580 o         1 09D     -0.389000
     47 H5         -8.7430    5.8480    8.3130 ha        1 09D      0.162000
@<TRIPOS>BOND
     1    1    3 1   
     2    1   29 1   
     3    1   30 1   
     4    2    4 1   
     5    3    8 1   
     6    3   28 1   
     7    4   10 1   
     8    4   31 1   
     9    5    6 1   
    10    5   11 1   
    11    5   47 1   
    12    6   12 1   
    13    7    9 1   
    14    7   12 1   
    15    7   45 1   
    16    8   10 1   
    17    8   21 1   
    18    9   11 1   
    19    9   19 1   
    20   10   22 1   
    21   11   26 1   
    22   12   27 1   
    23   12   32 1   
    24   13   21 1   
    25   13   22 1   
    26   13   24 1   
    27   14   25 1   
    28   14   42 1   
    29   14   46 1   
    30   15   18 1   
    31   15   34 1   
    32   16   20 1   
    33   16   21 1   
    34   16   35 1   
    35   16   36 1   
    36   17   23 1   
    37   17   38 1   
    38   18   26 1   
    39   18   39 1   
    40   18   40 1   
    41   19   25 1   
    42   19   33 1   
    43   19   41 1   
    44   20   23 1   
    45   21   37 1   
    46   22   43 1   
    47   23   44 1   
@<TRIPOS>SUBSTRUCTURE
     1 09D         1 TEMP              0 ****  ****    0 ROOT
