@<TRIPOS>MOLECULE
09D
   47    42     1     0     0
SMALL
bcc


@<TRIPOS>ATOM
      1 C1          2.8770   -2.0120   -4.1700 c1        1 09D     -0.118000
      2 C2          4.2920   -2.0330   -4.1510 c1        1 09D     -0.118000
      3 C3          2.1720   -1.9440   -2.9860 c1        1 09D     -0.118000
      4 C4          4.9810   -1.9840   -2.9270 c1        1 09D     -0.118000
      5 C5         -5.2340    3.5470    1.2840 c1        1 09D     -0.118000
      6 C6         -6.1700    2.5010    1.0680 c1        1 09D     -0.118000
      7 C7         -4.3580    0.8450    1.1530 c1        1 09D     -0.061000
      8 C8          2.8590   -1.8950   -1.7660 c1        1 09D     -0.143000
      9 C9         -3.4470    1.8610    1.3630 c1        1 09D     -0.096000
     10 C10         4.2870   -1.9160   -1.7540 c1        1 09D      0.075000
     11 C11        -3.9060    3.2580    1.4290 c1        1 09D     -0.202000
     12 C12        -5.7280    1.1470    1.0040 c1        1 09D     -0.184000
     13 C13         3.5880   -1.8490    0.5050 c1        1 09D      0.317000
     14 C14        -0.4120   -0.2640    0.9440 c1        1 09D      0.317000
     15 C15        -0.8430    2.7710    1.6120 c3        1 09D     -0.181000
     16 C16         1.5200   -0.5780   -0.1210 c3        1 09D     -0.158000
     17 C17         1.4990   -3.0840   -0.0660 c3        1 09D     -0.068000
     18 C18        -1.3460    3.9420    2.3120 c3        1 09D     -0.297000
     19 C19        -1.7540    1.5580    1.5680 c3        1 09D      0.076000
     20 C20         0.2680   -1.0110   -0.0280 c2        1 09D     -0.022000
     21 C21         2.4000   -1.8570   -0.3710 c2        1 09D     -0.050000
     22 N22         4.7440   -1.8990   -0.3290 n3        1 09D     -0.335000
     23 N23         0.4690   -2.6180    0.5220 n3        1 09D     -0.273000
     24 O24         3.5820   -1.7960    1.6940 o         1 09D     -0.306000
     25 O25        -0.1600   -0.4310    2.1320 o         1 09D     -0.341000
     26 O26        -1.3410    0.7470    0.5460 os        1 09D     -0.268000
     27 S27        -2.7410    4.4550    1.8810 ss        1 09D      0.242000
     28 BR2        -7.1040   -0.0940    0.6810 br        1 09D      0.050000
     29 H1          2.4070   -2.0460   -5.0090 ha        1 09D      0.140833
     30 H2          4.8130   -2.0820   -5.0240 ha        1 09D      0.140833
     31 H3          1.1900   -1.9300   -2.9980 ha        1 09D      0.140833
     32 H4          5.9640   -1.9980   -2.9160 ha        1 09D      0.140833
     33 H5         -5.5270    4.4360    1.3250 ha        1 09D      0.140833
     34 H6         -7.0900    2.7030    0.9670 ha        1 09D      0.140833
     35 H8         -0.6420    3.0430    0.6580 hc        1 09D      0.112000
     36 H9          0.0230    2.4960    2.0460 hc        1 09D      0.112000
     37 H10         1.6000   -0.0050   -0.8140 hc        1 09D      0.126500
     38 H11         1.7740   -0.1630    0.6650 hc        1 09D      0.126500
     39 H12         1.9780   -3.7250    0.5320 h1        1 09D      0.113000
     40 H13         1.2310   -3.5430   -0.9290 h1        1 09D      0.113000
     41 H14        -1.4070    3.7010    3.2900 h1        1 09D      0.121500
     42 H15        -0.6950    4.6810    2.1710 h1        1 09D      0.121500
     43 H16        -1.6340    1.0470    2.4440 h1        1 09D      0.128000
     44 H17        -0.3130   -0.8730   -0.8090 h4        1 09D      0.109000
     45 H18         5.6790   -1.9070   -0.0240 hn        1 09D      0.258000
     46 H19        -0.2900   -3.1300    0.2850 hn        1 09D      0.167000
     47 H7         -4.0560   -0.0690    1.1090 ha        1 09D      0.165000
@<TRIPOS>BOND
     1    1    3 1   
     2    1   29 1   
     3    2    4 1   
     4    2   30 1   
     5    3   31 1   
     6    4   32 1   
     7    5    6 1   
     8    5   33 1   
     9    6   34 1   
    10    7   12 1   
    11    7   47 1   
    12    8   10 1   
    13    8   21 1   
    14    9   11 1   
    15    9   19 1   
    16   10   22 1   
    17   11   27 1   
    18   13   22 1   
    19   13   24 1   
    20   14   25 1   
    21   14   26 1   
    22   15   18 1   
    23   15   19 1   
    24   15   35 1   
    25   15   36 1   
    26   16   20 1   
    27   16   21 1   
    28   16   37 1   
    29   16   38 1   
    30   17   21 1   
    31   17   23 1   
    32   17   39 1   
    33   17   40 1   
    34   18   27 1   
    35   18   41 1   
    36   18   42 1   
    37   19   26 1   
    38   19   43 1   
    39   20   23 1   
    40   20   44 1   
    41   22   45 1   
    42   23   46 1   
@<TRIPOS>SUBSTRUCTURE
     1 09D         1 TEMP              0 ****  ****    0 ROOT
