@<TRIPOS>MOLECULE
09E
   49    45     1     0     0
SMALL
bcc


@<TRIPOS>ATOM
      1 C1         -2.7620    1.7130    2.6740 c1        1 09E     -0.144000
      2 C2         -1.2580    1.6570    2.6940 c2        1 09E     -0.050000
      3 C3         -3.6760    1.7790    1.6320 c1        1 09E     -0.076000
      4 C4         -0.7390    0.3540    1.9330 c3        1 09E     -0.158000
      5 C5         -5.0330    1.7920    1.8990 c1        1 09E     -0.125000
      6 C6         -4.5660    1.6730    4.2730 c1        1 09E     -0.166000
      7 C7         -0.2320    0.7810    0.7620 c3        1 09E     -0.020000
      8 C8         -5.4860    1.7390    3.2170 c1        1 09E     -0.125000
      9 C9          0.8650   -0.0500    0.2260 c2        1 09E      0.317000
     10 N1          0.2290    2.3920    1.1630 n3        1 09E     -0.275000
     11 O1          1.8870   -0.1580    0.8430 o         1 09E     -0.336000
     12 C10        -0.6740    2.8610    1.9590 c3        1 09E     -0.069000
     13 C11        -0.8190    1.6470    4.0930 c2        1 09E      0.317000
     14 O2          0.3110    1.6190    4.4750 o         1 09E     -0.307000
     15 N2         -1.9930    1.5930    4.9230 n         1 09E     -0.334000
     16 C12        -3.2180    1.6600    4.0100 c2        1 09E      0.075000
     17 C13         1.7320   -1.5730   -1.3850 c3        1 09E      0.057000
     18 C14         1.0000   -2.8740   -1.4180 c3        1 09E     -0.153000
     19 O3          0.7840   -0.5570   -1.1020 os        1 09E     -0.267000
     20 C15         1.6710   -4.0360   -2.0300 c3        1 09E     -0.856000
     21 S1          2.2110   -3.7330   -3.5700 s4        1 09E      2.063800
     22 C16         2.7530   -2.0680   -3.7980 c1        1 09E     -0.450000
     23 C17         2.5650   -1.1170   -2.7270 c1        1 09E      0.038000
     24 C18         3.0540    0.1830   -2.8550 c1        1 09E     -0.110000
     25 C19         3.7350    0.5720   -4.0340 c1        1 09E     -0.450000
     26 C20         3.9210   -0.3590   -5.0840 c1        1 09E     -0.076000
     27 C21         3.4220   -1.6870   -4.9550 c1        1 09E     -0.076000
     28 BR1         4.4970    2.3720   -4.1740 br        1 09E      0.073000
     29 O4          3.2360   -4.6530   -3.9430 o         1 09E     -0.536900
     30 O5          1.1600   -4.0250   -4.5020 o         1 09E     -0.536900
     31 H1         -3.3520    1.8180    0.6830 ha        1 09E      0.133000
     32 H2         -0.0340   -0.0980    2.4680 hc        1 09E      0.127500
     33 H3         -1.4600   -0.2410    1.7760 hc        1 09E      0.127500
     34 H4         -5.7010    1.8410    1.1330 ha        1 09E      0.138000
     35 H5         -4.8760    1.6380    5.1720 ha        1 09E      0.143000
     36 H6         -0.8680    0.7480    0.0600 h1        1 09E      0.112000
     37 H7         -6.4220    1.7480    3.3990 ha        1 09E      0.138000
     38 H8          0.2590    2.9010    0.4010 hn        1 09E      0.168000
     39 H10        -1.3740    3.3120    1.4450 h1        1 09E      0.113000
     40 H11        -0.2640    3.4910    2.6090 h1        1 09E      0.113000
     41 H12        -2.0040    1.5760    5.8620 hn        1 09E      0.258000
     42 H13         2.3910   -1.6090   -0.6120 h1        1 09E      0.135000
     43 H14         0.7720   -3.1230   -0.4510 hc        1 09E      0.118500
     44 H15         0.1570   -2.7290   -1.8990 hc        1 09E      0.118500
     45 H16         2.3790   -4.4340   -1.5410 h1        1 09E      0.163500
     46 H17         0.9660   -4.7730   -2.0440 h1        1 09E      0.163500
     47 H18         2.9170    0.8640   -2.0890 ha        1 09E      0.172000
     48 H19         4.3870   -0.0920   -5.8900 ha        1 09E      0.158500
     49 H20         3.5490   -2.3330   -5.6830 ha        1 09E      0.158500
@<TRIPOS>BOND
     1    1    3 1   
     2    1   16 1   
     3    2    4 1   
     4    2   12 1   
     5    2   13 1   
     6    3   31 1   
     7    4    7 1   
     8    4   32 1   
     9    4   33 1   
    10    5    8 1   
    11    5   34 1   
    12    6   16 1   
    13    6   35 1   
    14    7    9 1   
    15    7   10 1   
    16    7   36 1   
    17    8   37 1   
    18    9   11 1   
    19    9   19 1   
    20   10   12 1   
    21   10   38 1   
    22   12   39 1   
    23   12   40 1   
    24   13   14 1   
    25   13   15 1   
    26   15   16 1   
    27   15   41 1   
    28   17   18 1   
    29   17   19 1   
    30   17   23 1   
    31   17   42 1   
    32   18   20 1   
    33   18   43 1   
    34   18   44 1   
    35   20   21 1   
    36   20   45 1   
    37   20   46 1   
    38   21   29 1   
    39   21   30 1   
    40   22   27 1   
    41   23   24 1   
    42   24   47 1   
    43   25   26 1   
    44   26   48 1   
    45   27   49 1   
@<TRIPOS>SUBSTRUCTURE
     1 09E         1 TEMP              0 ****  ****    0 ROOT
