@<TRIPOS>MOLECULE
09E
   49    53     1     0     0
SMALL
bcc


@<TRIPOS>ATOM
      1 C1         -0.0490    0.0530    0.0620 ca        1 09E     -0.151300
      2 C2          1.4340   -0.1990    0.1060 c3        1 09E     -0.092700
      3 C3         -0.9680   -0.1160   -0.9530 ca        1 09E     -0.076000
      4 C4          1.8250   -1.6490   -0.1910 c3        1 09E     -0.079400
      5 C5         -2.3120    0.2040   -0.7110 ca        1 09E     -0.162000
      6 C6         -1.8080    0.8620    1.5780 ca        1 09E     -0.166000
      7 C7          2.4780   -1.6190   -1.5930 c3        1 09E      0.127500
      8 C8         -2.7190    0.6830    0.5300 ca        1 09E     -0.088000
      9 C9          3.7950   -2.3820   -1.5850 c         1 09E      0.646100
     10 N1          2.6920   -0.2260   -1.9920 n3        1 09E     -0.796200
     11 O1          4.4180   -2.8520   -0.6360 o         1 09E     -0.525000
     12 C10         2.2360    0.6440   -0.9150 c3        1 09E      0.167800
     13 C11         1.7970    0.2070    1.5570 c         1 09E      0.709500
     14 O2          2.9120    0.1850    2.0850 o         1 09E     -0.582500
     15 N2          0.6270    0.6340    2.2110 n         1 09E     -0.480100
     16 C12        -0.4720    0.5460    1.3420 ca        1 09E      0.067600
     17 C13         5.5540   -3.2200   -2.9940 c3        1 09E      0.175400
     18 C14         5.3450   -4.7290   -2.9960 c3        1 09E     -0.074400
     19 O3          4.2700   -2.5770   -2.8550 os        1 09E     -0.428900
     20 C15         6.6170   -5.4370   -3.3810 c3        1 09E     -0.316600
     21 S1          7.0300   -5.1920   -5.0160 sy        1 09E      1.383300
     22 C16         6.8880   -3.5150   -5.1300 ca        1 09E     -0.343500
     23 C17         6.1730   -2.6860   -4.2560 ca        1 09E      0.030700
     24 C18         6.0680   -1.3110   -4.5050 ca        1 09E     -0.110000
     25 C19         6.6910   -0.7480   -5.6190 ca        1 09E      0.028100
     26 C20         7.4340   -1.5580   -6.4830 ca        1 09E     -0.122000
     27 C21         7.5250   -2.9220   -6.2320 ca        1 09E     -0.030000
     28 BR1         6.5420    1.0880   -5.9510 br        1 09E     -0.067100
     29 O4          8.3650   -5.5670   -5.2160 o         1 09E     -0.649300
     30 O5          6.0820   -5.8200   -5.8330 o         1 09E     -0.649300
     31 H1         -0.6580   -0.4950   -1.9370 ha        1 09E      0.133000
     32 H2          0.9320   -2.3190   -0.1940 hc        1 09E      0.088200
     33 H3          2.5540   -2.0210    0.5760 hc        1 09E      0.088200
     34 H4         -3.0500    0.0730   -1.5160 ha        1 09E      0.138000
     35 H5         -2.1440    1.2390    2.5530 ha        1 09E      0.143000
     36 H6          1.8160   -2.1580   -2.3340 h1        1 09E      0.072700
     37 H7         -3.7790    0.9280    0.7000 ha        1 09E      0.138000
     38 H8          2.2150   -0.0340   -2.8510 hn        1 09E      0.372800
     39 H10         3.1520    1.0620   -0.4100 h1        1 09E      0.073700
     40 H11         1.6170    1.4950   -1.3050 h1        1 09E      0.073700
     41 H12         0.5750    0.9330    3.1500 hn        1 09E      0.344500
     42 H13         6.2120   -2.9280   -2.1220 h1        1 09E      0.095700
     43 H15         4.5200   -5.0000   -3.7100 hc        1 09E      0.079200
     44 H16         7.4440   -5.1210   -2.6900 h1        1 09E      0.124200
     45 H17         6.4800   -6.5370   -3.1850 h1        1 09E      0.124200
     46 H18         5.4790   -0.6870   -3.8110 ha        1 09E      0.172000
     47 H19         7.9450   -1.1280   -7.3590 ha        1 09E      0.158000
     48 H20         8.1200   -3.5580   -6.9130 ha        1 09E      0.159000
     49 H14         5.0160   -5.0370   -1.9680 hc        1 09E      0.079200
@<TRIPOS>BOND
     1    1    2 1   
     2    1    3 ar  
     3    1   16 ar  
     4    2    4 1   
     5    2   12 1   
     6    2   13 1   
     7    3    5 ar  
     8    3   31 1   
     9    4    7 1   
    10    4   32 1   
    11    4   33 1   
    12    5    8 ar  
    13    5   34 1   
    14    6    8 ar  
    15    6   16 ar  
    16    6   35 1   
    17    7    9 1   
    18    7   10 1   
    19    7   36 1   
    20    8   37 1   
    21    9   11 2   
    22    9   19 1   
    23   10   12 1   
    24   10   38 1   
    25   12   39 1   
    26   12   40 1   
    27   13   14 2   
    28   13   15 1   
    29   15   16 1   
    30   15   41 1   
    31   17   18 1   
    32   17   19 1   
    33   17   23 1   
    34   17   42 1   
    35   18   20 1   
    36   18   43 1   
    37   18   49 1   
    38   20   21 1   
    39   20   44 1   
    40   20   45 1   
    41   21   22 1   
    42   21   29 2   
    43   21   30 2   
    44   22   23 ar  
    45   22   27 ar  
    46   23   24 ar  
    47   24   25 ar  
    48   24   46 1   
    49   25   26 ar  
    50   25   28 1   
    51   26   27 ar  
    52   26   47 1   
    53   27   48 1   
@<TRIPOS>SUBSTRUCTURE
     1 09E         1 TEMP              0 ****  ****    0 ROOT
