@<TRIPOS>MOLECULE
09E
   49    53     1     0     0
SMALL
bcc


@<TRIPOS>ATOM
      1 C1          5.0630    0.1540   -0.7230 ca        1 09E     -0.143300
      2 C2          3.9080    0.0520    0.2350 c3        1 09E     -0.083700
      3 C3          5.3980   -0.6170   -1.8170 ca        1 09E     -0.071000
      4 C4          2.5370    0.1880   -0.4290 c3        1 09E     -0.065400
      5 C5          6.5530   -0.2920   -2.5450 ca        1 09E     -0.161000
      6 C6          7.0340    1.5820   -1.0650 ca        1 09E     -0.165000
      7 C7          1.6960   -1.0030    0.0820 c3        1 09E      0.130500
      8 C8          7.3510    0.7850   -2.1730 ca        1 09E     -0.089000
      9 C9          0.4720   -0.5210    0.8460 c         1 09E      0.613100
     10 N1          2.5560   -1.8970    0.8560 n3        1 09E     -0.798200
     11 O1          0.0720   -0.8910    1.9500 o         1 09E     -0.535000
     12 C10         3.8730   -1.2880    1.0050 c3        1 09E      0.168800
     13 C11         4.1780    1.2380    1.2010 c         1 09E      0.702500
     14 O2          3.4940    1.5830    2.1700 o         1 09E     -0.599500
     15 N2          5.3540    1.8920    0.7970 n         1 09E     -0.478100
     16 C12         5.8880    1.2640   -0.3400 ca        1 09E      0.061600
     17 C13        -1.4050    0.9990    0.7750 c3        1 09E      0.172400
     18 C14        -1.2410    2.5010    0.5550 c3        1 09E     -0.062400
     19 O3         -0.2520    0.4030    0.1450 os        1 09E     -0.428900
     20 C15        -2.5300    3.2280    0.8340 c3        1 09E     -0.316600
     21 S1         -3.7140    2.8930   -0.3460 sy        1 09E      1.386300
     22 C16        -3.7090    1.2090   -0.2900 ca        1 09E     -0.342500
     23 C17        -2.6540    0.4120    0.1730 ca        1 09E      0.020700
     24 C18        -2.7590   -0.9850    0.1450 ca        1 09E     -0.118000
     25 C19        -3.9090   -1.6000   -0.3500 ca        1 09E      0.032100
     26 C20        -4.9730   -0.8150   -0.8060 ca        1 09E     -0.122000
     27 C21        -4.8650    0.5700   -0.7660 ca        1 09E     -0.028000
     28 BR1        -4.0310   -3.4670   -0.3950 br        1 09E     -0.064100
     29 O4         -4.9550    3.3760    0.0900 o         1 09E     -0.648800
     30 O5         -3.2750    3.3520   -1.5920 o         1 09E     -0.648800
     31 H1          4.7740   -1.4720   -2.1160 ha        1 09E      0.145000
     32 H2          2.0510    1.1620   -0.1710 hc        1 09E      0.079700
     33 H3          2.6350    0.1300   -1.5420 hc        1 09E      0.079700
     34 H4          6.8270   -0.9010   -3.4190 ha        1 09E      0.139000
     35 H5          7.6750    2.4290   -0.7840 ha        1 09E      0.143000
     36 H6          1.2980   -1.5990   -0.7940 h1        1 09E      0.100700
     37 H7          8.2530    1.0240   -2.7570 ha        1 09E      0.137000
     38 H8          2.1470   -2.1170    1.7470 hn        1 09E      0.390800
     39 H10         4.6190   -2.0000    0.5560 h1        1 09E      0.065700
     40 H11         4.1440   -1.1230    2.0840 h1        1 09E      0.065700
     41 H12         5.7510    2.6780    1.2400 hn        1 09E      0.344500
     42 H13        -1.4080    0.7680    1.8810 h1        1 09E      0.104700
     43 H15        -0.9110    2.6950   -0.5030 hc        1 09E      0.080200
     44 H16        -2.8870    2.9790    1.8690 h1        1 09E      0.123700
     45 H17        -2.3130    4.3310    0.8580 h1        1 09E      0.123700
     46 H18        -1.9190   -1.5880    0.5310 ha        1 09E      0.162000
     47 H19        -5.8930   -1.2820   -1.1910 ha        1 09E      0.159000
     48 H20        -5.7160    1.1880   -1.1090 ha        1 09E      0.160000
     49 H14        -0.4250    2.8700    1.2290 hc        1 09E      0.080200
@<TRIPOS>BOND
     1    1    2 1   
     2    1    3 ar  
     3    1   16 ar  
     4    2    4 1   
     5    2   12 1   
     6    2   13 1   
     7    3    5 ar  
     8    3   31 1   
     9    4    7 1   
    10    4   32 1   
    11    4   33 1   
    12    5    8 ar  
    13    5   34 1   
    14    6    8 ar  
    15    6   16 ar  
    16    6   35 1   
    17    7    9 1   
    18    7   10 1   
    19    7   36 1   
    20    8   37 1   
    21    9   11 2   
    22    9   19 1   
    23   10   12 1   
    24   10   38 1   
    25   12   39 1   
    26   12   40 1   
    27   13   14 2   
    28   13   15 1   
    29   15   16 1   
    30   15   41 1   
    31   17   18 1   
    32   17   19 1   
    33   17   23 1   
    34   17   42 1   
    35   18   20 1   
    36   18   43 1   
    37   18   49 1   
    38   20   21 1   
    39   20   44 1   
    40   20   45 1   
    41   21   22 1   
    42   21   29 2   
    43   21   30 2   
    44   22   23 ar  
    45   22   27 ar  
    46   23   24 ar  
    47   24   25 ar  
    48   24   46 1   
    49   25   26 ar  
    50   25   28 1   
    51   26   27 ar  
    52   26   47 1   
    53   27   48 1   
@<TRIPOS>SUBSTRUCTURE
     1 09E         1 TEMP              0 ****  ****    0 ROOT
