@<TRIPOS>MOLECULE
09E
   49    53     1     0     0
SMALL
bcc


@<TRIPOS>ATOM
      1 C1         -0.0560    0.0460    0.0620 ca        1 09E     -0.151300
      2 C2          1.4280   -0.2000    0.1060 c3        1 09E     -0.092700
      3 C3         -0.9750   -0.1260   -0.9530 ca        1 09E     -0.076000
      4 C4          1.8230   -1.6490   -0.1910 c3        1 09E     -0.079400
      5 C5         -2.3210    0.1890   -0.7120 ca        1 09E     -0.162000
      6 C6         -1.8190    0.8490    1.5780 ca        1 09E     -0.166000
      7 C7          2.4770   -1.6170   -1.5930 c3        1 09E      0.127500
      8 C8         -2.7290    0.6660    0.5290 ca        1 09E     -0.088000
      9 C9          3.7960   -2.3750   -1.5850 c         1 09E      0.646100
     10 N1          2.6850   -0.2230   -1.9920 n7        1 09E     -0.796200
     11 O1          4.4210   -2.8410   -0.6360 o         1 09E     -0.525000
     12 C10         2.2260    0.6450   -0.9150 c3        1 09E      0.167800
     13 C11         1.7880    0.2080    1.5570 c         1 09E      0.709500
     14 O2          2.9030    0.1900    2.0840 o         1 09E     -0.582500
     15 N2          0.6170    0.6300    2.2110 ns        1 09E     -0.480100
     16 C12        -0.4810    0.5380    1.3420 ca        1 09E      0.067600
     17 C13         5.5570   -3.2080   -2.9940 c3        1 09E      0.175400
     18 C14         5.3530   -4.7180   -2.9940 c3        1 09E     -0.074400
     19 O3          4.2710   -2.5700   -2.8550 os        1 09E     -0.428900
     20 C15         6.6270   -5.4220   -3.3790 c3        1 09E     -0.316600
     21 S1          7.0370   -5.1780   -5.0150 sy        1 09E      1.383300
     22 C16         6.8890   -3.5020   -5.1320 ca        1 09E     -0.343500
     23 C17         6.1720   -2.6740   -4.2580 ca        1 09E      0.030700
     24 C18         6.0630   -1.3000   -4.5090 ca        1 09E     -0.110000
     25 C19         6.6830   -0.7360   -5.6240 ca        1 09E      0.028100
     26 C20         7.4270   -1.5460   -6.4880 ca        1 09E     -0.122000
     27 C21         7.5230   -2.9090   -6.2350 ca        1 09E     -0.030000
     28 Br1         6.5270    1.0990   -5.9590 br        1 09E     -0.067100
     29 O4          8.3730   -5.5490   -5.2170 o         1 09E     -0.649300
     30 O5          6.0900   -5.8100   -5.8300 o         1 09E     -0.649300
     31 H1         -0.6630   -0.5050   -1.9370 ha        1 09E      0.133000
     32 H2          0.9330   -2.3220   -0.1930 hc        1 09E      0.088200
     33 H3          2.5550   -2.0180    0.5760 hc        1 09E      0.088200
     34 H4         -3.0580    0.0550   -1.5170 ha        1 09E      0.138000
     35 H5         -2.1570    1.2250    2.5530 ha        1 09E      0.143000
     36 H6          1.8160   -2.1580   -2.3340 h1        1 09E      0.072700
     37 H7         -3.7900    0.9070    0.6990 ha        1 09E      0.138000
     38 H8          2.2070   -0.0320   -2.8510 hn        1 09E      0.372800
     39 H10         3.1410    1.0670   -0.4100 h1        1 09E      0.073700
     40 H11         1.6050    1.4940   -1.3050 h1        1 09E      0.073700
     41 H12         0.5640    0.9290    3.1490 hn        1 09E      0.344500
     42 H13         6.2150   -2.9120   -2.1230 h1        1 09E      0.095700
     43 H15         5.0260   -5.0250   -1.9650 hc        1 09E      0.079200
     44 H16         6.4940   -6.5220   -3.1820 h1        1 09E      0.124200
     45 H17         7.4540   -5.1020   -2.6900 h1        1 09E      0.124200
     46 H18         5.4730   -0.6770   -3.8140 ha        1 09E      0.172000
     47 H19         7.9360   -1.1140   -7.3650 ha        1 09E      0.158000
     48 H20         8.1190   -3.5430   -6.9170 ha        1 09E      0.159000
     49 H14         4.5290   -4.9930   -3.7060 hc        1 09E      0.079200
@<TRIPOS>BOND
     1    1    2 1   
     2    1    3 ar  
     3    1   16 ar  
     4    2    4 1   
     5    2   12 1   
     6    2   13 1   
     7    3    5 ar  
     8    3   31 1   
     9    4    7 1   
    10    4   32 1   
    11    4   33 1   
    12    5    8 ar  
    13    5   34 1   
    14    6    8 ar  
    15    6   16 ar  
    16    6   35 1   
    17    7    9 1   
    18    7   10 1   
    19    7   36 1   
    20    8   37 1   
    21    9   11 2   
    22    9   19 1   
    23   10   12 1   
    24   10   38 1   
    25   12   39 1   
    26   12   40 1   
    27   13   14 2   
    28   13   15 1   
    29   15   16 1   
    30   15   41 1   
    31   17   18 1   
    32   17   19 1   
    33   17   23 1   
    34   17   42 1   
    35   18   20 1   
    36   18   43 1   
    37   18   49 1   
    38   20   21 1   
    39   20   44 1   
    40   20   45 1   
    41   21   22 1   
    42   21   29 2   
    43   21   30 2   
    44   22   23 ar  
    45   22   27 ar  
    46   23   24 ar  
    47   24   25 ar  
    48   24   46 1   
    49   25   26 ar  
    50   25   28 1   
    51   26   27 ar  
    52   26   47 1   
    53   27   48 1   
@<TRIPOS>SUBSTRUCTURE
     1 09E         1 TEMP              0 ****  ****    0 ROOT
