@<TRIPOS>MOLECULE
09E
   49    53     1     0     0
SMALL
bcc


@<TRIPOS>ATOM
      1 C1         -0.0490    0.0490    0.0710 ca        1 09E     -0.151300
      2 C2          1.4350   -0.1990    0.1120 c3        1 09E     -0.092700
      3 C3         -0.9700   -0.1200   -0.9420 ca        1 09E     -0.076000
      4 C4          1.8290   -1.6470   -0.1870 c3        1 09E     -0.079400
      5 C5         -2.3150    0.1960   -0.6980 ca        1 09E     -0.162000
      6 C6         -1.8080    0.8510    1.5920 ca        1 09E     -0.166000
      7 C7          2.4790   -1.6150   -1.5910 c3        1 09E      0.127500
      8 C8         -2.7200    0.6710    0.5450 ca        1 09E     -0.088000
      9 C9          3.7980   -2.3730   -1.5870 c         1 09E      0.646100
     10 N1          2.6880   -0.2200   -1.9890 n3        1 09E     -0.796200
     11 O1          4.4260   -2.8390   -0.6390 o         1 09E     -0.525000
     12 C10         2.2320    0.6470   -0.9100 c3        1 09E      0.167800
     13 C11         1.7990    0.2070    1.5630 c         1 09E      0.709500
     14 O2          2.9140    0.1870    2.0880 o         1 09E     -0.582500
     15 N2          0.6290    0.6290    2.2200 n         1 09E     -0.480100
     16 C12        -0.4710    0.5390    1.3530 ca        1 09E      0.067600
     17 C13         5.5540   -3.2080   -3.0000 c3        1 09E      0.175400
     18 C14         5.3490   -4.7180   -2.9970 c3        1 09E     -0.074400
     19 O3          4.2690   -2.5690   -2.8570 os        1 09E     -0.428900
     20 C15         6.6220   -5.4230   -3.3850 c3        1 09E     -0.316600
     21 S1          7.0250   -5.1830   -5.0240 sy        1 09E      1.383300
     22 C16         6.8780   -3.5070   -5.1420 ca        1 09E     -0.343500
     23 C17         6.1650   -2.6760   -4.2680 ca        1 09E      0.030700
     24 C18         6.0570   -1.3030   -4.5200 ca        1 09E     -0.110000
     25 C19         6.6730   -0.7410   -5.6380 ca        1 09E      0.028100
     26 C20         7.4130   -1.5530   -6.5040 ca        1 09E     -0.122000
     27 C21         7.5080   -2.9150   -6.2490 ca        1 09E     -0.030000
     28 BR1         6.5170    1.0940   -5.9750 br        1 09E     -0.067100
     29 O4          8.3600   -5.5550   -5.2300 o         1 09E     -0.649300
     30 O5          6.0740   -5.8150   -5.8330 o         1 09E     -0.649300
     31 H1         -0.6600   -0.4980   -1.9280 ha        1 09E      0.133000
     32 H2          2.5610   -2.0180    0.5770 hc        1 09E      0.088200
     33 H3          0.9380   -2.3200   -0.1890 hc        1 09E      0.088200
     34 H4         -3.0530    0.0630   -1.5020 ha        1 09E      0.138000
     35 H5         -2.1430    1.2260    2.5670 ha        1 09E      0.143000
     36 H6          1.8170   -2.1540   -2.3310 h1        1 09E      0.072700
     37 H7         -3.7810    0.9130    0.7170 ha        1 09E      0.138000
     38 H8          2.2070   -0.0280   -2.8460 hn        1 09E      0.372800
     39 H10         3.1480    1.0670   -0.4060 h1        1 09E      0.073700
     40 H11         1.6110    1.4980   -1.2970 h1        1 09E      0.073700
     41 H12         0.5780    0.9270    3.1590 hn        1 09E      0.344500
     42 H13         6.2150   -2.9110   -2.1320 h1        1 09E      0.095700
     43 H15         5.0270   -5.0230   -1.9660 hc        1 09E      0.079200
     44 H16         7.4510   -5.1030   -2.7000 h1        1 09E      0.124200
     45 H17         6.4890   -6.5230   -3.1850 h1        1 09E      0.124200
     46 H18         5.4700   -0.6780   -3.8240 ha        1 09E      0.172000
     47 H19         7.9190   -1.1230   -7.3840 ha        1 09E      0.158000
     48 H20         8.1020   -3.5510   -6.9320 ha        1 09E      0.159000
     49 H14         4.5220   -4.9940   -3.7050 hc        1 09E      0.079200
@<TRIPOS>BOND
     1    1    2 1   
     2    1    3 ar  
     3    1   16 ar  
     4    2    4 1   
     5    2   12 1   
     6    2   13 1   
     7    3    5 ar  
     8    3   31 1   
     9    4    7 1   
    10    4   32 1   
    11    4   33 1   
    12    5    8 ar  
    13    5   34 1   
    14    6    8 ar  
    15    6   16 ar  
    16    6   35 1   
    17    7    9 1   
    18    7   10 1   
    19    7   36 1   
    20    8   37 1   
    21    9   11 2   
    22    9   19 1   
    23   10   12 1   
    24   10   38 1   
    25   12   39 1   
    26   12   40 1   
    27   13   14 2   
    28   13   15 1   
    29   15   16 1   
    30   15   41 1   
    31   17   18 1   
    32   17   19 1   
    33   17   23 1   
    34   17   42 1   
    35   18   20 1   
    36   18   43 1   
    37   18   49 1   
    38   20   21 1   
    39   20   44 1   
    40   20   45 1   
    41   21   22 1   
    42   21   29 2   
    43   21   30 2   
    44   22   23 ar  
    45   22   27 ar  
    46   23   24 ar  
    47   24   25 ar  
    48   24   46 1   
    49   25   26 ar  
    50   25   28 1   
    51   26   27 ar  
    52   26   47 1   
    53   27   48 1   
@<TRIPOS>SUBSTRUCTURE
     1 09E         1 TEMP              0 ****  ****    0 ROOT
