@<TRIPOS>MOLECULE
09F
   46    49     1     0     0
SMALL
bcc


@<TRIPOS>ATOM
      1 C24         1.7140   -0.1920    0.0440 c1        1 09F      0.194700
      2 C5         -2.8390   -6.4570   -4.7300 ca        1 09F     -0.163000
      3 C8         -2.0050   -6.9990   -5.7020 ca        1 09F     -0.090000
      4 C3         -2.3080   -5.8800   -3.5660 ca        1 09F     -0.072000
      5 C6         -0.6110   -6.9910   -5.5570 ca        1 09F     -0.168000
      6 C1         -0.9390   -5.8570   -3.4000 ca        1 09F     -0.144300
      7 C17        -0.0800   -6.4190   -4.4030 ca        1 09F      0.064600
      8 C14         1.3450   -5.6490   -2.7660 c         1 09F      0.701500
      9 C9          0.0090   -2.5630    0.1180 c         1 09F      0.626100
     10 C21        -0.3990    2.5060    1.2910 c3        1 09F     -0.082400
     11 C20         0.1950    1.4170    2.1600 c3        1 09F     -0.079400
     12 C22         0.0390    2.3490   -0.1500 c3        1 09F     -0.079400
     13 C19        -0.1550    0.0380    1.6460 c3        1 09F     -0.084900
     14 C23        -0.3240    0.9860   -0.6970 c3        1 09F     -0.084900
     15 C4         -0.2620   -3.8140   -2.0460 c3        1 09F     -0.074400
     16 C13        -0.3810   -5.9920   -0.9180 c3        1 09F      0.167800
     17 C7         -0.7500   -3.6750   -0.5840 c3        1 09F      0.121500
     18 C18         0.2590   -0.1380    0.1800 c3        1 09F      0.246900
     19 C2         -0.0910   -5.3160   -2.2800 c3        1 09F     -0.088700
     20 N25         2.8710   -0.2230   -0.0620 n1        1 09F     -0.340800
     21 N16         1.2630   -6.2870   -4.0160 n         1 09F     -0.479100
     22 N10        -0.6480   -4.9710    0.0900 n3        1 09F     -0.790200
     23 O12         0.8330   -2.6560    1.0260 o         1 09F     -0.517000
     24 O11        -0.3410   -1.3350   -0.3700 os        1 09F     -0.436900
     25 H1         -3.9300   -6.4790   -4.8700 ha        1 09F      0.137000
     26 H2         -2.4410   -7.4470   -6.6080 ha        1 09F      0.136000
     27 H3         -2.9750   -5.4560   -2.8010 ha        1 09F      0.142000
     28 H4          0.0340   -7.4240   -6.3320 ha        1 09F      0.142000
     29 H5         -1.5180    2.4660    1.3500 hc        1 09F      0.045200
     30 H6         -0.0760    3.5090    1.6730 hc        1 09F      0.045200
     31 H7          1.3110    1.5320    2.1950 hc        1 09F      0.051950
     32 H8         -0.1870    1.5220    3.2090 hc        1 09F      0.051950
     33 H9          1.1490    2.4990   -0.2230 hc        1 09F      0.051950
     34 H10        -0.4500    3.1350   -0.7820 hc        1 09F      0.051950
     35 H11        -1.2630   -0.1270    1.7100 hc        1 09F      0.067200
     36 H12         0.3490   -0.7440    2.2720 hc        1 09F      0.067200
     37 H13        -1.4380    0.8610   -0.7180 hc        1 09F      0.067200
     38 H14         0.0550    0.8710   -1.7440 hc        1 09F      0.067200
     39 H15        -1.0170   -3.3790   -2.7450 hc        1 09F      0.077200
     40 H16         0.7070   -3.2750   -2.1940 hc        1 09F      0.077200
     41 H17        -1.3080   -6.6230   -1.0070 h1        1 09F      0.067700
     42 H18         0.4750   -6.6550   -0.6170 h1        1 09F      0.067700
     43 H19        -1.8430   -3.3870   -0.5760 h1        1 09F      0.095700
     44 H20         2.0320   -6.6060   -4.5450 hn        1 09F      0.343500
     45 H21         0.0750   -4.9550    0.7890 hn        1 09F      0.384800
     46 O15         2.4050   -5.4120   -2.1810 o         1 09F     -0.588500
@<TRIPOS>BOND
     1    1   18 1   
     2    1   20 3   
     3    2    3 ar  
     4    2    4 ar  
     5    2   25 1   
     6    3    5 ar  
     7    3   26 1   
     8    4    6 ar  
     9    4   27 1   
    10    5    7 ar  
    11    5   28 1   
    12    6    7 ar  
    13    6   19 1   
    14    7   21 1   
    15    8   19 1   
    16    8   21 1   
    17    8   46 2   
    18    9   17 1   
    19    9   23 2   
    20    9   24 1   
    21   10   11 1   
    22   10   12 1   
    23   10   29 1   
    24   10   30 1   
    25   11   13 1   
    26   11   31 1   
    27   11   32 1   
    28   12   14 1   
    29   12   33 1   
    30   12   34 1   
    31   13   18 1   
    32   13   35 1   
    33   13   36 1   
    34   14   18 1   
    35   14   37 1   
    36   14   38 1   
    37   15   17 1   
    38   15   19 1   
    39   15   39 1   
    40   15   40 1   
    41   16   19 1   
    42   16   22 1   
    43   16   41 1   
    44   16   42 1   
    45   17   22 1   
    46   17   43 1   
    47   18   24 1   
    48   21   44 1   
    49   22   45 1   
@<TRIPOS>SUBSTRUCTURE
     1 09F         1 TEMP              0 ****  ****    0 ROOT
