@<TRIPOS>MOLECULE
09F
   46    49     1     0     0
SMALL
bcc


@<TRIPOS>ATOM
      1 C24         3.4150   -1.1200   -1.0110 c1        1 09F      0.194700
      2 C5         -4.7720    2.6120    0.3430 ca        1 09F     -0.163000
      3 C8         -5.6740    2.1060   -0.5880 ca        1 09F     -0.090000
      4 C3         -3.6280    1.8840    0.7050 ca        1 09F     -0.072000
      5 C6         -5.4770    0.8590   -1.1940 ca        1 09F     -0.168000
      6 C1         -3.4100    0.6540    0.1200 ca        1 09F     -0.144300
      7 C17        -4.3430    0.1330   -0.8370 ca        1 09F      0.064600
      8 C14        -2.7130   -1.4840   -0.6570 c         1 09F      0.701500
      9 C9          1.3060   -0.4720    0.9060 c         1 09F      0.626100
     10 C21         6.1810    1.0820   -0.1210 c3        1 09F     -0.082400
     11 C20         5.7650   -0.1310    0.6840 c3        1 09F     -0.079400
     12 C22         5.3270    1.2300   -1.3620 c3        1 09F     -0.079400
     13 C19         4.2990   -0.0820    1.0520 c3        1 09F     -0.084900
     14 C23         3.8550    1.3090   -1.0180 c3        1 09F     -0.084900
     15 C4         -0.9130    0.2090   -0.0600 c3        1 09F     -0.074400
     16 C13        -2.1730   -0.8580    1.7570 c3        1 09F      0.167800
     17 C7         -0.0670    0.0890    1.2300 c3        1 09F      0.121500
     18 C18         3.4120    0.0890   -0.1880 c3        1 09F      0.246900
     19 C2         -2.2940   -0.3390    0.3040 c3        1 09F     -0.088700
     20 N25         3.4260   -2.0770   -1.6690 n1        1 09F     -0.340800
     21 N16        -3.9180   -1.1270   -1.2870 n         1 09F     -0.479100
     22 N10        -0.8010   -0.6940    2.2250 n3        1 09F     -0.790200
     23 O12         1.7720   -1.5700    1.2050 o         1 09F     -0.517000
     24 O11         2.0610    0.4270    0.2060 os        1 09F     -0.436900
     25 H1         -4.9540    3.5930    0.8050 ha        1 09F      0.137000
     26 H2         -6.5650    2.6930   -0.8580 ha        1 09F      0.136000
     27 H3         -2.9220    2.2890    1.4440 ha        1 09F      0.142000
     28 H4         -6.1990    0.4730   -1.9260 ha        1 09F      0.142000
     29 H5          6.0880    2.0040    0.5120 hc        1 09F      0.045200
     30 H6          7.2580    0.9850   -0.4170 hc        1 09F      0.045200
     31 H7          5.9710   -1.0620    0.0920 hc        1 09F      0.051950
     32 H8          6.3750   -0.1880    1.6230 hc        1 09F      0.051950
     33 H9          5.6200    2.1600   -1.9150 hc        1 09F      0.051950
     34 H10         5.5060    0.3590   -2.0470 hc        1 09F      0.051950
     35 H11         4.0070   -1.0220    1.5910 hc        1 09F      0.067200
     36 H12         4.1020    0.7850    1.7350 hc        1 09F      0.067200
     37 H13         3.6470    2.2300   -0.4130 hc        1 09F      0.067200
     38 H14         3.2390    1.3640   -1.9510 hc        1 09F      0.067200
     39 H15        -0.9740    1.2770   -0.3810 hc        1 09F      0.077200
     40 H16        -0.4550   -0.3830   -0.8910 hc        1 09F      0.077200
     41 H17        -2.8300   -0.2370    2.4280 h1        1 09F      0.067700
     42 H18        -2.5060   -1.9280    1.8220 h1        1 09F      0.067700
     43 H19         0.0930    1.1170    1.6740 h1        1 09F      0.095700
     44 H20        -4.4030   -1.6790   -1.9450 hn        1 09F      0.343500
     45 H21        -0.3600   -1.5860    2.3740 hn        1 09F      0.384800
     46 O15        -2.1180   -2.5470   -0.8580 o         1 09F     -0.588500
@<TRIPOS>BOND
     1    1   18 1   
     2    1   20 3   
     3    2    3 ar  
     4    2    4 ar  
     5    2   25 1   
     6    3    5 ar  
     7    3   26 1   
     8    4    6 ar  
     9    4   27 1   
    10    5    7 ar  
    11    5   28 1   
    12    6    7 ar  
    13    6   19 1   
    14    7   21 1   
    15    8   19 1   
    16    8   21 1   
    17    8   46 2   
    18    9   17 1   
    19    9   23 2   
    20    9   24 1   
    21   10   11 1   
    22   10   12 1   
    23   10   29 1   
    24   10   30 1   
    25   11   13 1   
    26   11   31 1   
    27   11   32 1   
    28   12   14 1   
    29   12   33 1   
    30   12   34 1   
    31   13   18 1   
    32   13   35 1   
    33   13   36 1   
    34   14   18 1   
    35   14   37 1   
    36   14   38 1   
    37   15   17 1   
    38   15   19 1   
    39   15   39 1   
    40   15   40 1   
    41   16   19 1   
    42   16   22 1   
    43   16   41 1   
    44   16   42 1   
    45   17   22 1   
    46   17   43 1   
    47   18   24 1   
    48   21   44 1   
    49   22   45 1   
@<TRIPOS>SUBSTRUCTURE
     1 09F         1 TEMP              0 ****  ****    0 ROOT
