@<TRIPOS>MOLECULE
09F
   46    43     1     0     0
SMALL
bcc


@<TRIPOS>ATOM
      1 C24        -0.4360    1.7570    2.0940 c1        1 09F     -0.153000
      2 C5          3.7500   -3.4460   -3.6550 c1        1 09F     -0.123750
      3 C8          4.0850   -4.4980   -2.7870 c1        1 09F     -0.123750
      4 C3          2.8140   -2.4830   -3.2620 c1        1 09F     -0.123750
      5 C6          3.4820   -4.5850   -1.5260 c1        1 09F     -0.123750
      6 C1          2.2150   -2.5670   -2.0130 c1        1 09F     -0.143000
      7 C17         2.5530   -3.6320   -1.1340 c1        1 09F      0.075000
      8 C14         0.9340   -2.2530    0.0680 c1        1 09F      0.317000
      9 C9         -0.2550    0.6180    0.0770 c1        1 09F      0.320000
     10 C21        -3.4300    3.7640    3.0530 c3        1 09F     -0.160000
     11 C20        -3.2550    2.3330    3.4130 c3        1 09F     -0.157500
     12 C22        -2.3060    4.3060    2.2440 c3        1 09F     -0.157500
     13 C19        -2.9520    1.4550    2.2160 c3        1 09F     -0.164000
     14 C23        -1.9890    3.4560    1.0290 c3        1 09F     -0.164000
     15 C4          1.6870   -0.4190   -1.1710 c3        1 09F     -0.158000
     16 C13        -0.0230   -1.5400   -2.0530 c3        1 09F     -0.068000
     17 C7          0.4170    0.5890   -1.2340 c2        1 09F     -0.022000
     18 C18        -1.7600    1.9670    1.3750 c2        1 09F      0.200000
     19 C2          1.2030   -1.6610   -1.2890 c2        1 09F     -0.050000
     20 N25         0.5550    1.6000    2.6330 n1        1 09F     -0.027000
     21 N16         1.7300   -3.4510    0.1940 n3        1 09F     -0.335000
     22 N10        -0.3650    0.0140   -2.1130 n3        1 09F     -0.272000
     23 O15         0.2030   -1.7870    0.9190 o         1 09F     -0.306000
     24 O12         0.3270    0.2210    1.0660 o         1 09F     -0.327000
     25 O11        -1.5690    1.1750    0.1950 os        1 09F     -0.272000
     26 H1          4.1720   -3.3860   -4.5350 ha        1 09F      0.137500
     27 H2          4.7380   -5.1700   -3.0620 ha        1 09F      0.137500
     28 H3          2.5830   -1.7510   -3.8660 ha        1 09F      0.137500
     29 H4          3.7140   -5.3150   -0.9240 ha        1 09F      0.137500
     30 H5         -4.2610    3.8600    2.5410 hc        1 09F      0.084000
     31 H6         -3.5050    4.2880    3.8760 hc        1 09F      0.084000
     32 H7         -2.5200    2.2570    4.0530 hc        1 09F      0.089500
     33 H8         -4.0770    2.0120    3.8380 hc        1 09F      0.089500
     34 H9         -1.5100    4.3570    2.8060 hc        1 09F      0.089500
     35 H10        -2.5390    5.2070    1.9450 hc        1 09F      0.089500
     36 H11        -2.7480    0.5550    2.5310 hc        1 09F      0.107750
     37 H12        -3.7500    1.4160    1.6420 hc        1 09F      0.107750
     38 H13        -1.1860    3.8060    0.6030 hc        1 09F      0.107750
     39 H14        -2.7360    3.5210    0.3960 hc        1 09F      0.107750
     40 H15         2.1470   -0.3210   -0.3170 hc        1 09F      0.128000
     41 H16         2.3030   -0.2280   -1.9080 hc        1 09F      0.128000
     42 H17         0.1100   -1.8890   -2.9560 h1        1 09F      0.112000
     43 H18        -0.7430   -2.0240   -1.6090 h1        1 09F      0.112000
     44 H19         0.6090    1.5390   -1.3640 h4        1 09F      0.108000
     45 H20         1.7560   -4.0040    0.9200 hn        1 09F      0.258000
     46 H21        -0.1730    0.3370   -2.9500 hn        1 09F      0.165000
@<TRIPOS>BOND
     1    1   20 1   
     2    2    4 1   
     3    2   26 1   
     4    3    5 1   
     5    3   27 1   
     6    4   28 1   
     7    5   29 1   
     8    6    7 1   
     9    6   19 1   
    10    7   21 1   
    11    8   21 1   
    12    8   23 1   
    13    9   24 1   
    14    9   25 1   
    15   10   11 1   
    16   10   12 1   
    17   10   30 1   
    18   10   31 1   
    19   11   13 1   
    20   11   32 1   
    21   11   33 1   
    22   12   14 1   
    23   12   34 1   
    24   12   35 1   
    25   13   18 1   
    26   13   36 1   
    27   13   37 1   
    28   14   18 1   
    29   14   38 1   
    30   14   39 1   
    31   15   17 1   
    32   15   19 1   
    33   15   40 1   
    34   15   41 1   
    35   16   19 1   
    36   16   22 1   
    37   16   42 1   
    38   16   43 1   
    39   17   22 1   
    40   17   44 1   
    41   18   25 1   
    42   21   45 1   
    43   22   46 1   
@<TRIPOS>SUBSTRUCTURE
     1 09F         1 TEMP              0 ****  ****    0 ROOT
