@<TRIPOS>MOLECULE
09F
   46    46     1     0     0
SMALL
bcc


@<TRIPOS>ATOM
      1 C24         1.9810   -0.1460    0.5370 c1        1 09F     -0.150000
      2 C5         -2.9780   -4.8140   -3.4830 ca        1 09F     -0.159000
      3 C8         -2.6950   -5.2200   -4.7830 ca        1 09F     -0.091000
      4 C3         -2.0580   -5.0270   -2.4460 ca        1 09F     -0.064000
      5 C6         -1.4850   -5.8490   -5.1080 ca        1 09F     -0.165000
      6 C1         -0.8610   -5.6480   -2.7400 ca        1 09F     -0.139000
      7 C17        -0.5680   -6.0620   -4.0820 ca        1 09F      0.061000
      8 C14         1.2850   -6.6710   -2.8610 c2        1 09F      0.301000
      9 C9          0.6180   -3.0450    0.5670 c2        1 09F      0.255000
     10 C21        -1.1700    2.6440    1.0350 c2        1 09F     -0.158000
     11 C20        -0.5400    1.4930    1.2920 c2        1 09F     -0.172000
     12 C22        -1.8480    2.9830   -0.2300 c3        1 09F     -0.195000
     13 C19        -0.4320    0.3670    0.3380 c3        1 09F     -0.151000
     14 C23         0.2720    2.0500   -2.5960 c1        1 09F     -0.035000
     15 C4          0.9660   -4.8030   -1.2220 c3        1 09F     -0.205000
     16 C13        -0.1250   -7.0540   -0.7850 c3        1 09F     -0.062000
     17 C7          0.1430   -4.1530   -0.2350 c1        1 09F      0.063000
     18 C18         0.6290   -0.6420    0.7820 c3        1 09F      0.137000
     19 C2          0.2980   -6.0180   -1.8510 c3        1 09F     -0.054000
     20 N25         3.0530    0.2570    0.3460 n1        1 09F     -0.034000
     21 N16         0.7080   -6.6530   -4.1380 ns        1 09F     -0.326000
     22 N10         0.9210   -7.7190   -0.0690 n8        1 09F     -0.341000
     23 O12         1.0310   -3.0860    1.7320 o         1 09F     -0.346000
     24 O11         0.4150   -1.8180   -0.0220 os        1 09F     -0.273000
     25 H1         -3.9350   -4.3200   -3.2600 ha        1 09F      0.139000
     26 H2         -3.4320   -5.0450   -5.5830 ha        1 09F      0.136000
     27 H3         -2.2770   -4.7030   -1.4160 ha        1 09F      0.159000
     28 H4         -1.2770   -6.1620   -6.1390 ha        1 09F      0.142000
     29 H5         -1.2170    3.4240    1.8150 ha        1 09F      0.121000
     30 H6         -1.8500    4.0890   -0.3930 hc        1 09F      0.085667
     31 H7         -0.1920    0.7350   -0.7020 hc        1 09F      0.131000
     32 H8         -0.0700    1.3370    2.2790 ha        1 09F      0.123000
     33 H9         -1.3500    2.4950   -1.1100 hc        1 09F      0.085667
     34 H10        -2.9110    2.6330   -0.2010 hc        1 09F      0.085667
     35 H11         0.5210   -0.8980    1.8780 h1        1 09F      0.146000
     36 H12        -1.4180   -0.1710    0.2750 hc        1 09F      0.131000
     37 H13        -0.1140    2.5990   -3.4690 ha        1 09F      0.017500
     38 H14         1.2610    2.4260   -2.2910 ha        1 09F      0.017500
     39 H15         1.9640   -5.1150   -0.7870 hc        1 09F      0.162000
     40 H16         1.2050   -4.0400   -2.0280 hc        1 09F      0.162000
     41 H17        -0.7840   -6.5100   -0.0470 h1        1 09F      0.115500
     42 H18        -0.7470   -7.8410   -1.3000 h1        1 09F      0.115500
     43 H19         1.4510   -7.0830    0.4930 hn        1 09F      0.155500
     44 H20         1.1010   -7.0540   -4.9490 hn        1 09F      0.258000
     45 H21         1.5420   -8.2100   -0.6840 hn        1 09F      0.155500
     46 O15         2.4000   -7.1390   -2.6020 o         1 09F     -0.338000
@<TRIPOS>BOND
     1    1   18 1   
     2    1   20 1   
     3    2    3 1   
     4    2    4 1   
     5    2   25 1   
     6    3    5 1   
     7    3   26 1   
     8    4    6 1   
     9    4   27 1   
    10    5    7 1   
    11    5   28 1   
    12    6    7 1   
    13    6   19 1   
    14    7   21 1   
    15    8   19 1   
    16    8   21 1   
    17    8   46 1   
    18    9   17 1   
    19    9   23 1   
    20    9   24 1   
    21   10   11 1   
    22   10   12 1   
    23   10   29 1   
    24   11   13 1   
    25   11   32 1   
    26   12   30 1   
    27   12   33 1   
    28   12   34 1   
    29   13   18 1   
    30   13   31 1   
    31   13   36 1   
    32   14   37 1   
    33   14   38 1   
    34   15   17 1   
    35   15   19 1   
    36   15   39 1   
    37   15   40 1   
    38   16   19 1   
    39   16   22 1   
    40   16   41 1   
    41   16   42 1   
    42   18   24 1   
    43   18   35 1   
    44   21   44 1   
    45   22   43 1   
    46   22   45 1   
@<TRIPOS>SUBSTRUCTURE
     1 09F         1 TEMP              0 ****  ****    0 ROOT
