@<TRIPOS>MOLECULE
09G
   43    46     1     0     0
SMALL
bcc


@<TRIPOS>ATOM
      1 C5          0.2800   -0.9380   -0.0070 ca        1 09G     -0.162000
      2 C8          1.5750   -0.4300    0.0030 ca        1 09G     -0.089000
      3 C23        -5.5670    6.9920    5.0260 ca        1 09G     -0.092000
      4 C3         -0.5660   -0.7710    1.1010 ca        1 09G     -0.071000
      5 C24        -5.1710    5.8230    5.6670 ca        1 09G     -0.118000
      6 C6          2.0820    0.2610    1.1110 ca        1 09G     -0.166000
      7 C20        -5.4730    4.5900    3.6060 ca        1 09G     -0.088000
      8 C22        -5.9170    6.9700    3.6680 ca        1 09G      0.014000
      9 C1         -0.0910   -0.0930    2.2040 ca        1 09G     -0.143300
     10 C19        -5.1250    4.6160    4.9590 ca        1 09G     -0.068300
     11 C17         1.2460    0.4280    2.2120 ca        1 09G      0.062600
     12 C21        -5.8670    5.7610    2.9540 ca        1 09G      0.002100
     13 C14         0.3740    1.0030    4.2640 c         1 09G      0.701500
     14 C9         -3.6960    1.2770    5.2390 c         1 09G      0.616100
     15 C4         -2.0060    1.1000    3.3770 c3        1 09G     -0.068400
     16 C13        -1.1850   -1.0160    4.3100 c3        1 09G      0.168800
     17 C7         -3.1140    0.3690    4.1700 c3        1 09G      0.127500
     18 C2         -0.7510    0.2370    3.5150 c3        1 09G     -0.084700
     19 C18        -4.7340    3.3730    5.6860 c3        1 09G      0.178700
     20 N26        -6.6390    9.1810    2.5390 n1        1 09G     -0.340800
     21 N16         1.5050    1.0700    3.4340 n         1 09G     -0.478100
     22 N10        -2.5860   -0.8900    4.6930 n3        1 09G     -0.796200
     23 O15         0.3200    1.4880    5.3980 o         1 09G     -0.595500
     24 O11        -4.1740    2.4540    4.7300 os        1 09G     -0.439900
     25 BR2        -6.3200    5.6880    1.1390 br        1 09G     -0.058100
     26 H1         -0.0910   -1.4780   -0.8900 ha        1 09G      0.138000
     27 H2          2.2230   -0.5710   -0.8770 ha        1 09G      0.137000
     28 H3         -5.6060    7.9410    5.5830 ha        1 09G      0.153000
     29 H4         -1.5880   -1.1780    1.0870 ha        1 09G      0.144000
     30 H5         -4.8920    5.8480    6.7320 ha        1 09G      0.148000
     31 H6          3.1070    0.6540    1.1030 ha        1 09G      0.142000
     32 H7         -5.4250    3.6340    3.0580 ha        1 09G      0.166000
     33 H8         -2.3050    1.1890    2.3040 hc        1 09G      0.078700
     34 H9         -1.8390    2.1300    3.7800 hc        1 09G      0.078700
     35 H10        -1.1020   -1.9250    3.6500 h1        1 09G      0.065700
     36 H11        -0.5160   -1.1640    5.2020 h1        1 09G      0.065700
     37 H12        -3.9700    0.1070    3.4800 h1        1 09G      0.097700
     38 H13        -3.9660    3.5830    6.4790 h1        1 09G      0.071700
     39 H14        -5.6310    2.8900    6.1600 h1        1 09G      0.071700
     40 H15         2.3590    1.5060    3.6670 hn        1 09G      0.343500
     41 H16        -2.7000   -0.9450    5.6910 hn        1 09G      0.388800
     42 O12        -3.8050    1.0690    6.4480 o         1 09G     -0.530000
     43 C25        -6.3150    8.1820    3.0400 cg        1 09G      0.227800
@<TRIPOS>BOND
     1    1    2 ar  
     2    1    4 ar  
     3    1   26 1   
     4    2    6 ar  
     5    2   27 1   
     6    3    5 ar  
     7    3    8 ar  
     8    3   28 1   
     9    4    9 ar  
    10    4   29 1   
    11    5   10 ar  
    12    5   30 1   
    13    6   11 ar  
    14    6   31 1   
    15    7   10 ar  
    16    7   12 ar  
    17    7   32 1   
    18    8   12 ar  
    19    8   43 1   
    20    9   11 ar  
    21    9   18 1   
    22   10   19 1   
    23   11   21 1   
    24   12   25 1   
    25   13   18 1   
    26   13   21 1   
    27   13   23 2   
    28   14   17 1   
    29   14   24 1   
    30   14   42 2   
    31   15   17 1   
    32   15   18 1   
    33   15   33 1   
    34   15   34 1   
    35   16   18 1   
    36   16   22 1   
    37   16   35 1   
    38   16   36 1   
    39   17   22 1   
    40   17   37 1   
    41   19   24 1   
    42   19   38 1   
    43   19   39 1   
    44   20   43 3   
    45   21   40 1   
    46   22   41 1   
@<TRIPOS>SUBSTRUCTURE
     1 09G         1 TEMP              0 ****  ****    0 ROOT
