@<TRIPOS>MOLECULE
09G
   43    46     1     0     0
SMALL
bcc


@<TRIPOS>ATOM
      1 C5         -5.3790    3.1910    1.5250 ca        1 09G     -0.162000
      2 C8         -6.0650    3.5490    0.3700 ca        1 09G     -0.089000
      3 C23         4.0440   -1.1020   -2.3690 ca        1 09G     -0.092000
      4 C3         -4.6420    1.9980    1.5840 ca        1 09G     -0.071000
      5 C24         2.9860   -1.8850   -1.9200 ca        1 09G     -0.118000
      6 C6         -6.0490    2.7380   -0.7720 ca        1 09G     -0.166000
      7 C20         2.4890   -0.2370   -0.2180 ca        1 09G     -0.088000
      8 C22         4.3320    0.1230   -1.7480 ca        1 09G      0.014000
      9 C1         -4.6080    1.1830    0.4710 ca        1 09G     -0.143300
     10 C19         2.2060   -1.4560   -0.8390 ca        1 09G     -0.068300
     11 C17        -5.3190    1.5530   -0.7190 ca        1 09G      0.062600
     12 C21         3.5470    0.5580   -0.6670 ca        1 09G      0.002100
     13 C14        -4.3250   -0.4610   -1.2250 c         1 09G      0.701500
     14 C9         -1.0130   -2.1490    0.7180 c         1 09G      0.616100
     15 C4         -2.3960   -0.0690    0.3830 c3        1 09G     -0.068400
     16 C13        -4.3870   -1.2470    1.2020 c3        1 09G      0.168800
     17 C7         -2.0130   -1.2040    1.3590 c3        1 09G      0.127500
     18 C2         -3.9170   -0.1330    0.2370 c3        1 09G     -0.084700
     19 C18         1.1030   -2.3380   -0.3570 c3        1 09G      0.178700
     20 N26         6.3100    1.5290   -2.6380 n1        1 09G     -0.340800
     21 N16        -5.1430    0.5730   -1.7090 n         1 09G     -0.478100
     22 N10        -3.2280   -1.8670    1.8320 n3        1 09G     -0.796200
     23 O15        -4.0030   -1.4540   -1.8860 o         1 09G     -0.595500
     24 O11         0.1100   -1.5080    0.2730 os        1 09G     -0.439900
     25 BR2         3.8920    2.1870    0.1880 br        1 09G     -0.058100
     26 H1         -5.4110    3.8470    2.4080 ha        1 09G      0.138000
     27 H2         -6.6370    4.4900    0.3440 ha        1 09G      0.137000
     28 H3          4.6600   -1.4400   -3.2170 ha        1 09G      0.153000
     29 H4         -4.1040    1.7200    2.5020 ha        1 09G      0.144000
     30 H5          2.7630   -2.8420   -2.4160 ha        1 09G      0.148000
     31 H6         -6.5970    3.0340   -1.6770 ha        1 09G      0.142000
     32 H7          1.8610    0.0930    0.6270 ha        1 09G      0.166000
     33 H8         -2.0830    0.9170    0.8070 hc        1 09G      0.078700
     34 H9         -1.8860   -0.2020   -0.6040 hc        1 09G      0.078700
     35 H10        -5.0080   -0.7920    2.0230 h1        1 09G      0.065700
     36 H11        -5.0190   -1.9970    0.6530 h1        1 09G      0.065700
     37 H12        -1.4990   -0.7710    2.2680 h1        1 09G      0.097700
     38 H13         0.6220   -2.8970   -1.2040 h1        1 09G      0.071700
     39 H14         1.4850   -3.0740    0.4020 h1        1 09G      0.071700
     40 H15        -5.5370    0.6140   -2.6120 hn        1 09G      0.343500
     41 H16        -3.1970   -2.8560    1.6500 hn        1 09G      0.388800
     42 O12        -1.0860   -3.3710    0.5860 o         1 09G     -0.530000
     43 C25         5.4180    0.9020   -2.2320 cg        1 09G      0.227800
@<TRIPOS>BOND
     1    1    2 ar  
     2    1    4 ar  
     3    1   26 1   
     4    2    6 ar  
     5    2   27 1   
     6    3    5 ar  
     7    3    8 ar  
     8    3   28 1   
     9    4    9 ar  
    10    4   29 1   
    11    5   10 ar  
    12    5   30 1   
    13    6   11 ar  
    14    6   31 1   
    15    7   10 ar  
    16    7   12 ar  
    17    7   32 1   
    18    8   12 ar  
    19    8   43 1   
    20    9   11 ar  
    21    9   18 1   
    22   10   19 1   
    23   11   21 1   
    24   12   25 1   
    25   13   18 1   
    26   13   21 1   
    27   13   23 2   
    28   14   17 1   
    29   14   24 1   
    30   14   42 2   
    31   15   17 1   
    32   15   18 1   
    33   15   33 1   
    34   15   34 1   
    35   16   18 1   
    36   16   22 1   
    37   16   35 1   
    38   16   36 1   
    39   17   22 1   
    40   17   37 1   
    41   19   24 1   
    42   19   38 1   
    43   19   39 1   
    44   20   43 3   
    45   21   40 1   
    46   22   41 1   
@<TRIPOS>SUBSTRUCTURE
     1 09G         1 TEMP              0 ****  ****    0 ROOT
