@<TRIPOS>MOLECULE
09G
   43    47     1     0     0
SMALL
bcc


@<TRIPOS>ATOM
      1 C5          0.0000    0.0000    0.0000 ca        1 09G     -0.135000
      2 C8          1.3840    0.0000    0.0000 ca        1 09G     -0.030000
      3 C23        -5.1390    6.9810    4.1460 ca        1 09G     -0.052000
      4 C3         -0.6880    0.0050    1.2000 ca        1 09G     -0.038000
      5 C24        -4.7320    5.8310    4.7910 ca        1 09G     -0.116000
      6 C6          2.0800    0.0000    1.1910 ca        1 09G     -0.097000
      7 C20        -6.6280    4.6490    3.9120 ca        1 09G     -0.058000
      8 C22        -6.3070    6.9710    3.3790 ca        1 09G      0.089000
      9 C1          0.0020    0.0090    2.3910 ca        1 09G     -0.151000
     10 C19        -5.4740    4.6690    4.6750 ca        1 09G     -0.107000
     11 C17         1.3940   -0.0010    2.4030 ca        1 09G     -0.114000
     12 C21        -7.0510    5.7940    3.2650 ca        1 09G     -0.106000
     13 C14         0.8620    0.0200    4.6170 c2        1 09G      0.224000
     14 C9         -3.6420    1.5110    4.9790 c2        1 09G      0.464000
     15 C4         -1.2790    1.2470    4.1590 c3        1 09G     -0.097000
     16 C13        -1.2830   -1.2040    4.1720 c3        1 09G     -0.105000
     17 C7         -2.7210    0.6760    4.1270 c3        1 09G     -0.435000
     18 C2         -0.4210    0.0140    3.8320 c3        1 09G     -0.115000
     19 C18        -5.0180    3.4150    5.3770 c3        1 09G      0.109000
     20 N26        -7.0990    9.1050    2.1900 n1        1 09G     -0.035000
     21 N16         1.8650    0.0080    3.7180 ns        1 09G      0.144000
     22 N10        -2.5650   -0.6850    4.7040 ny        1 09G     -0.099000
     23 O15         0.9730    0.0310    5.8250 o         1 09G     -0.358000
     24 O11        -4.1390    2.6630    4.5010 os        1 09G     -0.221000
     25 Br2        -8.6280    5.7660    2.2220 br        1 09G      0.052000
     26 H1         -0.6360   -0.0920   -0.8720 ha        1 09G      0.116000
     27 H2          1.6630    0.0760   -1.0440 ha        1 09G      0.114000
     28 H3         -4.4770    7.7330    4.5570 ha        1 09G      0.127000
     29 H4         -1.7660   -0.0470    1.2930 ha        1 09G      0.116000
     30 H5         -4.1380    5.4890    5.6300 ha        1 09G      0.137000
     31 H6          3.0380    0.3360    1.5680 ha        1 09G      0.114000
     32 H7         -7.1760    3.7390    3.7010 ha        1 09G      0.127000
     33 H8         -1.0030    2.1070    3.5620 hc        1 09G      0.080000
     34 H9         -1.2590    1.6420    5.1680 hc        1 09G      0.080000
     35 H10        -1.7070   -1.6010    3.2580 hx        1 09G      0.118500
     36 H11        -0.6710   -1.6020    4.9730 hx        1 09G      0.118500
     37 H12        -2.2510   -0.2470    3.8080 DU        1 09G      0.356000
     38 H13        -4.6170    3.6150    6.3630 h1        1 09G      0.054500
     39 H14        -5.8640    2.7830    5.6170 h1        1 09G      0.054500
     40 H15         2.8180   -0.0150    4.0240 hn        1 09G      0.096000
     41 H16        -2.4350   -0.4390    5.6650 hn        1 09G      0.092000
     42 O12        -3.9330    1.1440    6.0930 o         1 09G     -0.408000
     43 C25        -6.7380    8.1630    2.7120 c1        1 09G     -0.106000
@<TRIPOS>BOND
     1    1    2 1   
     2    1    4 1   
     3    1   26 1   
     4    2    6 1   
     5    2   27 1   
     6    3    5 1   
     7    3    8 1   
     8    3   28 1   
     9    4    9 1   
    10    4   29 1   
    11    5   10 1   
    12    5   30 1   
    13    6   11 1   
    14    6   31 1   
    15    7   10 1   
    16    7   12 1   
    17    7   32 1   
    18    8   12 1   
    19    8   43 1   
    20    9   11 1   
    21    9   18 1   
    22   10   19 1   
    23   11   21 1   
    24   12   25 1   
    25   13   18 1   
    26   13   21 1   
    27   13   23 1   
    28   14   17 1   
    29   14   24 1   
    30   14   42 1   
    31   15   17 1   
    32   15   18 1   
    33   15   33 1   
    34   15   34 1   
    35   16   18 1   
    36   16   22 1   
    37   16   35 1   
    38   16   36 1   
    39   17   22 1   
    40   17   37 1   
    41   19   24 1   
    42   19   38 1   
    43   19   39 1   
    44   20   43 1   
    45   21   40 1   
    46   22   37 1   
    47   22   41 1   
@<TRIPOS>SUBSTRUCTURE
     1 09G         1 TEMP              0 ****  ****    0 ROOT
