@<TRIPOS>MOLECULE
09G
   43    35     1     0     0
SMALL
bcc


@<TRIPOS>ATOM
      1 C25        -7.1920    3.8790    0.6340 c1        1 09G     -0.102000
      2 C5          2.9890   -1.6460   -3.9650 c1        1 09G     -0.114500
      3 C8          4.3940   -1.5790   -3.9880 c1        1 09G     -0.114500
      4 C23        -5.9180    1.7620    1.2590 c1        1 09G     -0.114500
      5 C3          2.3090   -1.6290   -2.7460 c1        1 09G     -0.114500
      6 C24        -4.7430    1.0710    1.5570 c1        1 09G     -0.114500
      7 C6          5.1150   -1.4950   -2.7820 c1        1 09G     -0.114500
      8 C20        -3.4960    3.1290    1.3770 c1        1 09G     -0.090000
      9 C22        -5.8800    3.1230    1.0230 c1        1 09G     -0.059500
     10 C1          3.0280   -1.5440   -1.5390 c1        1 09G     -0.136000
     11 C19        -3.5320    1.7530    1.6160 c1        1 09G     -0.094000
     12 C17         4.4340   -1.4770   -1.5600 c1        1 09G      0.070000
     13 C21        -4.6640    3.8110    1.0820 c1        1 09G     -0.059500
     14 C14         3.7770   -1.3950    0.7420 c1        1 09G      0.309000
     15 C9         -0.2620    0.0480    1.2480 c1        1 09G      0.289000
     16 C4          1.6690   -0.2360    0.1260 c3        1 09G     -0.145000
     17 C13         1.7410   -2.7150    0.2620 c3        1 09G     -0.068000
     18 C7          0.4330   -0.7160    0.2720 c2        1 09G     -0.020000
     19 C2          2.5840   -1.4760   -0.1040 c2        1 09G     -0.042000
     20 C18        -2.2640    1.0220    2.0720 c2        1 09G      0.021000
     21 N26        -8.1360    4.4230    0.3540 n1        1 09G     -0.015000
     22 N16         4.9240   -1.3750   -0.1200 n3        1 09G     -0.332000
     23 N10         0.7070   -2.2660    0.8630 n3        1 09G     -0.275000
     24 O15         3.7910   -1.3260    1.9680 o         1 09G     -0.321000
     25 O12         0.2320    0.2200    2.3570 o         1 09G     -0.353000
     26 O11        -1.4960    0.6410    0.9290 os        1 09G     -0.268000
     27 BR2        -4.7710    5.6610    0.6560 br        1 09G      0.081000
     28 H1          2.4730   -1.7080   -4.8300 ha        1 09G      0.147333
     29 H2          4.8650   -1.5910   -4.8340 ha        1 09G      0.147333
     30 H3         -6.7660    1.2850    1.2180 ha        1 09G      0.147333
     31 H4          1.3320   -1.6760   -2.7300 ha        1 09G      0.147333
     32 H5         -4.7710    0.1170    1.7230 ha        1 09G      0.147333
     33 H6          6.1020   -1.4480   -2.7980 ha        1 09G      0.147333
     34 H7         -2.6370    3.6160    1.4180 ha        1 09G      0.154000
     35 H8          1.7100    0.3670   -0.6550 hc        1 09G      0.117500
     36 H9          1.9430    0.2400    0.9360 hc        1 09G      0.117500
     37 H10         1.4780   -3.1930   -0.5460 h1        1 09G      0.105000
     38 H11         2.2550   -3.3150    0.8620 h1        1 09G      0.105000
     39 H12        -0.1690   -0.6320   -0.4920 h4        1 09G      0.139000
     40 H13        -1.7250    1.6220    2.6450 h4        1 09G      0.118500
     41 H14        -2.5180    0.2030    2.5920 h4        1 09G      0.118500
     42 H15         5.7850   -1.3290    0.1440 hn        1 09G      0.257000
     43 H16         0.8690   -2.2250    1.7520 hn        1 09G      0.184000
@<TRIPOS>BOND
     1    1   21 1   
     2    2    5 1   
     3    2   28 1   
     4    3    7 1   
     5    3   29 1   
     6    4    6 1   
     7    4   30 1   
     8    5   31 1   
     9    6   32 1   
    10    7   33 1   
    11    8   11 1   
    12    8   34 1   
    13    9   13 1   
    14   10   12 1   
    15   10   19 1   
    16   12   22 1   
    17   14   22 1   
    18   14   24 1   
    19   15   25 1   
    20   15   26 1   
    21   16   18 1   
    22   16   19 1   
    23   16   35 1   
    24   16   36 1   
    25   17   19 1   
    26   17   23 1   
    27   17   37 1   
    28   17   38 1   
    29   18   23 1   
    30   18   39 1   
    31   20   26 1   
    32   20   40 1   
    33   20   41 1   
    34   22   42 1   
    35   23   43 1   
@<TRIPOS>SUBSTRUCTURE
     1 09G         1 TEMP              0 ****  ****    0 ROOT
