@<TRIPOS>MOLECULE
09H
   51    55     1     0     0
SMALL
bcc


@<TRIPOS>ATOM
      1 C01        -0.1440    0.2440   -0.1340 ca        1 09H     -0.152000
      2 C02         1.2440    0.3240   -0.2140 ca        1 09H     -0.108000
      3 C03         2.0220    0.2590    0.9350 ca        1 09H     -0.155000
      4 C04         1.4310    0.1160    2.2100 ca        1 09H      0.091600
      5 C05         0.0020    0.0320    2.2910 ca        1 09H      0.035600
      6 C06        -0.7530    0.0970    1.1060 ca        1 09H     -0.130000
      7 N07        -0.6240   -0.1220    3.5760 nh        1 09H     -0.631000
      8 C08        -1.3690   -1.3710    3.6920 c3        1 09H      0.171800
      9 C09        -2.0400   -1.5280    5.0710 c3        1 09H      0.159800
     10 N10        -2.8210   -0.3690    5.4540 n3        1 09H     -0.821200
     11 C11        -2.0920    0.8770    5.3270 c3        1 09H      0.159800
     12 C12        -1.4210    1.0430    3.9500 c3        1 09H      0.171800
     13 N13         2.2050    0.0210    3.3790 n         1 09H     -0.443100
     14 C14         3.5030    0.4740    3.5310 c         1 09H      0.600600
     15 O15         4.1740    0.9790    2.6080 o         1 09H     -0.604100
     16 C16         4.1310    0.3270    4.8790 cc        1 09H      0.280800
     17 N17         3.4820   -0.2000    5.9900 nc        1 09H     -0.623000
     18 C18         4.3140   -0.1970    7.0360 cd        1 09H      0.463900
     19 S19         5.8860    0.4480    6.6800 ss        1 09H     -0.066300
     20 C20         5.4500    0.7230    5.1030 cd        1 09H     -0.195400
     21 C21         3.9920   -0.6650    8.3740 ca        1 09H     -0.175500
     22 C22         2.6600   -0.7670    8.7950 ca        1 09H     -0.051000
     23 C23         2.3340   -1.2090   10.0830 ca        1 09H     -0.159000
     24 C24         3.3850   -1.5430   10.9240 ca        1 09H      0.134100
     25 C25         4.7430   -1.4490   10.5170 ca        1 09H     -0.159300
     26 C26         5.0480   -1.0140    9.2460 ca        1 09H     -0.070000
     27 O27         3.2460   -1.9960   12.2240 os        1 09H     -0.316900
     28 C28         4.5850   -2.2340   12.7520 c3        1 09H      0.118400
     29 C29         5.6060   -1.8840   11.6520 c3        1 09H     -0.053100
     30 H1         -0.7570    0.2960   -1.0450 ha        1 09H      0.133000
     31 H2          1.7350    0.4390   -1.1920 ha        1 09H      0.135000
     32 H3          3.1190    0.3270    0.8390 ha        1 09H      0.171000
     33 H4         -1.8520    0.0350    1.1620 ha        1 09H      0.135000
     34 H5         -0.6400   -2.2170    3.5570 h1        1 09H      0.043700
     35 H6         -2.1610   -1.4630    2.8930 h1        1 09H      0.043700
     36 H7         -2.7400   -2.4080    5.0160 h1        1 09H      0.034700
     37 H8         -1.2390   -1.7730    5.8290 h1        1 09H      0.034700
     38 H9         -3.1580   -0.4760    6.3920 hn        1 09H      0.363800
     39 H11        -2.8310    1.7180    5.4530 h1        1 09H      0.034700
     40 H12        -1.3000    0.9920    6.1240 h1        1 09H      0.034700
     41 H13        -2.2180    1.2660    3.1820 h1        1 09H      0.043700
     42 H14        -0.7290    1.9280    4.0000 h1        1 09H      0.043700
     43 H15         1.7220   -0.2890    4.1970 hn        1 09H      0.354500
     44 H16         6.0900    1.1530    4.3300 h4        1 09H      0.207000
     45 H17         1.8450   -0.4970    8.1040 ha        1 09H      0.156000
     46 H18         1.2900   -1.2890   10.4120 ha        1 09H      0.156000
     47 H19         6.0940   -0.9400    8.9090 ha        1 09H      0.139000
     48 H20         4.6160   -3.3130   13.0390 h1        1 09H      0.063200
     49 H21         4.6820   -1.5790   13.6520 h1        1 09H      0.063200
     50 H22         6.2920   -1.0670   11.9860 hc        1 09H      0.067200
     51 H23         6.2260   -2.7740   11.3820 hc        1 09H      0.067200
@<TRIPOS>BOND
     1    1    2 ar  
     2    1    6 ar  
     3    1   30 1   
     4    2    3 ar  
     5    2   31 1   
     6    3    4 ar  
     7    3   32 1   
     8    4    5 ar  
     9    4   13 1   
    10    5    6 ar  
    11    5    7 1   
    12    6   33 1   
    13    7    8 1   
    14    7   12 1   
    15    8    9 1   
    16    8   34 1   
    17    8   35 1   
    18    9   10 1   
    19    9   36 1   
    20    9   37 1   
    21   10   11 1   
    22   10   38 1   
    23   11   12 1   
    24   11   39 1   
    25   11   40 1   
    26   12   41 1   
    27   12   42 1   
    28   13   14 1   
    29   13   43 1   
    30   14   15 2   
    31   14   16 1   
    32   16   17 1   
    33   16   20 2   
    34   17   18 2   
    35   18   19 1   
    36   18   21 1   
    37   19   20 1   
    38   20   44 1   
    39   21   22 ar  
    40   21   26 ar  
    41   22   23 ar  
    42   22   45 1   
    43   23   24 ar  
    44   23   46 1   
    45   24   25 ar  
    46   24   27 1   
    47   25   26 ar  
    48   25   29 1   
    49   26   47 1   
    50   27   28 1   
    51   28   29 1   
    52   28   48 1   
    53   28   49 1   
    54   29   50 1   
    55   29   51 1   
@<TRIPOS>SUBSTRUCTURE
     1 09H         1 TEMP              0 ****  ****    0 ROOT
