@<TRIPOS>MOLECULE
09H
   51    45     1     0     0
SMALL
bcc


@<TRIPOS>ATOM
      1 C01        -4.4130    1.0610   -4.2510 c1        1 09H     -0.139000
      2 C02        -4.3270    2.1350   -3.3760 c1        1 09H     -0.116500
      3 C03        -3.5200    2.0500   -2.2520 c1        1 09H     -0.116500
      4 C04        -2.7980    0.8920   -2.0010 c1        1 09H      0.075000
      5 C05        -2.8840   -0.1800   -2.8760 c1        1 09H     -0.020000
      6 C06        -3.6920   -0.0950   -4.0010 c2        1 09H     -0.151000
      7 N07        -2.1070   -1.3460   -2.6470 n2        1 09H     -0.236000
      8 C08        -1.1380   -1.5590   -3.8320 c3        1 09H     -0.096000
      9 C09        -0.3610   -2.8510   -3.7280 c3        1 09H     -0.115500
     10 N10        -0.9280   -3.6670   -2.9380 n3        1 09H     -0.271000
     11 C11        -2.1740   -3.8840   -2.8260 c3        1 09H     -0.115500
     12 C12        -2.9660   -2.6000   -2.9230 c3        1 09H     -0.096000
     13 N13        -2.0470    0.7690   -0.7940 n2        1 09H     -0.304000
     14 C14        -1.5920    1.9360   -0.1150 c1        1 09H      0.383000
     15 O15        -1.8430    3.0350   -0.5630 o         1 09H     -0.365000
     16 C16        -0.8440    1.8050    1.2010 c1        1 09H     -0.137000
     17 N17         0.6030    1.2210    1.3830 n2        1 09H     -0.101000
     18 C18         0.9490    1.2960    2.7670 c1        1 09H     -0.218000
     19 S19        -0.2430    1.9220    3.5230 ss        1 09H      0.518000
     20 C20        -1.3320    2.2190    2.4960 c1        1 09H     -0.400000
     21 C21         2.2670    0.8590    3.3830 c1        1 09H     -0.069000
     22 C22         2.5490   -0.5040    3.5370 c1        1 09H     -0.116500
     23 C23         3.7570   -0.9060    4.1040 c1        1 09H     -0.116500
     24 C24         4.6860    0.0490    4.5190 c1        1 09H      0.089000
     25 C25         4.4040    1.4120    4.3650 c1        1 09H     -0.152000
     26 C26         3.1930    1.8140    3.7970 c1        1 09H     -0.070000
     27 O27         5.9910   -0.0760    5.2340 os        1 09H     -0.200000
     28 C28         6.5250    1.2300    5.4090 c3        1 09H     -0.032000
     29 C29         5.5560    2.1780    4.8910 c3        1 09H     -0.139000
     30 H1         -4.9810    1.1210   -5.0420 ha        1 09H      0.133000
     31 H2         -4.8350    2.9490   -3.5520 ha        1 09H      0.154000
     32 H3         -3.4600    2.8040   -1.6380 ha        1 09H      0.154000
     33 H4         -3.7520   -0.8500   -4.6160 ha        1 09H      0.130000
     34 H5         -1.6540   -1.5670   -4.6640 h1        1 09H      0.097750
     35 H6         -0.5060   -0.8130   -3.8610 h1        1 09H      0.097750
     36 H7         -0.2950   -3.2580   -4.6160 h1        1 09H      0.094750
     37 H8          0.5410   -2.6580   -3.3960 h1        1 09H      0.094750
     38 H9         -0.4800   -4.4640   -2.9490 hn        1 09H      0.149000
     39 H11        -2.4600   -4.4920   -3.5400 h1        1 09H      0.094750
     40 H12        -2.3500   -4.3040   -1.9580 h1        1 09H      0.094750
     41 H13        -3.6960   -2.6310   -2.2730 h1        1 09H      0.097750
     42 H14        -3.3450   -2.5310   -3.8220 h1        1 09H      0.097750
     43 H15        -1.8660   -0.0570   -0.4520 hn        1 09H      0.266000
     44 H16        -2.2040    2.6190    2.6810 DU        1 09H      0.207000
     45 H17         1.8850   -1.1710    3.2780 ha        1 09H      0.154000
     46 H18         3.9530   -1.8570    4.2120 ha        1 09H      0.154000
     47 H19         3.0010    2.7640    3.6790 ha        1 09H      0.139000
     48 H20         6.6590    1.3960    6.3650 h1        1 09H      0.103000
     49 H21         7.3570    1.3080    4.8990 h1        1 09H      0.103000
     50 H22         5.9590    2.7030    4.1720 hc        1 09H      0.106500
     51 H23         5.2580    2.7730    5.6080 hc        1 09H      0.106500
@<TRIPOS>BOND
     1    1    6 1   
     2    1   30 1   
     3    2    3 1   
     4    2   31 1   
     5    3   32 1   
     6    4    5 1   
     7    5    6 1   
     8    6   33 1   
     9    7    8 1   
    10    7   12 1   
    11    8    9 1   
    12    8   34 1   
    13    8   35 1   
    14    9   10 1   
    15    9   36 1   
    16    9   37 1   
    17   10   11 1   
    18   10   38 1   
    19   11   12 1   
    20   11   39 1   
    21   11   40 1   
    22   12   41 1   
    23   12   42 1   
    24   13   14 1   
    25   13   43 1   
    26   14   15 1   
    27   16   17 1   
    28   16   20 1   
    29   17   18 1   
    30   18   19 1   
    31   19   20 1   
    32   21   26 1   
    33   22   23 1   
    34   22   45 1   
    35   23   46 1   
    36   24   25 1   
    37   24   27 1   
    38   25   29 1   
    39   26   47 1   
    40   27   28 1   
    41   28   29 1   
    42   28   48 1   
    43   28   49 1   
    44   29   50 1   
    45   29   51 1   
@<TRIPOS>SUBSTRUCTURE
     1 09H         1 TEMP              0 ****  ****    0 ROOT
