@<TRIPOS>MOLECULE
09H
   51    55     1     0     0
SMALL
bcc


@<TRIPOS>ATOM
      1 C01         6.3800    0.8060    0.6260 ca        1 09H     -0.152000
      2 C02         5.7700    2.0540    0.7250 ca        1 09H     -0.107000
      3 C03         4.3930    2.1800    0.5950 ca        1 09H     -0.155000
      4 C04         3.5770    1.0530    0.3530 ca        1 09H      0.093600
      5 C05         4.2050   -0.2320    0.2520 ca        1 09H      0.035600
      6 C06         5.6010   -0.3210    0.3940 ca        1 09H     -0.131000
      7 N07         3.3970   -1.3960    0.0130 nh        1 09H     -0.629000
      8 C08         3.4580   -2.3600    1.1060 c3        1 09H      0.136300
      9 C09         2.6030   -3.6150    0.8260 c3        1 09H      0.148800
     10 N10         2.8230   -4.2290   -0.4680 n3        1 09H     -0.797200
     11 C11         2.7880   -3.2520   -1.5380 c3        1 09H      0.148800
     12 C12         3.6440   -1.9900   -1.2960 c3        1 09H      0.136300
     13 N13         2.1800    1.1580    0.2450 n         1 09H     -0.443100
     14 C14         1.4730    2.3050   -0.0710 c         1 09H      0.600600
     15 O15         2.0030    3.4210   -0.2410 o         1 09H     -0.604100
     16 C16        -0.0110    2.1860   -0.1940 cc        1 09H      0.280800
     17 N17        -0.7140    0.9960   -0.0410 nc        1 09H     -0.624000
     18 C18        -2.0200    1.2230   -0.2100 cd        1 09H      0.466900
     19 S19        -2.4040    2.8810   -0.5560 ss        1 09H     -0.067300
     20 C20        -0.8010    3.3010   -0.4760 cd        1 09H     -0.195400
     21 C21        -3.0700    0.2210   -0.1330 ca        1 09H     -0.177500
     22 C22        -2.7730   -1.1400   -0.2860 ca        1 09H     -0.050000
     23 C23        -3.7740   -2.1160   -0.2220 ca        1 09H     -0.158000
     24 C24        -5.0720   -1.6810   -0.0010 ca        1 09H      0.134100
     25 C25        -5.3950   -0.3060    0.1590 ca        1 09H     -0.160300
     26 C26        -4.3990    0.6440    0.0950 ca        1 09H     -0.070000
     27 O27        -6.1800   -2.5040    0.0910 os        1 09H     -0.316900
     28 C28        -7.3410   -1.6550    0.3300 c3        1 09H      0.118400
     29 C29        -6.8650   -0.1910    0.3830 c3        1 09H     -0.053100
     30 H1          7.4700    0.7100    0.7290 ha        1 09H      0.133000
     31 H2          6.3790    2.9520    0.9090 ha        1 09H      0.135000
     32 H3          3.9400    3.1830    0.6770 ha        1 09H      0.172000
     33 H4          6.0920   -1.3050    0.3160 ha        1 09H      0.130000
     34 H5          4.5180   -2.6830    1.3220 h1        1 09H      0.039700
     35 H6          3.0600   -1.8530    2.0270 h1        1 09H      0.039700
     36 H7          2.8180   -4.3700    1.6310 h1        1 09H      0.059450
     37 H8          1.5140   -3.3360    0.8870 h1        1 09H      0.059450
     38 H9          3.7080   -4.7060   -0.4720 hn        1 09H      0.347800
     39 H11         3.1410   -3.7360   -2.4890 h1        1 09H      0.059450
     40 H12         1.7140   -2.9420   -1.6770 h1        1 09H      0.059450
     41 H13         3.3790   -1.2210   -2.0730 h1        1 09H      0.039700
     42 H14         4.7330   -2.2560   -1.4330 h1        1 09H      0.039700
     43 H15         1.6750    0.2960    0.2820 hn        1 09H      0.355500
     44 H16        -0.3960    4.3050   -0.6200 h4        1 09H      0.207000
     45 H17        -1.7320   -1.4580   -0.4590 ha        1 09H      0.158000
     46 H18        -3.5410   -3.1820   -0.3420 ha        1 09H      0.158000
     47 H19        -4.6280    1.7130    0.2230 ha        1 09H      0.139000
     48 H20        -8.0440   -1.8480   -0.5160 h1        1 09H      0.063200
     49 H21        -7.7800   -1.9980    1.2980 h1        1 09H      0.063200
     50 H22        -7.0960    0.2720    1.3730 hc        1 09H      0.066700
     51 H23        -7.3570    0.4210   -0.4140 hc        1 09H      0.066700
@<TRIPOS>BOND
     1    1    2 ar  
     2    1    6 ar  
     3    1   30 1   
     4    2    3 ar  
     5    2   31 1   
     6    3    4 ar  
     7    3   32 1   
     8    4    5 ar  
     9    4   13 1   
    10    5    6 ar  
    11    5    7 1   
    12    6   33 1   
    13    7    8 1   
    14    7   12 1   
    15    8    9 1   
    16    8   34 1   
    17    8   35 1   
    18    9   10 1   
    19    9   36 1   
    20    9   37 1   
    21   10   11 1   
    22   10   38 1   
    23   11   12 1   
    24   11   39 1   
    25   11   40 1   
    26   12   41 1   
    27   12   42 1   
    28   13   14 1   
    29   13   43 1   
    30   14   15 2   
    31   14   16 1   
    32   16   17 1   
    33   16   20 2   
    34   17   18 2   
    35   18   19 1   
    36   18   21 1   
    37   19   20 1   
    38   20   44 1   
    39   21   22 ar  
    40   21   26 ar  
    41   22   23 ar  
    42   22   45 1   
    43   23   24 ar  
    44   23   46 1   
    45   24   25 ar  
    46   24   27 1   
    47   25   26 ar  
    48   25   29 1   
    49   26   47 1   
    50   27   28 1   
    51   28   29 1   
    52   28   48 1   
    53   28   49 1   
    54   29   50 1   
    55   29   51 1   
@<TRIPOS>SUBSTRUCTURE
     1 09H         1 TEMP              0 ****  ****    0 ROOT
