@<TRIPOS>MOLECULE
09H
   51    55     1     0     0
SMALL
bcc


@<TRIPOS>ATOM
      1 C01        -0.1480    0.2630   -0.1310 ca        1 09H     -0.152000
      2 C02         1.2390    0.3550   -0.2110 ca        1 09H     -0.108000
      3 C03         2.0190    0.2880    0.9370 ca        1 09H     -0.155000
      4 C04         1.4300    0.1310    2.2110 ca        1 09H      0.091600
      5 C05         0.0020    0.0340    2.2920 ca        1 09H      0.035600
      6 C06        -0.7550    0.1020    1.1090 ca        1 09H     -0.130000
      7 N07        -0.6220   -0.1330    3.5770 nh        1 09H     -0.631000
      8 C08        -1.3570   -1.3890    3.6840 c3        1 09H      0.171800
      9 C09        -2.0250   -1.5620    5.0630 c3        1 09H      0.159800
     10 N10        -2.8160   -0.4120    5.4540 n7        1 09H     -0.821200
     11 C11        -2.0980    0.8410    5.3360 c3        1 09H      0.159800
     12 C12        -1.4280    1.0220    3.9590 c3        1 09H      0.171800
     13 N13         2.2050    0.0330    3.3780 ns        1 09H     -0.443100
     14 C14         3.5010    0.4930    3.5330 c         1 09H      0.600600
     15 O15         4.1690    1.0050    2.6120 o         1 09H     -0.604100
     16 C16         4.1310    0.3410    4.8800 cc        1 09H      0.280800
     17 N17         3.4810   -0.1840    5.9910 nc        1 09H     -0.623000
     18 C18         4.3140   -0.1850    7.0360 cd        1 09H      0.463900
     19 S19         5.8890    0.4520    6.6780 ss        1 09H     -0.066300
     20 C20         5.4520    0.7300    5.1020 cd        1 09H     -0.195400
     21 C21         3.9920   -0.6530    8.3740 ca        1 09H     -0.175500
     22 C22         2.6600   -0.7430    8.7990 ca        1 09H     -0.051000
     23 C23         2.3330   -1.1830   10.0870 ca        1 09H     -0.159000
     24 C24         3.3840   -1.5290   10.9250 ca        1 09H      0.134100
     25 C25         4.7410   -1.4480   10.5130 ca        1 09H     -0.159300
     26 C26         5.0480   -1.0130    9.2420 ca        1 09H     -0.070000
     27 O27         3.2440   -1.9830   12.2240 os        1 09H     -0.316900
     28 C28         4.5820   -2.2340   12.7470 c3        1 09H      0.118400
     29 C29         5.6040   -1.8930   11.6460 c3        1 09H     -0.053100
     30 H1         -0.7630    0.3180   -1.0410 ha        1 09H      0.133000
     31 H2          1.7280    0.4820   -1.1890 ha        1 09H      0.135000
     32 H3          3.1150    0.3650    0.8400 ha        1 09H      0.171000
     33 H4         -1.8530    0.0310    1.1650 ha        1 09H      0.135000
     34 H5         -2.1490   -1.4820    2.8850 h1        1 09H      0.043700
     35 H6         -0.6210   -2.2290    3.5430 h1        1 09H      0.043700
     36 H7         -2.7190   -2.4470    5.0010 h1        1 09H      0.034700
     37 H8         -1.2220   -1.8050    5.8190 h1        1 09H      0.034700
     38 H9         -3.1510   -0.5290    6.3920 hn        1 09H      0.363800
     39 H11        -2.8430    1.6750    5.4680 h1        1 09H      0.034700
     40 H12        -1.3060    0.9570    6.1330 h1        1 09H      0.034700
     41 H13        -2.2270    1.2440    3.1940 h1        1 09H      0.043700
     42 H14        -0.7430    1.9130    4.0150 h1        1 09H      0.043700
     43 H15         1.7240   -0.2830    4.1950 hn        1 09H      0.354500
     44 H16         6.0920    1.1590    4.3280 h4        1 09H      0.207000
     45 H17         1.8450   -0.4630    8.1110 ha        1 09H      0.156000
     46 H18         1.2900   -1.2530   10.4190 ha        1 09H      0.156000
     47 H19         6.0930   -0.9500    8.9020 ha        1 09H      0.139000
     48 H20         4.6040   -3.3140   13.0330 h1        1 09H      0.063200
     49 H21         4.6880   -1.5820   13.6480 h1        1 09H      0.063200
     50 H22         6.2980   -1.0830   11.9780 hc        1 09H      0.067200
     51 H23         6.2140   -2.7880   11.3720 hc        1 09H      0.067200
@<TRIPOS>BOND
     1    1    2 ar  
     2    1    6 ar  
     3    1   30 1   
     4    2    3 ar  
     5    2   31 1   
     6    3    4 ar  
     7    3   32 1   
     8    4    5 ar  
     9    4   13 1   
    10    5    6 ar  
    11    5    7 1   
    12    6   33 1   
    13    7    8 1   
    14    7   12 1   
    15    8    9 1   
    16    8   34 1   
    17    8   35 1   
    18    9   10 1   
    19    9   36 1   
    20    9   37 1   
    21   10   11 1   
    22   10   38 1   
    23   11   12 1   
    24   11   39 1   
    25   11   40 1   
    26   12   41 1   
    27   12   42 1   
    28   13   14 1   
    29   13   43 1   
    30   14   15 2   
    31   14   16 1   
    32   16   17 1   
    33   16   20 2   
    34   17   18 2   
    35   18   19 1   
    36   18   21 1   
    37   19   20 1   
    38   20   44 1   
    39   21   22 ar  
    40   21   26 ar  
    41   22   23 ar  
    42   22   45 1   
    43   23   24 ar  
    44   23   46 1   
    45   24   25 ar  
    46   24   27 1   
    47   25   26 ar  
    48   25   29 1   
    49   26   47 1   
    50   27   28 1   
    51   28   29 1   
    52   28   48 1   
    53   28   49 1   
    54   29   50 1   
    55   29   51 1   
@<TRIPOS>SUBSTRUCTURE
     1 09H         1 TEMP              0 ****  ****    0 ROOT
