@<TRIPOS>MOLECULE
09H
   52    56     1     0     0
SMALL
bcc


@<TRIPOS>ATOM
      1 C01         0.4400   -0.7830   -0.0920 ca        1 09H     -0.068000
      2 C02         1.7400   -1.1730    0.2340 ca        1 09H     -0.110000
      3 C03         2.1800   -1.1030    1.5510 ca        1 09H     -0.102000
      4 C04         1.3080   -0.6460    2.5550 ca        1 09H     -0.036400
      5 C05        -0.0190   -0.2420    2.2400 ca        1 09H      0.137600
      6 C06        -0.4270   -0.3250    0.8950 ca        1 09H     -0.136000
      7 N07        -0.8680    0.2200    3.3000 nh        1 09H     -0.662000
      8 C08        -2.0770   -0.5940    3.4410 c3        1 09H      0.161300
      9 C09        -3.0140   -0.0690    4.5490 c3        1 09H      0.165800
     10 N10        -3.3000    1.3410    4.4020 n3        1 09H     -0.825200
     11 C11        -2.1060    2.1520    4.2940 c3        1 09H      0.165800
     12 C12        -1.1570    1.6520    3.1860 c3        1 09H      0.161300
     13 N13         1.7820   -0.5980    3.9380 n4        1 09H     -0.516200
     14 C14         2.3230    0.7510    4.3760 c         1 09H      0.493600
     15 O15         2.1680    1.7100    3.6330 o         1 09H     -0.420100
     16 C16         2.9810    0.7470    5.6790 cc        1 09H      0.207800
     17 N17         3.0800   -0.3990    6.4690 nc        1 09H     -0.662000
     18 C18         3.7290   -0.0980    7.5970 cd        1 09H      0.505900
     19 S19         4.2150    1.5700    7.7000 ss        1 09H      0.070700
     20 C20         3.5610    1.8990    6.2270 cd        1 09H     -0.178400
     21 C21         4.0300   -1.0140    8.6800 ca        1 09H     -0.223500
     22 C22         3.3030   -2.2020    8.8410 ca        1 09H     -0.035000
     23 C23         3.5770   -3.0890    9.8860 ca        1 09H     -0.162000
     24 C24         4.6030   -2.7450   10.7590 ca        1 09H      0.165100
     25 C25         5.3540   -1.5440   10.6120 ca        1 09H     -0.153300
     26 C26         5.0720   -0.6810    9.5780 ca        1 09H     -0.060000
     27 O27         5.0050   -3.4990   11.8360 os        1 09H     -0.301900
     28 C28         6.1060   -2.7910   12.4890 c3        1 09H      0.117400
     29 C29         6.3670   -1.4900   11.7070 c3        1 09H     -0.058100
     30 H1          0.0980   -0.8360   -1.1400 ha        1 09H      0.167000
     31 H2          2.4240   -1.5340   -0.5510 ha        1 09H      0.167000
     32 H3          3.2120   -1.4090    1.7920 ha        1 09H      0.152000
     33 H4         -1.4500   -0.0150    0.6200 ha        1 09H      0.168000
     34 H5         -1.7580   -1.6380    3.7150 h1        1 09H      0.053450
     35 H6         -2.6560   -0.6480    2.4750 h1        1 09H      0.053450
     36 H7         -3.9870   -0.6300    4.4670 h1        1 09H      0.044200
     37 H8         -2.5540   -0.3150    5.5510 h1        1 09H      0.044200
     38 H9         -3.8880    1.6670    5.1450 hn        1 09H      0.385800
     39 H11        -1.5290    2.2010    5.2640 h1        1 09H      0.044200
     40 H12        -2.4220    3.1990    4.0260 h1        1 09H      0.044200
     41 H13        -1.6090    1.8980    2.1830 h1        1 09H      0.053450
     42 H14        -0.1800    2.2050    3.2760 h1        1 09H      0.053450
     43 H15         1.0040   -0.8330    4.5740 hn        1 09H      0.476300
     44 H16         3.5700    2.8730    5.7290 h4        1 09H      0.215000
     45 H17         2.4920   -2.4510    8.1380 ha        1 09H      0.145000
     46 H18         3.0070   -4.0190   10.0150 ha        1 09H      0.169000
     47 H19         5.6480    0.2480    9.4460 ha        1 09H      0.138000
     48 H20         6.9760   -3.4910   12.4670 h1        1 09H      0.076700
     49 H21         5.7680   -2.6040   13.5380 h1        1 09H      0.076700
     50 H22         7.4100   -1.4670   11.3030 hc        1 09H      0.076700
     51 H23         6.2230   -0.5930   12.3580 hc        1 09H      0.076700
     52 H132        2.5230   -1.3010    4.0630 hn        1 09H      0.476300
@<TRIPOS>BOND
     1    1    2 ar  
     2    1    6 ar  
     3    1   30 1   
     4    2    3 ar  
     5    2   31 1   
     6    3    4 ar  
     7    3   32 1   
     8    4    5 ar  
     9    4   13 1   
    10    5    6 ar  
    11    5    7 1   
    12    6   33 1   
    13    7    8 1   
    14    7   12 1   
    15    8    9 1   
    16    8   34 1   
    17    8   35 1   
    18    9   10 1   
    19    9   36 1   
    20    9   37 1   
    21   10   11 1   
    22   10   38 1   
    23   11   12 1   
    24   11   39 1   
    25   11   40 1   
    26   12   41 1   
    27   12   42 1   
    28   13   14 1   
    29   13   43 1   
    30   13   52 1   
    31   14   15 2   
    32   14   16 1   
    33   16   17 1   
    34   16   20 2   
    35   17   18 2   
    36   18   19 1   
    37   18   21 1   
    38   19   20 1   
    39   20   44 1   
    40   21   22 ar  
    41   21   26 ar  
    42   22   23 ar  
    43   22   45 1   
    44   23   24 ar  
    45   23   46 1   
    46   24   25 ar  
    47   24   27 1   
    48   25   26 ar  
    49   25   29 1   
    50   26   47 1   
    51   27   28 1   
    52   28   29 1   
    53   28   48 1   
    54   28   49 1   
    55   29   50 1   
    56   29   51 1   
@<TRIPOS>SUBSTRUCTURE
     1 09H         1 TEMP              0 ****  ****    0 ROOT
