@<TRIPOS>MOLECULE
09J
   55    59     1     0     0
SMALL
bcc


@<TRIPOS>ATOM
      1 C23         2.7370   -0.6610    1.0350 cx        1 09J     -0.100400
      2 C24         3.0710   -1.2150    2.3850 cx        1 09J     -0.100400
      3 C22         1.7620   -0.4800    2.1810 cx        1 09J     -0.002500
      4 N5          0.4730   -1.1920    2.1910 n4        1 09J     -0.648800
      5 C21        -0.1410   -1.1820    3.5940 c         1 09J      0.592700
      6 O2         -0.5610   -0.0980    3.9630 o         1 09J     -0.411100
      7 C11        -0.1050   -2.4660    4.2900 ca        1 09J     -0.217600
      8 C10         0.3050   -2.4700    5.6270 ca        1 09J     -0.011000
      9 C12        -0.4900   -3.6630    3.6640 ca        1 09J     -0.094000
     10 C13        -0.4370   -4.8480    4.3800 ca        1 09J     -0.129000
     11 C14         0.0060   -4.8780    5.7160 ca        1 09J      0.016700
     12 C20         0.0650   -6.1850    6.4080 c3        1 09J     -0.086800
     13 C9          0.3760   -3.6740    6.3450 ca        1 09J     -0.030800
     14 C4          0.8550   -3.6370    7.7250 cc        1 09J     -0.178400
     15 C5          0.1990   -4.2540    8.7420 cd        1 09J     -0.053800
     16 C3          2.0870   -2.8530    7.9910 c         1 09J      0.695700
     17 O1          2.6570   -2.1820    7.1120 o         1 09J     -0.621500
     18 N4          2.7040   -2.9100    9.2920 n         1 09J     -0.297100
     19 C7          3.5490   -1.7510    9.6460 c3        1 09J      0.059000
     20 C8          2.8170   -0.5210   10.1430 c3        1 09J     -0.129100
     21 N3          2.0030   -3.5220   10.2860 na        1 09J     -0.183300
     22 C1          0.7700   -4.2170   10.0560 cd        1 09J      0.320300
     23 N1          0.3850   -4.8060   11.2400 nc        1 09J     -0.269000
     24 N2          1.2740   -4.5550   12.1520 nc        1 09J     -0.296000
     25 C2          2.3080   -3.7890   11.6350 cd        1 09J      0.456000
     26 C6          3.4990   -3.3830   12.3690 ca        1 09J     -0.188500
     27 C15         3.4060   -2.5110   13.4660 ca        1 09J      0.074400
     28 CL1         1.9220   -1.8040   13.8750 cl        1 09J     -0.047400
     29 C16         4.5380   -2.2080   14.2290 ca        1 09J     -0.142000
     30 C17         5.7690   -2.7740   13.9020 ca        1 09J     -0.069000
     31 C18         5.8920   -3.6340   12.8160 ca        1 09J     -0.170000
     32 C19         4.7570   -3.9430   12.0440 ca        1 09J      0.164900
     33 F1          4.8750   -4.7750   10.9850 f         1 09J     -0.122900
     34 H1          2.5010   -1.3600    0.2100 hc        1 09J      0.110950
     35 H2          3.2580    0.2440    0.6650 hc        1 09J      0.110950
     36 H3          3.8370   -0.7200    3.0140 hc        1 09J      0.110950
     37 H4          3.0750   -2.3120    2.5310 hc        1 09J      0.110950
     38 H5          1.6320    0.5330    2.6310 hx        1 09J      0.153700
     39 H6         -0.1600   -0.7130    1.5400 hn        1 09J      0.454300
     40 H7          0.6010   -1.5250    6.1190 ha        1 09J      0.175000
     41 H8         -0.8660   -3.6730    2.6300 ha        1 09J      0.133000
     42 H9         -0.7460   -5.7910    3.8980 ha        1 09J      0.164000
     43 H10         0.2750   -7.0110    5.6820 hc        1 09J      0.073033
     44 H11         0.8630   -6.1960    7.1930 hc        1 09J      0.073033
     45 H12        -0.9180   -6.4000    6.9010 hc        1 09J      0.073033
     46 H13        -0.7530   -4.7970    8.6120 ha        1 09J      0.181000
     47 H14         4.1220   -1.5040    8.7050 h1        1 09J      0.091200
     48 H15         4.2890   -2.0990   10.4220 h1        1 09J      0.091200
     49 H16         2.2750   -0.7230   11.0990 hc        1 09J      0.056033
     50 H17         2.0840   -0.1520    9.3860 hc        1 09J      0.056033
     51 H18         3.5680    0.2860   10.3290 hc        1 09J      0.056033
     52 H19         4.4540   -1.5290   15.0930 ha        1 09J      0.166000
     53 H20         6.6560   -2.5410   14.5140 ha        1 09J      0.158000
     54 H21         6.8610   -4.0860   12.5560 ha        1 09J      0.166000
     55 H52         0.6050   -2.1610    1.8810 hn        1 09J      0.454300
@<TRIPOS>BOND
     1    1    2 1   
     2    1    3 1   
     3    1   34 1   
     4    1   35 1   
     5    2    3 1   
     6    2   36 1   
     7    2   37 1   
     8    3    4 1   
     9    3   38 1   
    10    4    5 1   
    11    4   39 1   
    12    4   55 1   
    13    5    6 2   
    14    5    7 1   
    15    7    8 ar  
    16    7    9 ar  
    17    8   13 ar  
    18    8   40 1   
    19    9   10 ar  
    20    9   41 1   
    21   10   11 ar  
    22   10   42 1   
    23   11   12 1   
    24   11   13 ar  
    25   12   43 1   
    26   12   44 1   
    27   12   45 1   
    28   13   14 1   
    29   14   15 2   
    30   14   16 1   
    31   15   22 1   
    32   15   46 1   
    33   16   17 2   
    34   16   18 1   
    35   18   19 1   
    36   18   21 1   
    37   19   20 1   
    38   19   47 1   
    39   19   48 1   
    40   20   49 1   
    41   20   50 1   
    42   20   51 1   
    43   21   22 1   
    44   21   25 1   
    45   22   23 2   
    46   23   24 1   
    47   24   25 2   
    48   25   26 1   
    49   26   27 ar  
    50   26   32 ar  
    51   27   28 1   
    52   27   29 ar  
    53   29   30 ar  
    54   29   52 1   
    55   30   31 ar  
    56   30   53 1   
    57   31   32 ar  
    58   31   54 1   
    59   32   33 1   
@<TRIPOS>SUBSTRUCTURE
     1 09J         1 TEMP              0 ****  ****    0 ROOT
