@<TRIPOS>MOLECULE
09J
   54    45     1     0     0
SMALL
bcc


@<TRIPOS>ATOM
      1 C23         6.1350    2.7500    4.8770 cx        1 09J     -0.232500
      2 C24         5.9180    3.8610    4.3100 cx        1 09J     -0.232500
      3 C22         6.3430    2.9020    3.5430 cx        1 09J     -0.023000
      4 N5          4.7990    2.9660    2.0500 n3        1 09J     -0.350000
      5 C21         4.5950    1.8460    1.1830 c1        1 09J      0.352000
      6 O2          5.2980    0.8560    1.2910 o         1 09J     -0.361000
      7 C11         3.4750    1.8780    0.1440 c1        1 09J     -0.123500
      8 C10         2.4340    0.9560    0.2160 c1        1 09J     -0.022500
      9 C12         3.4490    2.8840   -0.8190 c1        1 09J     -0.121000
     10 C13         2.3820    2.9690   -1.7100 c1        1 09J     -0.121000
     11 C14         1.3410    2.0470   -1.6390 c1        1 09J     -0.030000
     12 C20         0.1630    2.1450   -2.6150 c2        1 09J     -0.195000
     13 C9          1.3670    1.0400   -0.6750 c1        1 09J     -0.030000
     14 C4          0.2610   -0.0270   -0.6500 c1        1 09J     -0.123500
     15 C5          0.2720   -1.0960   -1.6080 c1        1 09J     -0.022500
     16 C3         -0.8500    0.0970    0.2830 c1        1 09J      0.322000
     17 O1         -0.8530    0.9900    1.1140 o         1 09J     -0.303000
     18 N4         -1.9370   -0.8580    0.2430 n2        1 09J     -0.171000
     19 C7         -3.0200   -0.7550    1.1900 c3        1 09J     -0.063000
     20 C8         -2.5920   -1.3750    2.5260 c3        1 09J     -0.247000
     21 N3         -1.9230   -1.9670   -0.7540 n3        1 09J     -0.044000
     22 C1         -0.8730   -2.0900   -1.6420 c1        1 09J     -0.071000
     23 N1         -1.1570   -3.1100   -2.4850 n2        1 09J     -0.040000
     24 N2         -2.3780   -3.6260   -2.1310 n2        1 09J     -0.040000
     25 C2         -2.8440   -2.9150   -1.0620 c1        1 09J     -0.071000
     26 C6         -4.1390   -3.3190   -1.7750 c1        1 09J     -0.058000
     27 C15        -4.4830   -2.7180   -2.9820 c2        1 09J     -0.012000
     28 CL1        -3.4100   -1.5530   -3.7130 cl        1 09J      0.024000
     29 C16        -5.6980   -3.0190   -3.5860 c1        1 09J     -0.149000
     30 C17        -6.5690   -3.9200   -2.9850 c1        1 09J     -0.121000
     31 C18        -6.2260   -4.5200   -1.7800 c1        1 09J     -0.121000
     32 C19        -5.0110   -4.2200   -1.1740 c1        1 09J      0.139000
     33 F1         -4.6600   -4.8330   -0.0340 f         1 09J     -0.085000
     34 H1          6.9440    2.7050    5.4340 hc        1 09J      0.113250
     35 H2          5.3360    2.2360    5.1290 hc        1 09J      0.113250
     36 H3          4.9720    4.1020    4.2000 hc        1 09J      0.113250
     37 H4          6.5730    4.5690    4.5030 hc        1 09J      0.113250
     38 H5          7.2540    3.1230    3.2500 h1        1 09J      0.162000
     39 H6          4.2880    3.7180    1.9530 hn        1 09J      0.225000
     40 H7          2.4520    0.2470    0.8940 ha        1 09J      0.171000
     41 H8          4.1830    3.5340   -0.8700 ha        1 09J      0.146750
     42 H9          2.3640    3.6780   -2.3890 ha        1 09J      0.146750
     43 H10         0.0510    1.2880   -3.0800 ha        1 09J      0.095667
     44 H11        -0.6580    2.3570   -2.1180 ha        1 09J      0.095667
     45 H12         0.3400    2.8550   -3.2730 ha        1 09J      0.095667
     46 H13         1.0560   -1.2310   -2.1830 ha        1 09J      0.171000
     47 H14        -3.2470    0.1930    1.3270 h1        1 09J      0.126000
     48 H15        -3.8030   -1.2330    0.8440 h1        1 09J      0.126000
     49 H16        -1.6140   -1.4580    2.5500 hc        1 09J      0.092667
     50 H17        -2.9980   -2.2650    2.6190 hc        1 09J      0.092667
     51 H18        -2.8910   -0.7990    3.2660 hc        1 09J      0.092667
     52 H19        -5.9400   -2.5960   -4.4370 ha        1 09J      0.158000
     53 H20        -7.4270   -4.1320   -3.4130 ha        1 09J      0.146750
     54 H21        -6.8410   -5.1560   -1.3550 ha        1 09J      0.146750
@<TRIPOS>BOND
     1    1    2 1   
     2    1    3 1   
     3    1   34 1   
     4    1   35 1   
     5    2    3 1   
     6    2   36 1   
     7    2   37 1   
     8    3    4 1   
     9    3   38 1   
    10    4    5 1   
    11    4   39 1   
    12    5    6 1   
    13    7    8 1   
    14    8   40 1   
    15    9   10 1   
    16    9   41 1   
    17   10   42 1   
    18   11   13 1   
    19   12   43 1   
    20   12   44 1   
    21   12   45 1   
    22   14   15 1   
    23   15   46 1   
    24   16   17 1   
    25   18   19 1   
    26   18   21 1   
    27   19   20 1   
    28   19   47 1   
    29   19   48 1   
    30   20   49 1   
    31   20   50 1   
    32   20   51 1   
    33   21   22 1   
    34   21   25 1   
    35   22   23 1   
    36   23   24 1   
    37   24   25 1   
    38   26   27 1   
    39   26   32 1   
    40   27   28 1   
    41   27   29 1   
    42   29   52 1   
    43   30   31 1   
    44   30   53 1   
    45   31   54 1   
@<TRIPOS>SUBSTRUCTURE
     1 09J         1 TEMP              0 ****  ****    0 ROOT
