@<TRIPOS>MOLECULE
09J
   55    59     1     0     0
SMALL
bcc


@<TRIPOS>ATOM
      1 C23         2.8350   -0.8000    1.0040 cx        1 09J     -0.100400
      2 C24         3.1430   -1.3440    2.3640 cx        1 09J     -0.100400
      3 C22         1.8640   -0.5630    2.1430 cx        1 09J     -0.002500
      4 N5          0.5500   -1.2260    2.1600 ny        1 09J     -0.648800
      5 C21        -0.0690   -1.1680    3.5600 c         1 09J      0.592700
      6 O2         -0.4480   -0.0620    3.9090 o         1 09J     -0.411100
      7 C11        -0.0840   -2.4400    4.2770 ca        1 09J     -0.217600
      8 C10         0.3210   -2.4370    5.6160 ca        1 09J     -0.011000
      9 C12        -0.5120   -3.6320    3.6700 ca        1 09J     -0.094000
     10 C13        -0.5070   -4.8060    4.4050 ca        1 09J     -0.129000
     11 C14        -0.0700   -4.8300    5.7440 ca        1 09J      0.016700
     12 C20        -0.0630   -6.1270    6.4570 c3        1 09J     -0.086800
     13 C9          0.3430   -3.6310    6.3540 ca        1 09J     -0.030800
     14 C4          0.8180   -3.5890    7.7360 cc        1 09J     -0.178400
     15 C5          0.1350   -4.1630    8.7600 cd        1 09J     -0.053800
     16 C3          2.0780   -2.8480    7.9940 c         1 09J      0.695700
     17 O1          2.6760   -2.2140    7.1060 o         1 09J     -0.621500
     18 N4          2.6880   -2.9070    9.2980 n         1 09J     -0.297100
     19 C7          3.5740   -1.7750    9.6360 c3        1 09J      0.059000
     20 C8          2.8880   -0.5100   10.1100 c3        1 09J     -0.129100
     21 N3          1.9600   -3.4750   10.2990 na        1 09J     -0.183300
     22 C1          0.7020   -4.1260   10.0750 cd        1 09J      0.320300
     23 N1          0.2910   -4.6800   11.2670 nc        1 09J     -0.269000
     24 N2          1.1850   -4.4480   12.1780 nc        1 09J     -0.296000
     25 C2          2.2500   -3.7310   11.6540 cd        1 09J      0.456000
     26 C6          3.4520   -3.3580   12.3860 ca        1 09J     -0.188500
     27 C15         3.3880   -2.4640   13.4680 ca        1 09J      0.074400
     28 Cl1         1.9300   -1.6960   13.8590 cl        1 09J     -0.047400
     29 C16         4.5280   -2.1920   14.2310 ca        1 09J     -0.142000
     30 C17         5.7380   -2.8100   13.9190 ca        1 09J     -0.069000
     31 C18         5.8320   -3.6920   12.8480 ca        1 09J     -0.170000
     32 C19         4.6890   -3.9700   12.0760 ca        1 09J      0.164900
     33 F1          4.7790   -4.8240   11.0310 f         1 09J     -0.122900
     34 H1          2.5760   -1.5030    0.1900 hc        1 09J      0.110950
     35 H2          3.3920    0.0790    0.6210 hc        1 09J      0.110950
     36 H3          3.9260   -0.8680    2.9870 hc        1 09J      0.110950
     37 H4          3.1060   -2.4370    2.5290 hc        1 09J      0.110950
     38 H5          1.7720    0.4620    2.5760 hx        1 09J      0.153700
     39 H6          0.6460   -2.2030    1.8670 hn        1 09J      0.454300
     40 H7          0.6500   -1.4970    6.0930 ha        1 09J      0.175000
     41 H8         -0.8840   -3.6450    2.6340 ha        1 09J      0.133000
     42 H9         -0.8500   -5.7450    3.9380 ha        1 09J      0.164000
     43 H10         0.7310   -6.1550    7.2460 hc        1 09J      0.073033
     44 H11        -1.0560   -6.2960    6.9500 hc        1 09J      0.073033
     45 H12         0.1170   -6.9730    5.7460 hc        1 09J      0.073033
     46 H13        -0.8360   -4.6720    8.6340 ha        1 09J      0.181000
     47 H14         4.1600   -1.5660    8.6940 h1        1 09J      0.091200
     48 H15         4.2980   -2.1380   10.4210 h1        1 09J      0.091200
     49 H16         2.1720   -0.1270    9.3430 hc        1 09J      0.056033
     50 H17         3.6680    0.2710   10.2860 hc        1 09J      0.056033
     51 H18         2.3350   -0.6750   11.0660 hc        1 09J      0.056033
     52 H19         4.4670   -1.4960   15.0830 ha        1 09J      0.166000
     53 H20         6.6310   -2.6000   14.5310 ha        1 09J      0.158000
     54 H21         6.7850   -4.1840   12.6000 ha        1 09J      0.166000
     55 H52        -0.0620   -0.7330    1.4980 hn        1 09J      0.454300
@<TRIPOS>BOND
     1    1    2 1   
     2    1    3 1   
     3    1   34 1   
     4    1   35 1   
     5    2    3 1   
     6    2   36 1   
     7    2   37 1   
     8    3    4 1   
     9    3   38 1   
    10    4    5 1   
    11    4   39 1   
    12    4   55 1   
    13    5    6 2   
    14    5    7 1   
    15    7    8 ar  
    16    7    9 ar  
    17    8   13 ar  
    18    8   40 1   
    19    9   10 ar  
    20    9   41 1   
    21   10   11 ar  
    22   10   42 1   
    23   11   12 1   
    24   11   13 ar  
    25   12   43 1   
    26   12   44 1   
    27   12   45 1   
    28   13   14 1   
    29   14   15 2   
    30   14   16 1   
    31   15   22 1   
    32   15   46 1   
    33   16   17 2   
    34   16   18 1   
    35   18   19 1   
    36   18   21 1   
    37   19   20 1   
    38   19   47 1   
    39   19   48 1   
    40   20   49 1   
    41   20   50 1   
    42   20   51 1   
    43   21   22 1   
    44   21   25 1   
    45   22   23 2   
    46   23   24 1   
    47   24   25 2   
    48   25   26 1   
    49   26   27 ar  
    50   26   32 ar  
    51   27   28 1   
    52   27   29 ar  
    53   29   30 ar  
    54   29   52 1   
    55   30   31 ar  
    56   30   53 1   
    57   31   32 ar  
    58   31   54 1   
    59   32   33 1   
@<TRIPOS>SUBSTRUCTURE
     1 09J         1 TEMP              0 ****  ****    0 ROOT
