@<TRIPOS>MOLECULE
09J
   55    59     1     0     0
SMALL
bcc


@<TRIPOS>ATOM
      1 C23         2.8140   -0.7730    1.0080 cx        1 09J     -0.100400
      2 C24         3.1270   -1.3230    2.3650 cx        1 09J     -0.100400
      3 C22         1.8460   -0.5440    2.1510 cx        1 09J     -0.002500
      4 N5          0.5330   -1.2100    2.1680 n4        1 09J     -0.648800
      5 C21        -0.0820   -1.1590    3.5710 c         1 09J      0.592700
      6 O2         -0.4640   -0.0570    3.9250 o         1 09J     -0.411100
      7 C11        -0.0920   -2.4350    4.2820 ca        1 09J     -0.217600
      8 C10         0.3160   -2.4360    5.6210 ca        1 09J     -0.011000
      9 C12        -0.5170   -3.6260    3.6720 ca        1 09J     -0.094000
     10 C13        -0.5060   -4.8030    4.4030 ca        1 09J     -0.129000
     11 C14        -0.0660   -4.8310    5.7400 ca        1 09J      0.016700
     12 C20        -0.0530   -6.1300    6.4490 c3        1 09J     -0.086800
     13 C9          0.3440   -3.6320    6.3540 ca        1 09J     -0.030800
     14 C4          0.8210   -3.5940    7.7350 cc        1 09J     -0.178400
     15 C5          0.1430   -4.1750    8.7580 cd        1 09J     -0.053800
     16 C3          2.0790   -2.8490    7.9930 c         1 09J      0.695700
     17 O1          2.6740   -2.2090    7.1070 o         1 09J     -0.621500
     18 N4          2.6920   -2.9110    9.2960 n         1 09J     -0.297100
     19 C7          3.5750   -1.7760    9.6370 c3        1 09J      0.059000
     20 C8          2.8840   -0.5160   10.1170 c3        1 09J     -0.129100
     21 N3          1.9680   -3.4850   10.2960 na        1 09J     -0.183300
     22 C1          0.7120   -4.1410   10.0730 cd        1 09J      0.320300
     23 N1          0.3060   -4.7010   11.2630 nc        1 09J     -0.269000
     24 N2          1.2010   -4.4680   12.1740 nc        1 09J     -0.296000
     25 C2          2.2620   -3.7450   11.6500 cd        1 09J      0.456000
     26 C6          3.4640   -3.3700   12.3810 ca        1 09J     -0.188500
     27 C15         3.3990   -2.4810   13.4660 ca        1 09J      0.074400
     28 CL1         1.9390   -1.7200   13.8630 cl        1 09J     -0.047400
     29 C16         4.5390   -2.2070   14.2280 ca        1 09J     -0.142000
     30 C17         5.7510   -2.8190   13.9120 ca        1 09J     -0.069000
     31 C18         5.8460   -3.6970   12.8360 ca        1 09J     -0.170000
     32 C19         4.7030   -3.9770   12.0660 ca        1 09J      0.164900
     33 F1          4.7940   -4.8260   11.0180 f         1 09J     -0.122900
     34 H1          2.5540   -1.4720    0.1920 hc        1 09J      0.110950
     35 H2          3.3670    0.1080    0.6280 hc        1 09J      0.110950
     36 H3          3.9110   -0.8490    2.9880 hc        1 09J      0.110950
     37 H4          3.0930   -2.4180    2.5240 hc        1 09J      0.110950
     38 H5          1.7520    0.4780    2.5900 hx        1 09J      0.153700
     39 H6         -0.0820   -0.7150    1.5100 hn        1 09J      0.454300
     40 H7          0.6430   -1.4960    6.1010 ha        1 09J      0.175000
     41 H8         -0.8910   -3.6360    2.6370 ha        1 09J      0.133000
     42 H9         -0.8470   -5.7410    3.9330 ha        1 09J      0.164000
     43 H10         0.1290   -6.9720    5.7340 hc        1 09J      0.073033
     44 H11        -1.0440   -6.3050    6.9420 hc        1 09J      0.073033
     45 H12         0.7420   -6.1580    7.2360 hc        1 09J      0.073033
     46 H13        -0.8260   -4.6870    8.6320 ha        1 09J      0.181000
     47 H14         4.3020   -2.1390   10.4190 h1        1 09J      0.091200
     48 H15         4.1580   -1.5620    8.6950 h1        1 09J      0.091200
     49 H16         3.6620    0.2670   10.2950 hc        1 09J      0.056033
     50 H17         2.1660   -0.1330    9.3540 hc        1 09J      0.056033
     51 H18         2.3340   -0.6880   11.0740 hc        1 09J      0.056033
     52 H19         4.4770   -1.5150   15.0830 ha        1 09J      0.166000
     53 H20         6.6440   -2.6080   14.5230 ha        1 09J      0.158000
     54 H21         6.8000   -4.1840   12.5850 ha        1 09J      0.166000
     55 H52         0.6300   -2.1860    1.8710 hn        1 09J      0.454300
@<TRIPOS>BOND
     1    1    2 1   
     2    1    3 1   
     3    1   34 1   
     4    1   35 1   
     5    2    3 1   
     6    2   36 1   
     7    2   37 1   
     8    3    4 1   
     9    3   38 1   
    10    4    5 1   
    11    4   39 1   
    12    4   55 1   
    13    5    6 2   
    14    5    7 1   
    15    7    8 ar  
    16    7    9 ar  
    17    8   13 ar  
    18    8   40 1   
    19    9   10 ar  
    20    9   41 1   
    21   10   11 ar  
    22   10   42 1   
    23   11   12 1   
    24   11   13 ar  
    25   12   43 1   
    26   12   44 1   
    27   12   45 1   
    28   13   14 1   
    29   14   15 2   
    30   14   16 1   
    31   15   22 1   
    32   15   46 1   
    33   16   17 2   
    34   16   18 1   
    35   18   19 1   
    36   18   21 1   
    37   19   20 1   
    38   19   47 1   
    39   19   48 1   
    40   20   49 1   
    41   20   50 1   
    42   20   51 1   
    43   21   22 1   
    44   21   25 1   
    45   22   23 2   
    46   23   24 1   
    47   24   25 2   
    48   25   26 1   
    49   26   27 ar  
    50   26   32 ar  
    51   27   28 1   
    52   27   29 ar  
    53   29   30 ar  
    54   29   52 1   
    55   30   31 ar  
    56   30   53 1   
    57   31   32 ar  
    58   31   54 1   
    59   32   33 1   
@<TRIPOS>SUBSTRUCTURE
     1 09J         1 TEMP              0 ****  ****    0 ROOT
