@<TRIPOS>MOLECULE
09J
   54    58     1     0     0
SMALL
bcc


@<TRIPOS>ATOM
      1 C23        -9.0490    1.3550   -0.0560 cx        1 09J     -0.153900
      2 C24        -8.2560    2.3420   -0.8630 cx        1 09J     -0.153900
      3 C22        -7.5900    1.5990    0.2810 cx        1 09J      0.053700
      4 N5         -6.6040    0.6060    0.0500 n         1 09J     -0.540900
      5 C21        -5.4610    0.5040    0.8220 c         1 09J      0.678700
      6 O2         -5.2520    1.2690    1.7850 o         1 09J     -0.600100
      7 C11        -4.4840   -0.5580    0.4450 ca        1 09J     -0.151600
      8 C10        -3.1220   -0.2660    0.5590 ca        1 09J     -0.057000
      9 C12        -4.8890   -1.8260    0.0180 ca        1 09J     -0.088000
     10 C13        -3.9340   -2.7860   -0.3040 ca        1 09J     -0.143000
     11 C14        -2.5660   -2.5020   -0.2110 ca        1 09J     -0.011300
     12 C20        -1.5700   -3.5390   -0.5670 c3        1 09J     -0.070800
     13 C9         -2.1600   -1.2280    0.2270 ca        1 09J     -0.067800
     14 C4         -0.7440   -0.8830    0.3680 cc        1 09J     -0.124400
     15 C5         -0.1840   -0.6800    1.5840 cd        1 09J     -0.097800
     16 C3          0.0440   -0.6950   -0.8760 c         1 09J      0.682700
     17 O1         -0.4200   -0.8480   -2.0150 o         1 09J     -0.574500
     18 N4          1.4610   -0.3750   -0.7900 n         1 09J     -0.303100
     19 C7          1.9550    0.4920   -1.8780 c3        1 09J      0.051000
     20 C8          1.6330    1.9690   -1.7600 c3        1 09J     -0.128100
     21 N3          1.9690   -0.1700    0.4580 na        1 09J     -0.192300
     22 C1          1.2140   -0.3450    1.6590 cd        1 09J      0.355300
     23 N1          2.0660   -0.1890    2.7260 nc        1 09J     -0.297000
     24 N2          3.2690    0.0460    2.2860 nc        1 09J     -0.309000
     25 C2          3.2900    0.0500    0.9040 cd        1 09J      0.425000
     26 C6          4.4730    0.2210    0.0720 ca        1 09J     -0.165500
     27 C15         5.1950    1.4250    0.0800 ca        1 09J      0.072400
     28 CL1         4.6450    2.7510    0.9820 cl        1 09J     -0.052400
     29 C16         6.3740    1.5520   -0.6620 ca        1 09J     -0.149000
     30 C17         6.8390    0.4780   -1.4190 ca        1 09J     -0.079000
     31 C18         6.1410   -0.7240   -1.4510 ca        1 09J     -0.175000
     32 C19         4.9550   -0.8590   -0.7050 ca        1 09J      0.166900
     33 F1          4.2790   -2.0290   -0.7380 f         1 09J     -0.117900
     34 H1         -9.8110    1.7210    0.6540 hc        1 09J      0.073950
     35 H2         -9.3540    0.4060   -0.5300 hc        1 09J      0.073950
     36 H3         -8.0010    2.0890   -1.9070 hc        1 09J      0.073950
     37 H4         -8.4460    3.4220   -0.7370 hc        1 09J      0.073950
     38 H5         -7.3620    2.1780    1.2080 h1        1 09J      0.122700
     39 H6         -6.7010    0.0340   -0.7540 hn        1 09J      0.311500
     40 H7         -2.8130    0.7290    0.9210 ha        1 09J      0.157000
     41 H8         -5.9580   -2.0810   -0.0510 ha        1 09J      0.138000
     42 H9         -4.2570   -3.7840   -0.6360 ha        1 09J      0.141000
     43 H10        -0.9400   -3.1800   -1.4220 hc        1 09J      0.056700
     44 H11        -0.8960   -3.7470    0.3020 hc        1 09J      0.056700
     45 H12        -2.0650   -4.4940   -0.8680 hc        1 09J      0.056700
     46 H13        -0.7430   -0.7670    2.5300 ha        1 09J      0.185000
     47 H14         3.0710    0.3490   -1.9450 h1        1 09J      0.086200
     48 H15         1.4950    0.0740   -2.8200 h1        1 09J      0.086200
     49 H16         2.0240    2.4910   -2.6670 hc        1 09J      0.053033
     50 H17         0.5310    2.1370   -1.7040 hc        1 09J      0.053033
     51 H18         2.1110    2.4230   -0.8590 hc        1 09J      0.053033
     52 H19         6.9360    2.4990   -0.6430 ha        1 09J      0.158000
     53 H20         7.7710    0.5820   -1.9960 ha        1 09J      0.149000
     54 H21         6.5040   -1.5750   -2.0450 ha        1 09J      0.159000
@<TRIPOS>BOND
     1    1    2 1   
     2    1    3 1   
     3    1   34 1   
     4    1   35 1   
     5    2    3 1   
     6    2   36 1   
     7    2   37 1   
     8    3    4 1   
     9    3   38 1   
    10    4    5 1   
    11    4   39 1   
    12    5    6 2   
    13    5    7 1   
    14    7    8 ar  
    15    7    9 ar  
    16    8   13 ar  
    17    8   40 1   
    18    9   10 ar  
    19    9   41 1   
    20   10   11 ar  
    21   10   42 1   
    22   11   12 1   
    23   11   13 ar  
    24   12   43 1   
    25   12   44 1   
    26   12   45 1   
    27   13   14 1   
    28   14   15 2   
    29   14   16 1   
    30   15   22 1   
    31   15   46 1   
    32   16   17 2   
    33   16   18 1   
    34   18   19 1   
    35   18   21 1   
    36   19   20 1   
    37   19   47 1   
    38   19   48 1   
    39   20   49 1   
    40   20   50 1   
    41   20   51 1   
    42   21   22 1   
    43   21   25 1   
    44   22   23 2   
    45   23   24 1   
    46   24   25 2   
    47   25   26 1   
    48   26   27 ar  
    49   26   32 ar  
    50   27   28 1   
    51   27   29 ar  
    52   29   30 ar  
    53   29   52 1   
    54   30   31 ar  
    55   30   53 1   
    56   31   32 ar  
    57   31   54 1   
    58   32   33 1   
@<TRIPOS>SUBSTRUCTURE
     1 09J         1 TEMP              0 ****  ****    0 ROOT
