@<TRIPOS>MOLECULE
09K
   37    39     1     0     0
SMALL
bcc


@<TRIPOS>ATOM
      1 C1          0.8800    0.6370   -0.1650 c3        1 09K      0.821700
      2 F1          1.8500    1.5050   -0.5500 f         1 09K     -0.214633
      3 N1         -0.5540    5.5580    4.0730 ns        1 09K     -0.457100
      4 O1          1.0430    0.2350    1.1710 os        1 09K     -0.368900
      5 C2          0.8440    1.1900    2.1690 ca        1 09K      0.090100
      6 F2         -0.3310    1.2030   -0.3920 f         1 09K     -0.214633
      7 N2         -1.1300    7.4550    2.5740 na        1 09K     -0.040600
      8 O2         -1.3550    5.2910    6.2240 o         1 09K     -0.570100
      9 C3          1.7610    2.2310    2.3600 ca        1 09K     -0.120000
     10 F3          0.9890   -0.5040   -0.8860 f         1 09K     -0.214633
     11 N3         -2.0370    8.4310    2.4810 nc        1 09K     -0.522800
     12 C4          1.5960    3.0770    3.4530 ca        1 09K     -0.117000
     13 C5          0.5350    2.8870    4.3490 ca        1 09K     -0.091300
     14 C6         -0.3670    1.8360    4.1430 ca        1 09K     -0.117000
     15 C7         -0.2240    0.9830    3.0510 ca        1 09K     -0.120000
     16 C8          0.3820    3.7800    5.5270 c3        1 09K     -0.115100
     17 C9         -0.5910    4.9310    5.3130 c         1 09K      0.672100
     18 C10        -1.3380    6.6620    3.7430 cc        1 09K      0.015300
     19 C11        -2.7910    8.3970    3.6170 cd        1 09K      0.359600
     20 C12        -2.3840    7.2830    4.4540 cd        1 09K     -0.286300
     21 C13        -3.8560    9.3320    3.9670 cx        1 09K     -0.161000
     22 C14        -3.7430   10.7950    3.6140 cx        1 09K     -0.118900
     23 C15        -4.7360    9.9350    2.8980 cx        1 09K     -0.118900
     24 HN1         0.0540    5.1890    3.3770 hn        1 09K      0.324500
     25 H3          2.5950    2.3690    1.6560 ha        1 09K      0.160000
     26 H4          2.3170    3.8930    3.6200 ha        1 09K      0.147000
     27 H6         -1.1980    1.6800    4.8490 ha        1 09K      0.147000
     28 H7         -0.9250    0.1520    2.8830 ha        1 09K      0.160000
     29 H8          1.3730    4.2270    5.8150 hc        1 09K      0.091200
     30 H8A         0.0050    3.1930    6.4100 hc        1 09K      0.091200
     31 H12        -2.7860    6.9970    5.4210 ha        1 09K      0.192000
     32 H13        -4.3260    9.0660    4.9370 hc        1 09K      0.089700
     33 H14        -4.1010   11.5390    4.3490 hc        1 09K      0.074950
     34 H14A       -2.8470   11.1470    3.0710 hc        1 09K      0.074950
     35 H15        -5.8120   10.0560    3.1150 hc        1 09K      0.074950
     36 H15A       -4.5530    9.6710    1.8410 hc        1 09K      0.074950
     37 HN2        -0.6780    7.1440    1.7450 hn        1 09K      0.306700
@<TRIPOS>BOND
     1    1    2 1   
     2    1    4 1   
     3    1    6 1   
     4    1   10 1   
     5    3   17 1   
     6    3   18 1   
     7    3   24 1   
     8    4    5 1   
     9    5    9 ar  
    10    5   15 ar  
    11    7   11 1   
    12    7   18 1   
    13    7   37 1   
    14    8   17 2   
    15    9   12 ar  
    16    9   25 1   
    17   11   19 2   
    18   12   13 ar  
    19   12   26 1   
    20   13   14 ar  
    21   13   16 1   
    22   14   15 ar  
    23   14   27 1   
    24   15   28 1   
    25   16   17 1   
    26   16   29 1   
    27   16   30 1   
    28   18   20 2   
    29   19   20 1   
    30   19   21 1   
    31   20   31 1   
    32   21   22 1   
    33   21   23 1   
    34   21   32 1   
    35   22   23 1   
    36   22   33 1   
    37   22   34 1   
    38   23   35 1   
    39   23   36 1   
@<TRIPOS>SUBSTRUCTURE
     1 09K         1 TEMP              0 ****  ****    0 ROOT
