@<TRIPOS>MOLECULE
09K
   37    39     1     0     0
SMALL
bcc


@<TRIPOS>ATOM
      1 C1          1.0700    0.8150   -0.2210 c3        1 09K      0.821700
      2 F1          2.0880    1.6720   -0.4860 f         1 09K     -0.214633
      3 N1         -0.5080    5.5830    4.1780 n         1 09K     -0.452100
      4 O1          1.1220    0.3410    1.1000 os        1 09K     -0.368900
      5 C2          0.8730    1.2480    2.1300 ca        1 09K      0.090100
      6 F2         -0.1060    1.4280   -0.5050 f         1 09K     -0.214633
      7 N2         -1.4710    7.1020    2.4560 na        1 09K     -0.038600
      8 O2         -1.5260    5.1920    6.2160 o         1 09K     -0.567100
      9 C3          1.7990    2.2510    2.4430 ca        1 09K     -0.120000
     10 F3          1.2030   -0.2900   -0.9920 f         1 09K     -0.214633
     11 N3         -2.2620    8.1760    2.3890 nc        1 09K     -0.521800
     12 C4          1.5750    3.0450    3.5650 ca        1 09K     -0.116500
     13 C5          0.4470    2.8400    4.3700 ca        1 09K     -0.093300
     14 C6         -0.4640    1.8270    4.0430 ca        1 09K     -0.116500
     15 C7         -0.2630    1.0280    2.9200 ca        1 09K     -0.120000
     16 C8          0.2290    3.6740    5.5800 c3        1 09K     -0.115100
     17 C9         -0.6960    4.8620    5.3540 c         1 09K      0.669100
     18 C10        -1.3220    6.6520    3.8030 cc        1 09K      0.009300
     19 C11        -2.7540    8.4010    3.6410 cd        1 09K      0.358600
     20 C12        -2.1810    7.4550    4.5800 cd        1 09K     -0.281300
     21 C13        -3.7160    9.4340    4.0100 cx        1 09K     -0.161000
     22 C14        -3.7180   10.7730    3.3120 cx        1 09K     -0.118900
     23 C15        -4.8390    9.8100    3.0730 cx        1 09K     -0.118900
     24 HN1         0.1050    5.2030    3.4920 hn        1 09K      0.321500
     25 H3          2.6870    2.4010    1.8100 ha        1 09K      0.160000
     26 H4          2.3020    3.8290    3.8280 ha        1 09K      0.147000
     27 H6         -1.3490    1.6600    4.6780 ha        1 09K      0.147000
     28 H7         -0.9710    0.2280    2.6570 ha        1 09K      0.160000
     29 H8          1.2070    4.0750    5.9640 hc        1 09K      0.091200
     30 H8A        -0.2280    3.0540    6.4000 hc        1 09K      0.091200
     31 H12        -2.3840    7.3660    5.6420 ha        1 09K      0.190000
     32 H13        -3.9330    9.4160    5.0980 hc        1 09K      0.089700
     33 H14        -2.9880   10.9580    2.5040 hc        1 09K      0.074950
     34 H14A       -3.9030   11.6780    3.9190 hc        1 09K      0.074950
     35 H15        -5.8330   10.0190    3.5070 hc        1 09K      0.074950
     36 H15A       -4.9120    9.3040    2.0940 hc        1 09K      0.074950
     37 HN2        -0.8160    6.9460    1.7250 hn        1 09K      0.306700
@<TRIPOS>BOND
     1    1    2 1   
     2    1    4 1   
     3    1    6 1   
     4    1   10 1   
     5    3   17 1   
     6    3   18 1   
     7    3   24 1   
     8    4    5 1   
     9    5    9 ar  
    10    5   15 ar  
    11    7   11 1   
    12    7   18 1   
    13    7   37 1   
    14    8   17 2   
    15    9   12 ar  
    16    9   25 1   
    17   11   19 2   
    18   12   13 ar  
    19   12   26 1   
    20   13   14 ar  
    21   13   16 1   
    22   14   15 ar  
    23   14   27 1   
    24   15   28 1   
    25   16   17 1   
    26   16   29 1   
    27   16   30 1   
    28   18   20 2   
    29   19   20 1   
    30   19   21 1   
    31   20   31 1   
    32   21   22 1   
    33   21   23 1   
    34   21   32 1   
    35   22   23 1   
    36   22   33 1   
    37   22   34 1   
    38   23   35 1   
    39   23   36 1   
@<TRIPOS>SUBSTRUCTURE
     1 09K         1 TEMP              0 ****  ****    0 ROOT
