@<TRIPOS>MOLECULE
09K
   37    34     1     0     0
SMALL
bcc


@<TRIPOS>ATOM
      1 C1          3.6290   -4.9270   -1.1030 c3        1 09K      0.536000
      2 F1          4.9670   -4.8190   -1.0750 f         1 09K     -0.142667
      3 N1         -1.0790    0.7790    0.9700 n         1 09K     -0.303000
      4 O1          3.1570   -5.2880    0.1870 os        1 09K     -0.253000
      5 C2          2.5880   -4.2080    0.9160 c2        1 09K      0.047000
      6 F2          3.0940   -3.7530   -1.4620 f         1 09K     -0.142667
      7 N2         -1.4650    1.0210   -1.4660 n2        1 09K     -0.152000
      8 O2          1.0290    0.2650    0.2250 o         1 09K     -0.366000
      9 C3          1.2050   -4.1260    0.7870 c2        1 09K     -0.111000
     10 F3          3.2750   -5.8720   -1.9900 f         1 09K     -0.142667
     11 N3         -1.8700    2.0340   -2.3050 n2        1 09K     -0.081000
     12 C4          0.5260   -3.0100    1.2690 c1        1 09K     -0.129000
     13 C5          1.2300   -1.9770    1.8800 c1        1 09K     -0.088000
     14 C6          2.6140   -2.0590    2.0090 c1        1 09K     -0.103000
     15 C7          3.2930   -3.1750    1.5270 c1        1 09K     -0.128000
     16 C8          0.4960   -0.7120    2.3260 c3        1 09K     -0.147000
     17 C9          0.2020    0.1600    1.1110 c2        1 09K      0.313000
     18 C10        -1.3880    1.5210   -0.2130 c2        1 09K      0.050000
     19 C11        -2.0380    3.1510   -1.5620 c1        1 09K     -0.069000
     20 C12        -1.7420    2.8430   -0.2630 c1        1 09K     -0.265000
     21 C13        -2.4260    4.5380   -2.0940 cu        1 09K     -0.104000
     22 C14        -3.8920    4.9140   -1.9490 cx        1 09K     -0.197500
     23 C15        -2.8500    5.5530   -1.0450 cx        1 09K     -0.197500
     24 HN1        -1.6900    0.7220    1.6460 hn        1 09K      0.254000
     25 H3          0.7070   -4.8570    0.3540 ha        1 09K      0.159000
     26 H4         -0.4500   -2.9520    1.1780 ha        1 09K      0.143000
     27 H6          3.1100   -1.3310    2.4400 ha        1 09K      0.150000
     28 H7          4.2700   -3.2330    1.6190 ha        1 09K      0.162000
     29 H8         -0.3460   -0.9600    2.7620 hc        1 09K      0.131500
     30 H8A         1.0580   -0.2140    2.9580 hc        1 09K      0.131500
     31 H12        -1.7770    3.4590    0.4980 DU        1 09K      0.231500
     32 H13        -1.9690    4.9040   -2.8810 ha        1 09K      0.123000
     33 H14        -4.2560    5.4930   -2.6550 hc        1 09K      0.114500
     34 H14A       -4.4640    4.2400   -1.5280 hc        1 09K      0.114500
     35 H15        -2.6300    6.4870   -1.2430 hc        1 09K      0.114500
     36 H15A       -2.8400    5.2340   -0.1140 hc        1 09K      0.114500
     37 HN2        -1.2800    0.1540   -1.7140 DU        1 09K      0.231500
@<TRIPOS>BOND
     1    1    2 1   
     2    1    4 1   
     3    1    6 1   
     4    1   10 1   
     5    3   17 1   
     6    3   18 1   
     7    3   24 1   
     8    4    5 1   
     9    5    9 1   
    10    5   15 1   
    11    7   11 1   
    12    7   18 1   
    13    8   17 1   
    14    9   12 1   
    15    9   25 1   
    16   11   19 1   
    17   12   26 1   
    18   13   14 1   
    19   13   16 1   
    20   14   27 1   
    21   15   28 1   
    22   16   17 1   
    23   16   29 1   
    24   16   30 1   
    25   18   20 1   
    26   19   20 1   
    27   21   22 1   
    28   21   23 1   
    29   21   32 1   
    30   22   23 1   
    31   22   33 1   
    32   22   34 1   
    33   23   35 1   
    34   23   36 1   
@<TRIPOS>SUBSTRUCTURE
     1 09K         1 TEMP              0 ****  ****    0 ROOT
