@<TRIPOS>MOLECULE
09K
   37    39     1     0     0
SMALL
bcc


@<TRIPOS>ATOM
      1 C1         -4.8510    0.6080   -1.2080 c3        1 09K      0.821700
      2 F1         -4.4780    0.3140   -2.4790 f         1 09K     -0.214633
      3 N1          1.5210   -0.8560    0.0130 n         1 09K     -0.457100
      4 O1         -4.7270   -0.5050   -0.3600 os        1 09K     -0.368900
      5 C2         -3.4430   -0.9690   -0.0740 ca        1 09K      0.090100
      6 F2         -4.1310    1.6720   -0.7740 f         1 09K     -0.214633
      7 N2          2.7630    0.8310   -1.3250 na        1 09K     -0.040600
      8 O2          2.3260   -1.8670    1.9290 o         1 09K     -0.570100
      9 C3         -2.6800   -1.6190   -1.0520 ca        1 09K     -0.120000
     10 F3         -6.1690    0.9140   -1.1880 f         1 09K     -0.214633
     11 N3          3.8210    1.6380   -1.2040 nc        1 09K     -0.522800
     12 C4         -1.4620   -2.1860   -0.6850 ca        1 09K     -0.117000
     13 C5         -1.0120   -2.1150    0.6400 ca        1 09K     -0.091300
     14 C6         -1.7940   -1.4660    1.6040 ca        1 09K     -0.117000
     15 C7         -3.0110   -0.8840    1.2550 ca        1 09K     -0.120000
     16 C8          0.2760   -2.7460    1.0270 c3        1 09K     -0.115100
     17 C9          1.4590   -1.7870    1.0430 c         1 09K      0.672100
     18 C10         2.5690    0.0490   -0.1460 cc        1 09K      0.015300
     19 C11         4.4230    1.3450   -0.0160 cd        1 09K      0.359600
     20 C12         3.6610    0.3380    0.6980 cd        1 09K     -0.286300
     21 C13         5.6570    1.9420    0.4880 cx        1 09K     -0.161000
     22 C14         6.7880    2.2830   -0.4520 cx        1 09K     -0.118900
     23 C15         5.9980    3.3810    0.1880 cx        1 09K     -0.118900
     24 HN1         0.7700   -0.8230   -0.6380 hn        1 09K      0.324500
     25 H3         -3.0440   -1.6770   -2.0890 ha        1 09K      0.160000
     26 H4         -0.8590   -2.7100   -1.4430 ha        1 09K      0.147000
     27 H6         -1.4460   -1.4140    2.6470 ha        1 09K      0.147000
     28 H7         -3.6340   -0.3760    2.0060 ha        1 09K      0.160000
     29 H8          0.1960   -3.1840    2.0600 hc        1 09K      0.091200
     30 H8A         0.5320   -3.5840    0.3230 hc        1 09K      0.091200
     31 H12         3.8850   -0.1060    1.6620 ha        1 09K      0.192000
     32 H13         5.9190    1.5450    1.4920 hc        1 09K      0.089700
     33 H14         7.8220    2.0940   -0.1160 hc        1 09K      0.074950
     34 H14A        6.6620    2.0910   -1.5330 hc        1 09K      0.074950
     35 H15         5.3070    3.9780   -0.4330 hc        1 09K      0.074950
     36 H15A        6.4620    3.9860    0.9880 hc        1 09K      0.074950
     37 HN2         2.0500    1.0730   -1.9740 hn        1 09K      0.306700
@<TRIPOS>BOND
     1    1    2 1   
     2    1    4 1   
     3    1    6 1   
     4    1   10 1   
     5    3   17 1   
     6    3   18 1   
     7    3   24 1   
     8    4    5 1   
     9    5    9 ar  
    10    5   15 ar  
    11    7   11 1   
    12    7   18 1   
    13    7   37 1   
    14    8   17 2   
    15    9   12 ar  
    16    9   25 1   
    17   11   19 2   
    18   12   13 ar  
    19   12   26 1   
    20   13   14 ar  
    21   13   16 1   
    22   14   15 ar  
    23   14   27 1   
    24   15   28 1   
    25   16   17 1   
    26   16   29 1   
    27   16   30 1   
    28   18   20 2   
    29   19   20 1   
    30   19   21 1   
    31   20   31 1   
    32   21   22 1   
    33   21   23 1   
    34   21   32 1   
    35   22   23 1   
    36   22   33 1   
    37   22   34 1   
    38   23   35 1   
    39   23   36 1   
@<TRIPOS>SUBSTRUCTURE
     1 09K         1 TEMP              0 ****  ****    0 ROOT
