@<TRIPOS>MOLECULE
09K
   38    40     1     0     0
SMALL
bcc


@<TRIPOS>ATOM
      1 C1          0.0480   -0.8720    1.2540 c3        1 09K      0.831700
      2 F1          1.1810   -1.3290    1.8350 f         1 09K     -0.196967
      3 N1         -0.1070    6.0520    2.7130 n4        1 09K     -0.518200
      4 O1         -0.6600    0.0030    2.1080 os        1 09K     -0.363900
      5 C2         -0.0650    1.1470    2.5990 ca        1 09K      0.175100
      6 F2          0.3510   -0.2640    0.0810 f         1 09K     -0.196967
      7 N2         -0.6450    8.4630    3.2870 na        1 09K      0.029400
      8 O2          1.8760    7.0050    3.4740 o         1 09K     -0.422100
      9 C3          1.1980    1.6230    2.2280 ca        1 09K     -0.152500
     10 F3         -0.8160   -1.8880    1.0420 f         1 09K     -0.196967
     11 N3         -1.6760    9.1870    3.6740 nc        1 09K     -0.429800
     12 C4          1.6670    2.8090    2.7890 ca        1 09K     -0.089000
     13 C5          0.8840    3.5250    3.7010 ca        1 09K     -0.207300
     14 C6         -0.3740    3.0260    4.0770 ca        1 09K     -0.089000
     15 C7         -0.8590    1.8450    3.5340 ca        1 09K     -0.152500
     16 C8          1.4160    4.7560    4.3350 c3        1 09K     -0.089100
     17 C9          1.1760    6.0080    3.5400 c         1 09K      0.562100
     18 C10        -1.0010    7.1020    3.1400 cc        1 09K     -0.147700
     19 C11        -2.7670    8.3550    3.7780 cd        1 09K      0.378600
     20 C12        -2.3790    7.0050    3.4440 cd        1 09K     -0.201300
     21 C13        -4.1140    8.7590    4.1620 cx        1 09K     -0.204000
     22 C14        -4.3290    9.8610    5.1760 cx        1 09K     -0.098900
     23 C15        -4.6650   10.1040    3.7410 cx        1 09K     -0.098900
     24 HN1        -0.6090    5.1540    2.8060 hn        1 09K      0.476300
     25 H3          1.8250    1.0630    1.5150 ha        1 09K      0.179000
     26 H4          2.6740    3.1690    2.5170 ha        1 09K      0.151000
     27 H6         -0.9730    3.5520    4.8390 ha        1 09K      0.151000
     28 H7         -1.8380    1.4350    3.8270 ha        1 09K      0.179000
     29 H8          0.9540    4.9180    5.3530 hc        1 09K      0.131200
     30 H8A         2.5330    4.6760    4.4840 hc        1 09K      0.131200
     31 H12        -3.0180    6.1270    3.4280 ha        1 09K      0.191000
     32 H13        -4.8110    7.8950    4.1780 hc        1 09K      0.098700
     33 H14        -3.4510   10.3670    5.6170 hc        1 09K      0.088950
     34 H14A       -5.1450    9.7350    5.9110 hc        1 09K      0.088950
     35 H15        -4.0280   10.7840    3.1460 hc        1 09K      0.088950
     36 H15A       -5.7250   10.1540    3.4310 hc        1 09K      0.088950
     37 H121        0.1350    6.1980    1.7220 hn        1 09K      0.476300
     38 HN2         0.2710    8.8610    3.2080 hn        1 09K      0.359700
@<TRIPOS>BOND
     1    1    2 1   
     2    1    4 1   
     3    1    6 1   
     4    1   10 1   
     5    3   17 1   
     6    3   18 1   
     7    3   24 1   
     8    3   37 1   
     9    4    5 1   
    10    5    9 ar  
    11    5   15 ar  
    12    7   11 1   
    13    7   18 1   
    14    7   38 1   
    15    8   17 2   
    16    9   12 ar  
    17    9   25 1   
    18   11   19 2   
    19   12   13 ar  
    20   12   26 1   
    21   13   14 ar  
    22   13   16 1   
    23   14   15 ar  
    24   14   27 1   
    25   15   28 1   
    26   16   17 1   
    27   16   29 1   
    28   16   30 1   
    29   18   20 2   
    30   19   20 1   
    31   19   21 1   
    32   20   31 1   
    33   21   22 1   
    34   21   23 1   
    35   21   32 1   
    36   22   23 1   
    37   22   33 1   
    38   22   34 1   
    39   23   35 1   
    40   23   36 1   
@<TRIPOS>SUBSTRUCTURE
     1 09K         1 TEMP              0 ****  ****    0 ROOT
