@<TRIPOS>MOLECULE
09L
   55    59     1     0     0
SMALL
bcc


@<TRIPOS>ATOM
      1 CAJ         8.8750    1.5860   -0.0610 cx        1 09L     -0.110400
      2 CAK         7.8880    1.9230   -1.1370 cx        1 09L     -0.110400
      3 CAI         7.7540    0.6290   -0.3740 cx        1 09L     -0.214700
      4 CAL         6.6540    0.4780    0.6310 c         1 09L      0.688100
      5 OAB         6.8160    0.7990    1.8250 o         1 09L     -0.604100
      6 NAE         5.4580   -0.1040    0.2200 n         1 09L     -0.466800
      7 CAM         5.0940   -0.2410   -1.1690 c3        1 09L      0.064000
      8 CAO         3.8110    0.5360   -1.5560 c3        1 09L      0.063500
      9 CAN         4.3670   -0.2680    1.1550 c3        1 09L      0.064000
     10 CAP         3.0930    0.5200    0.7640 c3        1 09L      0.063500
     11 NAF         2.7200    0.3590   -0.6210 n         1 09L     -0.457800
     12 CAQ         1.5580   -0.2840   -1.0310 c         1 09L      0.675700
     13 OAC         1.3620   -0.5250   -2.2380 o         1 09L     -0.586100
     14 CAR         0.5070   -0.5980   -0.0170 ca        1 09L     -0.165600
     15 CAS        -0.6580    0.1720    0.0020 ca        1 09L     -0.060000
     16 CAU         0.6280   -1.6950    0.8590 ca        1 09L      0.148900
     17 FAA         1.7460   -2.4590    0.8600 f         1 09L     -0.134900
     18 CAX        -0.4200   -2.0020    1.7480 ca        1 09L     -0.167000
     19 CAW        -1.5670   -1.2170    1.7590 ca        1 09L     -0.073000
     20 CAT        -1.6950   -0.1250    0.8920 ca        1 09L     -0.088300
     21 CAV        -2.9170    0.7240    0.9280 c3        1 09L     -0.050400
     22 CAY        -4.1320    0.1200    0.2830 cc        1 09L      0.342900
     23 CAZ        -5.3510    0.9350    0.2590 ca        1 09L     -0.104900
     24 CBB        -5.4360    2.2230    0.8070 ca        1 09L     -0.130000
     25 CBE        -6.6300    2.9310    0.7420 ca        1 09L     -0.097000
     26 CBF        -7.7590    2.3730    0.1310 ca        1 09L     -0.137000
     27 CBD        -7.6940    1.0970   -0.4170 ca        1 09L     -0.066000
     28 CBA        -6.4950    0.3770   -0.3540 ca        1 09L     -0.141600
     29 CBC        -6.4120   -0.9790   -0.9320 c         1 09L      0.685100
     30 OAD        -7.3390   -1.5810   -1.4980 o         1 09L     -0.613500
     31 NAH        -5.1560   -1.6170   -0.8030 n         1 09L     -0.298900
     32 NAG        -4.0830   -1.0970   -0.2390 nd        1 09L     -0.412300
     33 H1          9.9040    1.2990   -0.3400 hc        1 09L      0.081450
     34 H2          8.8380    2.1370    0.8970 hc        1 09L      0.081450
     35 H3          7.1550    2.7300   -0.9570 hc        1 09L      0.081450
     36 H4          8.2000    1.8770   -2.1950 hc        1 09L      0.081450
     37 H5          7.9980   -0.3230   -0.8860 hc        1 09L      0.101700
     38 H6          5.9220    0.1270   -1.8370 h1        1 09L      0.068450
     39 H7          4.9310   -1.3380   -1.3780 h1        1 09L      0.068450
     40 H8          4.0470    1.6380   -1.5990 h1        1 09L      0.066450
     41 H9          3.4950    0.1980   -2.5840 h1        1 09L      0.066450
     42 H10         4.1120   -1.3660    1.2000 h1        1 09L      0.068450
     43 H11         4.6880    0.0700    2.1810 h1        1 09L      0.068450
     44 H12         2.2620    0.1820    1.4420 h1        1 09L      0.066450
     45 H13         3.2700    1.6200    0.9440 h1        1 09L      0.066450
     46 H14        -0.7560    1.0130   -0.7030 ha        1 09L      0.152000
     47 H15        -0.3210   -2.8660    2.4210 ha        1 09L      0.155000
     48 H16        -2.3870   -1.4630    2.4510 ha        1 09L      0.145000
     49 H17        -3.1770    0.9480    2.0000 hc        1 09L      0.065200
     50 H18        -2.7120    1.7030    0.4120 hc        1 09L      0.065200
     51 H19        -4.5580    2.6760    1.2920 ha        1 09L      0.140000
     52 H20        -6.6900    3.9420    1.1750 ha        1 09L      0.139000
     53 H21        -8.6980    2.9450    0.0860 ha        1 09L      0.143000
     54 H22        -8.5710    0.6380   -0.9030 ha        1 09L      0.163000
     55 H23        -5.0240   -2.5320   -1.1930 hn        1 09L      0.362500
@<TRIPOS>BOND
     1    1    2 1   
     2    1    3 1   
     3    1   33 1   
     4    1   34 1   
     5    2    3 1   
     6    2   35 1   
     7    2   36 1   
     8    3    4 1   
     9    3   37 1   
    10    4    5 2   
    11    4    6 1   
    12    6    7 1   
    13    6    9 1   
    14    7    8 1   
    15    7   38 1   
    16    7   39 1   
    17    8   11 1   
    18    8   40 1   
    19    8   41 1   
    20    9   10 1   
    21    9   42 1   
    22    9   43 1   
    23   10   11 1   
    24   10   44 1   
    25   10   45 1   
    26   11   12 1   
    27   12   13 2   
    28   12   14 1   
    29   14   15 ar  
    30   14   16 ar  
    31   15   20 ar  
    32   15   46 1   
    33   16   17 1   
    34   16   18 ar  
    35   18   19 ar  
    36   18   47 1   
    37   19   20 ar  
    38   19   48 1   
    39   20   21 1   
    40   21   22 1   
    41   21   49 1   
    42   21   50 1   
    43   22   23 1   
    44   22   32 2   
    45   23   24 ar  
    46   23   28 ar  
    47   24   25 ar  
    48   24   51 1   
    49   25   26 ar  
    50   25   52 1   
    51   26   27 ar  
    52   26   53 1   
    53   27   28 ar  
    54   27   54 1   
    55   28   29 1   
    56   29   30 2   
    57   29   31 1   
    58   31   32 1   
    59   31   55 1   
@<TRIPOS>SUBSTRUCTURE
     1 09L         1 TEMP              0 ****  ****    0 ROOT
