@<TRIPOS>MOLECULE
09L
   55    49     1     0     0
SMALL
bcc


@<TRIPOS>ATOM
      1 CAJ        -0.0390   -5.0210   -6.0920 cx        1 09L     -0.189500
      2 CAK        -0.2850   -4.4330   -6.0780 cx        1 09L     -0.189500
      3 CAI         0.0530   -4.6040   -5.5570 cx        1 09L     -0.204000
      4 CAL        -1.1620   -4.7940   -4.2520 c1        1 09L      0.332000
      5 OAB        -2.1220   -5.5300   -4.4170 o         1 09L     -0.362000
      6 NAE        -0.9400   -4.1730   -2.9630 n2        1 09L     -0.327000
      7 CAM        -1.8000   -4.3750   -1.8400 c3        1 09L     -0.051500
      8 CAO        -2.2540   -3.0580   -1.2240 c3        1 09L     -0.052000
      9 CAN         0.1590   -3.3000   -2.6930 c3        1 09L     -0.051500
     10 CAP        -0.2960   -1.9830   -2.0770 c3        1 09L     -0.052000
     11 NAF        -1.1550   -2.1850   -0.9540 n3        1 09L     -0.316000
     12 CAQ        -0.9340   -1.5640    0.3380 c1        1 09L      0.348000
     13 OAC        -1.7070   -1.7800    1.2560 o         1 09L     -0.342000
     14 CAR         0.1800   -0.5180    0.5040 c1        1 09L     -0.145000
     15 CAS        -0.1470    0.8000    0.8170 c1        1 09L     -0.060000
     16 CAU         1.5140   -0.9190    0.4920 c1        1 09L      0.112000
     17 FAA         1.8250   -2.2040    0.2680 f         1 09L     -0.101000
     18 CAX         2.5200   -0.0010    0.7930 c1        1 09L     -0.112000
     19 CAW         2.1910    1.3150    1.1050 c1        1 09L     -0.112000
     20 CAT         0.8590    1.7160    1.1170 c1        1 09L     -0.081000
     21 CAV         0.4980    3.1720    1.4500 c2        1 09L     -0.061000
     22 CAY         0.5320    3.3740    2.9730 c1        1 09L     -0.104000
     23 CAZ         0.3630    4.7670    3.5600 c1        1 09L     -0.021000
     24 CBB         0.1650    5.8780    2.7080 c1        1 09L     -0.112000
     25 CBE         0.0190    7.1490    3.2460 c1        1 09L     -0.112000
     26 CBF         0.0670    7.3290    4.6180 c1        1 09L     -0.112000
     27 CBD         0.2610    6.2390    5.4550 c1        1 09L     -0.112000
     28 CBA         0.4100    4.9440    4.9060 c1        1 09L     -0.121000
     29 CBC         0.6320    3.7510    5.8190 c2        1 09L      0.323000
     30 OAD         0.6750    3.9070    7.0260 o         1 09L     -0.337000
     31 NAH         0.7910    2.4310    5.2550 n         1 09L     -0.278000
     32 NAG         0.6950    2.2400    3.8460 n2        1 09L      0.007000
     33 H1          0.7480   -5.1470   -6.6820 hc        1 09L      0.120250
     34 H2         -0.6840   -5.7610   -5.9560 hc        1 09L      0.120250
     35 H3         -1.2660   -4.3860   -5.9520 hc        1 09L      0.120250
     36 H4          0.1570   -3.7730   -6.6740 hc        1 09L      0.120250
     37 H5          0.6780   -3.9470   -5.1670 hc        1 09L      0.140000
     38 H6         -2.5910   -4.8820   -2.1300 h1        1 09L      0.107250
     39 H7         -1.3180   -4.8970   -1.1590 h1        1 09L      0.107250
     40 H8         -2.7280   -3.2460   -0.3820 h1        1 09L      0.105500
     41 H9         -2.8720   -2.6110   -1.8450 h1        1 09L      0.105500
     42 H10         0.6310   -3.1130   -3.5330 h1        1 09L      0.107250
     43 H11         0.7770   -3.7480   -2.0720 h1        1 09L      0.107250
     44 H12        -0.7780   -1.4610   -2.7580 h1        1 09L      0.105500
     45 H13         0.4940   -1.4770   -1.7870 h1        1 09L      0.105500
     46 H14        -1.0870    1.0840    0.8260 ha        1 09L      0.153000
     47 H15         3.4600   -0.2840    0.7840 ha        1 09L      0.147500
     48 H16         2.9000    1.9610    1.3170 ha        1 09L      0.147500
     49 H17         1.1470    3.7760    1.0250 ha        1 09L      0.104500
     50 H18        -0.4030    3.3710    1.1140 ha        1 09L      0.104500
     51 H19         0.1310    5.7500    1.7370 ha        1 09L      0.147500
     52 H20        -0.1180    7.9200    2.6540 ha        1 09L      0.147500
     53 H21        -0.0360    8.2280    4.9990 ha        1 09L      0.147500
     54 H22         0.2950    6.3670    6.4270 ha        1 09L      0.147500
     55 H23         0.8950    1.7060    5.8090 hn        1 09L      0.276000
@<TRIPOS>BOND
     1    1    2 1   
     2    1    3 1   
     3    1   33 1   
     4    1   34 1   
     5    2    3 1   
     6    2   35 1   
     7    2   36 1   
     8    3    4 1   
     9    3   37 1   
    10    4    5 1   
    11    6    7 1   
    12    6    9 1   
    13    7    8 1   
    14    7   38 1   
    15    7   39 1   
    16    8   11 1   
    17    8   40 1   
    18    8   41 1   
    19    9   10 1   
    20    9   42 1   
    21    9   43 1   
    22   10   11 1   
    23   10   44 1   
    24   10   45 1   
    25   11   12 1   
    26   12   13 1   
    27   14   16 1   
    28   15   20 1   
    29   15   46 1   
    30   16   17 1   
    31   18   19 1   
    32   18   47 1   
    33   19   48 1   
    34   21   22 1   
    35   21   49 1   
    36   21   50 1   
    37   22   32 1   
    38   23   28 1   
    39   24   25 1   
    40   24   51 1   
    41   25   52 1   
    42   26   27 1   
    43   26   53 1   
    44   27   54 1   
    45   28   29 1   
    46   29   30 1   
    47   29   31 1   
    48   31   32 1   
    49   31   55 1   
@<TRIPOS>SUBSTRUCTURE
     1 09L         1 TEMP              0 ****  ****    0 ROOT
