@<TRIPOS>MOLECULE
09L
   55    59     1     0     0
SMALL
bcc


@<TRIPOS>ATOM
      1 CAJ        -0.7620    1.1780    0.6400 cx        1 09L     -0.110400
      2 CAK         0.6680    0.8320    0.3640 cx        1 09L     -0.110400
      3 CAI         0.2070    1.0350    1.7840 cx        1 09L     -0.214700
      4 CAL         0.0640   -0.1520    2.6880 c         1 09L      0.688100
      5 OAB        -1.0080   -0.7850    2.7640 o         1 09L     -0.604100
      6 NAE         1.1370   -0.4930    3.5070 n         1 09L     -0.466800
      7 CAM         2.4750   -0.0020    3.2850 c3        1 09L      0.064000
      8 CAO         3.5060   -1.1180    2.9850 c3        1 09L      0.063500
      9 CAN         1.0440   -1.6320    4.3930 c3        1 09L      0.064000
     10 CAP         2.0720   -2.7460    4.0780 c3        1 09L      0.063500
     11 NAF         3.4140   -2.2500    3.8820 n         1 09L     -0.457800
     12 CAQ         4.4690   -2.5370    4.7410 c         1 09L      0.675700
     13 OAC         5.5670   -1.9620    4.6060 o         1 09L     -0.586100
     14 CAR         4.2980   -3.6080    5.7670 ca        1 09L     -0.165600
     15 CAS         4.9340   -4.8360    5.5690 ca        1 09L     -0.060000
     16 CAU         3.5830   -3.3830    6.9610 ca        1 09L      0.148900
     17 FAA         2.9580   -2.2010    7.1800 f         1 09L     -0.134900
     18 CAX         3.5100   -4.3950    7.9370 ca        1 09L     -0.167000
     19 CAW         4.1400   -5.6140    7.7150 ca        1 09L     -0.073000
     20 CAT         4.8530   -5.8460    6.5320 ca        1 09L     -0.088300
     21 CAV         5.5050   -7.1620    6.2930 c3        1 09L     -0.050400
     22 CAY         6.7780   -7.3920    7.0560 cc        1 09L      0.342900
     23 CAZ         7.4780   -8.6590    6.8250 ca        1 09L     -0.104900
     24 CBB         7.0180   -9.6520    5.9470 ca        1 09L     -0.130000
     25 CBE         7.7430  -10.8270    5.7830 ca        1 09L     -0.097000
     26 CBF         8.9340  -11.0350    6.4860 ca        1 09L     -0.137000
     27 CBD         9.4050  -10.0640    7.3610 ca        1 09L     -0.066000
     28 CBA         8.6800   -8.8770    7.5340 ca        1 09L     -0.141600
     29 CBC         9.1680   -7.8370    8.4600 c         1 09L      0.685100
     30 OAD        10.2070   -7.9020    9.1380 o         1 09L     -0.613500
     31 NAH         8.3530   -6.6860    8.5620 n         1 09L     -0.298900
     32 NAG         7.2340   -6.4740    7.8970 nd        1 09L     -0.412300
     33 H1         -1.1350    2.1870    0.3900 hc        1 09L      0.081450
     34 H2         -1.5390    0.4000    0.5150 hc        1 09L      0.081450
     35 H3          0.9160   -0.1880    0.0200 hc        1 09L      0.081450
     36 H4          1.3340    1.5910   -0.0850 hc        1 09L      0.081450
     37 H5          0.5250    1.9480    2.3270 hc        1 09L      0.101700
     38 H6          2.4980    0.7160    2.4190 h1        1 09L      0.068450
     39 H7          2.7990    0.5520    4.2130 h1        1 09L      0.068450
     40 H8          4.5360   -0.6650    3.0410 h1        1 09L      0.066450
     41 H9          3.3400   -1.5010    1.9370 h1        1 09L      0.066450
     42 H10         1.2200   -1.2660    5.4460 h1        1 09L      0.068450
     43 H11         0.0130   -2.0810    4.3340 h1        1 09L      0.068450
     44 H12         1.7630   -3.2770    3.1320 h1        1 09L      0.066450
     45 H13         2.0410   -3.4860    4.9240 h1        1 09L      0.066450
     46 H14         5.5120   -4.9960    4.6440 ha        1 09L      0.152000
     47 H15         2.9580   -4.2070    8.8690 ha        1 09L      0.155000
     48 H16         4.0870   -6.4020    8.4820 ha        1 09L      0.145000
     49 H17         4.7870   -7.9840    6.5730 hc        1 09L      0.065200
     50 H18         5.7430   -7.2730    5.1980 hc        1 09L      0.065200
     51 H19         6.0830   -9.5040    5.3870 ha        1 09L      0.140000
     52 H20         7.3760  -11.6020    5.0920 ha        1 09L      0.139000
     53 H21         9.4980  -11.9700    6.3460 ha        1 09L      0.143000
     54 H22        10.3410  -10.2070    7.9260 ha        1 09L      0.163000
     55 H23         8.6370   -5.9300    9.1580 hn        1 09L      0.362500
@<TRIPOS>BOND
     1    1    2 1   
     2    1    3 1   
     3    1   33 1   
     4    1   34 1   
     5    2    3 1   
     6    2   35 1   
     7    2   36 1   
     8    3    4 1   
     9    3   37 1   
    10    4    5 2   
    11    4    6 1   
    12    6    7 1   
    13    6    9 1   
    14    7    8 1   
    15    7   38 1   
    16    7   39 1   
    17    8   11 1   
    18    8   40 1   
    19    8   41 1   
    20    9   10 1   
    21    9   42 1   
    22    9   43 1   
    23   10   11 1   
    24   10   44 1   
    25   10   45 1   
    26   11   12 1   
    27   12   13 2   
    28   12   14 1   
    29   14   15 ar  
    30   14   16 ar  
    31   15   20 ar  
    32   15   46 1   
    33   16   17 1   
    34   16   18 ar  
    35   18   19 ar  
    36   18   47 1   
    37   19   20 ar  
    38   19   48 1   
    39   20   21 1   
    40   21   22 1   
    41   21   49 1   
    42   21   50 1   
    43   22   23 1   
    44   22   32 2   
    45   23   24 ar  
    46   23   28 ar  
    47   24   25 ar  
    48   24   51 1   
    49   25   26 ar  
    50   25   52 1   
    51   26   27 ar  
    52   26   53 1   
    53   27   28 ar  
    54   27   54 1   
    55   28   29 1   
    56   29   30 2   
    57   29   31 1   
    58   31   32 1   
    59   31   55 1   
@<TRIPOS>SUBSTRUCTURE
     1 09L         1 TEMP              0 ****  ****    0 ROOT
