@<TRIPOS>MOLECULE
09L
   55    59     1     0     0
SMALL
bcc


@<TRIPOS>ATOM
      1 CAJ        -0.7960    1.1900    0.6770 cx        1 09L     -0.110400
      2 CAK         0.6370    0.8540    0.3980 cx        1 09L     -0.110400
      3 CAI         0.1740    1.0440    1.8200 cx        1 09L     -0.214700
      4 CAL         0.0370   -0.1500    2.7150 c         1 09L      0.688100
      5 OAB        -1.0320   -0.7900    2.7850 o         1 09L     -0.604100
      6 NAE         1.1110   -0.4920    3.5320 n         1 09L     -0.466800
      7 CAM         2.4470    0.0080    3.3140 c3        1 09L      0.064000
      8 CAO         3.4830   -1.1010    3.0050 c3        1 09L      0.063500
      9 CAN         1.0240   -1.6380    4.4080 c3        1 09L      0.064000
     10 CAP         2.0580   -2.7440    4.0850 c3        1 09L      0.063500
     11 NAF         3.3980   -2.2400    3.8930 n         1 09L     -0.457800
     12 CAQ         4.4540   -2.5280    4.7500 c         1 09L      0.675700
     13 OAC         5.5490   -1.9470    4.6190 o         1 09L     -0.586100
     14 CAR         4.2880   -3.6090    5.7680 ca        1 09L     -0.165600
     15 CAS         4.9310   -4.8310    5.5590 ca        1 09L     -0.060000
     16 CAU         3.5720   -3.3960    6.9630 ca        1 09L      0.148900
     17 FAA         2.9420   -2.2200    7.1910 f         1 09L     -0.134900
     18 CAX         3.5050   -4.4170    7.9310 ca        1 09L     -0.167000
     19 CAW         4.1410   -5.6300    7.6990 ca        1 09L     -0.073000
     20 CAT         4.8550   -5.8490    6.5140 ca        1 09L     -0.088300
     21 CAV         5.5140   -7.1610    6.2650 c3        1 09L     -0.050400
     22 CAY         6.7880   -7.3890    7.0260 cc        1 09L      0.342900
     23 CAZ         7.4940   -8.6520    6.7850 ca        1 09L     -0.104900
     24 CBB         7.0390   -9.6400    5.9010 ca        1 09L     -0.130000
     25 CBE         7.7690  -10.8110    5.7270 ca        1 09L     -0.097000
     26 CBF         8.9620  -11.0180    6.4290 ca        1 09L     -0.137000
     27 CBD         9.4280  -10.0510    7.3100 ca        1 09L     -0.066000
     28 CBA         8.6980   -8.8690    7.4920 ca        1 09L     -0.141600
     29 CBC         9.1810   -7.8330    8.4250 c         1 09L      0.685100
     30 OAD        10.2210   -7.8980    9.1020 o         1 09L     -0.613500
     31 NAH         8.3600   -6.6870    8.5360 ns        1 09L     -0.298900
     32 NAG         7.2400   -6.4750    7.8730 nd        1 09L     -0.412300
     33 H1         -1.5680    0.4090    0.5450 hc        1 09L      0.081450
     34 H2         -1.1740    2.1990    0.4340 hc        1 09L      0.081450
     35 H3          0.8910   -0.1620    0.0470 hc        1 09L      0.081450
     36 H4          1.2990    1.6200   -0.0440 hc        1 09L      0.081450
     37 H5          0.4860    1.9540    2.3690 hc        1 09L      0.101700
     38 H6          2.7680    0.5560    4.2460 h1        1 09L      0.068450
     39 H7          2.4660    0.7330    2.4530 h1        1 09L      0.068450
     40 H8          3.3200   -1.4760    1.9540 h1        1 09L      0.066450
     41 H9          4.5110   -0.6430    3.0650 h1        1 09L      0.066450
     42 H10        -0.0050   -2.0920    4.3460 h1        1 09L      0.068450
     43 H11         1.1980   -1.2800    5.4650 h1        1 09L      0.068450
     44 H12         2.0310   -3.4920    4.9250 h1        1 09L      0.066450
     45 H13         1.7520   -3.2690    3.1350 h1        1 09L      0.066450
     46 H14         5.5100   -4.9810    4.6340 ha        1 09L      0.152000
     47 H15         2.9510   -4.2390    8.8650 ha        1 09L      0.155000
     48 H16         4.0920   -6.4240    8.4600 ha        1 09L      0.145000
     49 H17         5.7520   -7.2620    5.1690 hc        1 09L      0.065200
     50 H18         4.8000   -7.9880    6.5390 hc        1 09L      0.065200
     51 H19         6.1020   -9.4930    5.3420 ha        1 09L      0.140000
     52 H20         7.4050  -11.5820    5.0310 ha        1 09L      0.139000
     53 H21         9.5300  -11.9490    6.2810 ha        1 09L      0.143000
     54 H22        10.3650  -10.1930    7.8730 ha        1 09L      0.163000
     55 H23         8.6410   -5.9340    9.1370 hn        1 09L      0.362500
@<TRIPOS>BOND
     1    1    2 1   
     2    1    3 1   
     3    1   33 1   
     4    1   34 1   
     5    2    3 1   
     6    2   35 1   
     7    2   36 1   
     8    3    4 1   
     9    3   37 1   
    10    4    5 2   
    11    4    6 1   
    12    6    7 1   
    13    6    9 1   
    14    7    8 1   
    15    7   38 1   
    16    7   39 1   
    17    8   11 1   
    18    8   40 1   
    19    8   41 1   
    20    9   10 1   
    21    9   42 1   
    22    9   43 1   
    23   10   11 1   
    24   10   44 1   
    25   10   45 1   
    26   11   12 1   
    27   12   13 2   
    28   12   14 1   
    29   14   15 ar  
    30   14   16 ar  
    31   15   20 ar  
    32   15   46 1   
    33   16   17 1   
    34   16   18 ar  
    35   18   19 ar  
    36   18   47 1   
    37   19   20 ar  
    38   19   48 1   
    39   20   21 1   
    40   21   22 1   
    41   21   49 1   
    42   21   50 1   
    43   22   23 1   
    44   22   32 2   
    45   23   24 ar  
    46   23   28 ar  
    47   24   25 ar  
    48   24   51 1   
    49   25   26 ar  
    50   25   52 1   
    51   26   27 ar  
    52   26   53 1   
    53   27   28 ar  
    54   27   54 1   
    55   28   29 1   
    56   29   30 2   
    57   29   31 1   
    58   31   32 1   
    59   31   55 1   
@<TRIPOS>SUBSTRUCTURE
     1 09L         1 TEMP              0 ****  ****    0 ROOT
