@<TRIPOS>MOLECULE
09L
   55    59     1     0     0
SMALL
bcc


@<TRIPOS>ATOM
      1 CAJ        -0.7700    1.1890    0.6510 cx        1 09L     -0.110400
      2 CAK         0.6650    0.8540    0.3820 cx        1 09L     -0.110400
      3 CAI         0.1930    1.0440    1.8010 cx        1 09L     -0.214700
      4 CAL         0.0500   -0.1480    2.6960 c         1 09L      0.688100
      5 OAB        -1.0190   -0.7880    2.7600 o         1 09L     -0.604100
      6 NAE         1.1190   -0.4890    3.5200 n         1 09L     -0.466800
      7 CAM         2.4570    0.0100    3.3080 c3        1 09L      0.064000
      8 CAO         3.4940   -1.0990    3.0050 c3        1 09L      0.063500
      9 CAN         1.0280   -1.6350    4.3960 c3        1 09L      0.064000
     10 CAP         2.0630   -2.7420    4.0790 c3        1 09L      0.063500
     11 NAF         3.4030   -2.2390    3.8920 n         1 09L     -0.457800
     12 CAQ         4.4550   -2.5280    4.7540 c         1 09L      0.675700
     13 OAC         5.5510   -1.9470    4.6280 o         1 09L     -0.586100
     14 CAR         4.2840   -3.6080    5.7710 ca        1 09L     -0.165600
     15 CAS         4.9260   -4.8320    5.5640 ca        1 09L     -0.060000
     16 CAU         3.5630   -3.3960    6.9630 ca        1 09L      0.148900
     17 FAA         2.9330   -2.2190    7.1890 f         1 09L     -0.134900
     18 CAX         3.4900   -4.4170    7.9300 ca        1 09L     -0.167000
     19 CAW         4.1270   -5.6300    7.7000 ca        1 09L     -0.073000
     20 CAT         4.8450   -5.8500    6.5190 ca        1 09L     -0.088300
     21 CAV         5.5040   -7.1620    6.2720 c3        1 09L     -0.050400
     22 CAY         6.7770   -7.3910    7.0370 cc        1 09L      0.342900
     23 CAZ         7.4830   -8.6530    6.7980 ca        1 09L     -0.104900
     24 CBB         7.0290   -9.6430    5.9130 ca        1 09L     -0.130000
     25 CBE         7.7590  -10.8130    5.7420 ca        1 09L     -0.097000
     26 CBF         8.9500  -11.0210    6.4470 ca        1 09L     -0.137000
     27 CBD         9.4140  -10.0530    7.3290 ca        1 09L     -0.066000
     28 CBA         8.6840   -8.8710    7.5080 ca        1 09L     -0.141600
     29 CBC         9.1650   -7.8340    8.4420 c         1 09L      0.685100
     30 OAD        10.2040   -7.9000    9.1220 o         1 09L     -0.613500
     31 NAH         8.3450   -6.6880    8.5500 n         1 09L     -0.298900
     32 NAG         7.2270   -6.4760    7.8840 nd        1 09L     -0.412300
     33 H1         -1.5410    0.4070    0.5150 hc        1 09L      0.081450
     34 H2         -1.1470    2.1970    0.4040 hc        1 09L      0.081450
     35 H3          1.3290    1.6200   -0.0560 hc        1 09L      0.081450
     36 H4          0.9220   -0.1630    0.0340 hc        1 09L      0.081450
     37 H5          0.5000    1.9560    2.3510 hc        1 09L      0.101700
     38 H6          2.4810    0.7350    2.4480 h1        1 09L      0.068450
     39 H7          2.7730    0.5580    4.2420 h1        1 09L      0.068450
     40 H8          4.5220   -0.6420    3.0700 h1        1 09L      0.066450
     41 H9          3.3350   -1.4740    1.9530 h1        1 09L      0.066450
     42 H10        -0.0010   -2.0880    4.3300 h1        1 09L      0.068450
     43 H11         1.1970   -1.2760    5.4540 h1        1 09L      0.068450
     44 H12         1.7610   -3.2670    3.1270 h1        1 09L      0.066450
     45 H13         2.0310   -3.4890    4.9180 h1        1 09L      0.066450
     46 H14         5.5090   -4.9810    4.6410 ha        1 09L      0.152000
     47 H15         2.9330   -4.2390    8.8610 ha        1 09L      0.155000
     48 H16         4.0730   -6.4250    8.4610 ha        1 09L      0.145000
     49 H17         4.7900   -7.9890    6.5450 hc        1 09L      0.065200
     50 H18         5.7450   -7.2630    5.1770 hc        1 09L      0.065200
     51 H19         6.0940   -9.4950    5.3520 ha        1 09L      0.140000
     52 H20         7.3970  -11.5850    5.0450 ha        1 09L      0.139000
     53 H21         9.5180  -11.9520    6.3020 ha        1 09L      0.143000
     54 H22        10.3500  -10.1960    7.8950 ha        1 09L      0.163000
     55 H23         8.6250   -5.9340    9.1510 hn        1 09L      0.362500
@<TRIPOS>BOND
     1    1    2 1   
     2    1    3 1   
     3    1   33 1   
     4    1   34 1   
     5    2    3 1   
     6    2   35 1   
     7    2   36 1   
     8    3    4 1   
     9    3   37 1   
    10    4    5 2   
    11    4    6 1   
    12    6    7 1   
    13    6    9 1   
    14    7    8 1   
    15    7   38 1   
    16    7   39 1   
    17    8   11 1   
    18    8   40 1   
    19    8   41 1   
    20    9   10 1   
    21    9   42 1   
    22    9   43 1   
    23   10   11 1   
    24   10   44 1   
    25   10   45 1   
    26   11   12 1   
    27   12   13 2   
    28   12   14 1   
    29   14   15 ar  
    30   14   16 ar  
    31   15   20 ar  
    32   15   46 1   
    33   16   17 1   
    34   16   18 ar  
    35   18   19 ar  
    36   18   47 1   
    37   19   20 ar  
    38   19   48 1   
    39   20   21 1   
    40   21   22 1   
    41   21   49 1   
    42   21   50 1   
    43   22   23 1   
    44   22   32 2   
    45   23   24 ar  
    46   23   28 ar  
    47   24   25 ar  
    48   24   51 1   
    49   25   26 ar  
    50   25   52 1   
    51   26   27 ar  
    52   26   53 1   
    53   27   28 ar  
    54   27   54 1   
    55   28   29 1   
    56   29   30 2   
    57   29   31 1   
    58   31   32 1   
    59   31   55 1   
@<TRIPOS>SUBSTRUCTURE
     1 09L         1 TEMP              0 ****  ****    0 ROOT
