@<TRIPOS>MOLECULE
09M
   45    54     1     0     0
SMALL
bcc


@<TRIPOS>ATOM
      1 N3          0.0000    0.0000    0.0000 n         1 09M      0.365000
      2 C4          5.6960   -0.0030    0.2260 c2        1 09M     -0.241000
      3 N2          3.4920   -0.0020    1.2420 ny        1 09M      0.757000
      4 C7          1.3440    0.0000    0.0000 c2        1 09M      0.243000
      5 C6          2.0950    0.0000    1.2570 c2        1 09M     -0.500000
      6 C9         -0.0420    0.0000    2.4150 c3        1 09M      0.044000
      7 C13        -2.1420    0.0160    3.5640 c2        1 09M      0.005000
      8 C8          1.4210   -0.0000    2.4390 c2        1 09M     -0.254000
      9 C16         7.7640    1.1470    0.5880 c3        1 09M     -0.202000
     10 O7          7.4690   -6.0510    0.6720 o         1 09M     -0.391500
     11 P           6.1950   -5.1340    0.3140 p5        1 09M      1.071500
     12 O1          5.6840   -5.4820   -1.1730 o         1 09M     -0.391500
     13 O2          5.1090   -5.3980    1.2840 o         1 09M     -0.391500
     14 O3          6.6140   -3.5810    0.3870 os        1 09M     -0.569000
     15 C2          6.3940   -1.1940    0.3490 c3        1 09M     -0.202000
     16 C3          7.7550   -1.1570    0.5870 c2        1 09M     -0.205000
     17 N1          8.3920   -0.0080    0.6980 n2        1 09M      0.070000
     18 C17         8.5390    2.4330    0.7240 c3        1 09M     -0.341000
     19 C15         6.4000    1.1910    0.3430 c3        1 09M      0.013000
     20 O6          5.7580    2.3840    0.2300 oh        1 09M     -0.264000
     21 C5          4.2110   -0.0020   -0.0340 DU        1 09M     -0.295000
     22 C14        -0.7760    0.0060    3.6070 c2        1 09M      0.014000
     23 C12        -2.8080    0.0160    2.3470 c3        1 09M     -0.072000
     24 C11        -2.1060    0.0100    1.1610 c2        1 09M     -0.587000
     25 C10        -0.7140    0.0060    1.1800 c2        1 09M     -0.128000
     26 O5         -0.6950    0.0000   -1.2340 oh        1 09M     -0.294000
     27 O4          1.9460   -0.0000   -1.0590 o         1 09M     -0.453000
     28 H1          4.1090   -0.7040    0.8840 DU        1 09M      0.128000
     29 H2         -1.1150   -0.1270    3.2510 ha        1 09M     -0.232000
     30 H3          0.4510    0.0050    2.9210 DU        1 09M      0.459000
     31 H6          4.9290   -2.0520    0.8540 h1        1 09M      0.101000
     32 H7          4.6320   -2.7030    0.4290 h1        1 09M      0.101000
     33 H8          7.0200   -1.6690   -0.0220 DU        1 09M      0.368000
     34 H9          8.4840    1.3510    0.7140 DU        1 09M      0.248000
     35 H10         8.5560    2.9470   -0.2300 hc        1 09M      0.096000
     36 H11         8.0650    3.0630    1.4660 hc        1 09M      0.096000
     37 H12         6.6800    2.3420    0.4250 DU        1 09M      0.286000
     38 H13         4.7660    0.9060   -0.2380 hx        1 09M      0.182500
     39 H14         3.9430   -0.8860   -0.6000 hx        1 09M      0.182500
     40 H15         0.0250    0.1560    2.8930 DU        1 09M     -0.244000
     41 H16        -1.9910    0.0130    3.0580 hc        1 09M     -0.122000
     42 H17        -3.0140    0.0180    1.7530 DU        1 09M      0.218000
     43 H18        -1.4500    0.0310   -0.6710 ho        1 09M      0.270000
     44 C1          5.6780   -2.5140    0.2230 c3        1 09M      0.019000
     45 H22         3.7940    0.8320    1.7070 hn        1 09M      0.042000
@<TRIPOS>BOND
     1    1    4 1   
     2    1   25 1   
     3    1   26 1   
     4    2   15 1   
     5    2   19 1   
     6    2   21 1   
     7    3    5 1   
     8    3   21 1   
     9    3   28 1   
    10    3   45 1   
    11    4    5 1   
    12    4   27 1   
    13    5    8 1   
    14    6    8 1   
    15    6   22 1   
    16    6   25 1   
    17    6   30 1   
    18    7   22 1   
    19    7   23 1   
    20    7   29 1   
    21    8   30 1   
    22    9   17 1   
    23    9   18 1   
    24    9   19 1   
    25    9   34 1   
    26   10   11 1   
    27   11   12 1   
    28   11   13 1   
    29   11   14 1   
    30   14   44 1   
    31   15   16 1   
    32   15   33 1   
    33   15   44 1   
    34   16   17 1   
    35   16   33 1   
    36   18   34 1   
    37   18   35 1   
    38   18   36 1   
    39   19   20 1   
    40   19   37 1   
    41   20   37 1   
    42   21   28 1   
    43   21   38 1   
    44   21   39 1   
    45   22   40 1   
    46   23   24 1   
    47   23   41 1   
    48   23   42 1   
    49   24   25 1   
    50   24   42 1   
    51   26   43 1   
    52   30   40 1   
    53   31   44 1   
    54   32   44 1   
@<TRIPOS>SUBSTRUCTURE
     1 09M         1 TEMP              0 ****  ****    0 ROOT
