@<TRIPOS>MOLECULE
09M
   44    46     1     0     0
SMALL
bcc


@<TRIPOS>ATOM
      1 N3          3.7950   -0.7210    1.2860 n         1 09M     -0.169900
      2 C4         -1.3940    1.2140   -0.3320 ca        1 09M     -0.111300
      3 N2          1.0500    0.9360   -0.6220 n2        1 09M     -0.761900
      4 C7          2.5080   -0.6130    0.6700 c         1 09M      0.511200
      5 C6          2.2480    0.5250   -0.2950 cc        1 09M      0.561600
      6 C9          4.7090    0.7060   -0.4950 ca        1 09M      0.098000
      7 C13         7.1360    0.8670   -0.7590 ca        1 09M     -0.105000
      8 C8          3.4230    1.0850   -0.8770 cc        1 09M     -0.502600
      9 C16        -2.6680    3.1500   -1.1470 ca        1 09M      0.324600
     10 O7         -5.5200   -2.6940    2.1560 o         1 09M     -0.837000
     11 P          -4.8180   -2.1880    0.9630 p5        1 09M      1.427800
     12 O1         -4.0220   -2.9880    0.0060 o         1 09M     -0.837000
     13 O2         -5.8580   -1.3810   -0.0080 oh        1 09M     -0.779400
     14 O3         -3.9180   -0.8750    1.4150 os        1 09M     -0.581200
     15 C2         -2.6230    0.6910    0.1200 ca        1 09M     -0.168600
     16 C3         -3.7960    1.4480   -0.0800 ca        1 09M      0.360200
     17 N1         -3.8330    2.6420   -0.6900 nb        1 09M     -0.675000
     18 C17        -2.6460    4.4710   -1.8420 c3        1 09M     -0.116400
     19 C15        -1.4280    2.4610   -0.9880 ca        1 09M      0.044800
     20 O6         -0.3510    3.1250   -1.5130 oh        1 09M     -0.543100
     21 C5         -0.1500    0.4070   -0.0530 c3        1 09M      0.184100
     22 C14         5.8610    1.2570   -1.1200 ca        1 09M     -0.222000
     23 C12         7.3340   -0.0860    0.2440 ca        1 09M     -0.260000
     24 C11         6.2340   -0.6400    0.8950 ca        1 09M     -0.080000
     25 C10         4.9340   -0.2540    0.5490 ca        1 09M     -0.087000
     26 O5          4.0320   -1.9120    1.8670 oh        1 09M     -0.448100
     27 O4          1.6240   -1.4040    1.0600 o         1 09M     -0.652500
     28 H1         -5.5430   -1.3380   -0.9030 ho        1 09M      0.421000
     29 H2          8.0070    1.3070   -1.2650 ha        1 09M      0.087000
     30 H3          3.3040    1.8530   -1.6510 ha        1 09M      0.122000
     31 H6         -1.8930   -0.6790    1.5950 h1        1 09M      0.056200
     32 H7         -2.4800   -1.4590    0.0350 h1        1 09M      0.056200
     33 H8         -4.7690    1.0630    0.2820 h4        1 09M      0.047100
     34 H9         -1.9810    5.1700   -1.2780 hc        1 09M      0.032367
     35 H10        -2.2170    4.3380   -2.8660 hc        1 09M      0.032367
     36 H11        -3.6620    4.9250   -1.9290 hc        1 09M      0.032367
     37 H12         0.4490    2.5680   -1.4010 ho        1 09M      0.476000
     38 H13        -0.0700    0.3090    1.0750 h1        1 09M      0.053200
     39 H14        -0.3310   -0.6430   -0.4400 h1        1 09M      0.053200
     40 H15         5.7100    2.0040   -1.9110 ha        1 09M      0.109000
     41 H16         8.3470   -0.3990    0.5200 ha        1 09M      0.095000
     42 H17         6.3900   -1.3900    1.6850 ha        1 09M      0.116000
     43 H18         3.2720   -2.0630    2.4650 ho        1 09M      0.422000
     44 C1         -2.6920   -0.6490    0.7950 c3        1 09M      0.216700
@<TRIPOS>BOND
     1    1    4 1   
     2    1   25 2   
     3    1   26 1   
     4    2   15 ar  
     5    2   19 ar  
     6    2   21 1   
     7    3    5 2   
     8    3   21 1   
     9    4    5 1   
    10    4   27 2   
    11    5    8 1   
    12    6    8 2   
    13    6   22 ar  
    14    6   25 ar  
    15    7   22 ar  
    16    7   23 ar  
    17    7   29 1   
    18    8   30 1   
    19    9   17 ar  
    20    9   18 1   
    21    9   19 ar  
    22   10   11 1   
    23   11   12 1   
    24   11   13 1   
    25   11   14 1   
    26   13   28 1   
    27   14   44 1   
    28   15   16 ar  
    29   15   44 1   
    30   16   17 ar  
    31   16   33 1   
    32   18   34 1   
    33   18   35 1   
    34   18   36 1   
    35   19   20 1   
    36   20   37 1   
    37   21   38 1   
    38   21   39 1   
    39   22   40 1   
    40   23   24 ar  
    41   23   41 1   
    42   24   25 ar  
    43   24   42 1   
    44   26   43 1   
    45   31   44 1   
    46   32   44 1   
@<TRIPOS>SUBSTRUCTURE
     1 09M         1 TEMP              0 ****  ****    0 ROOT
