@<TRIPOS>MOLECULE
09O
   28    26     1     0     0
SMALL
bcc


@<TRIPOS>ATOM
      1 C1          0.5740    1.1710   -0.4910 c3        1 09O      0.194800
      2 C2          2.1000    1.1860   -0.3910 c3        1 09O      0.163800
      3 N1          2.5210    1.2130    0.9750 n3        1 09O     -0.832200
      4 C3          2.0760    0.0350    1.6740 c3        1 09O      0.168800
      5 C4          0.7510    0.2980    2.3970 c3        1 09O     -0.106400
      6 C5         -0.4160    0.2440    1.4260 c3        1 09O      0.197800
      7 N2          0.0320   -0.0180    0.1180 n3        1 09O     -0.625200
      8 C6         -3.1210   -1.3570   -2.3080 c1        1 09O     -0.074500
      9 N3         -3.2120   -0.1480   -1.6980 n1        1 09O     -0.442800
     10 C7         -2.1940    0.2910   -0.8800 c1        1 09O      0.256300
     11 C8         -1.0620   -0.5090   -0.6760 c1        1 09O      0.078800
     12 C9         -0.9680   -1.7290   -1.2900 c1        1 09O     -0.082500
     13 C10        -1.9830   -2.1660   -2.1060 c1        1 09O     -0.074500
     14 H1          0.2090    1.9680   -0.0310 h1        1 09O      0.047700
     15 H2          0.3100    1.1970   -1.4460 h1        1 09O      0.047700
     16 H3          2.4500    0.3990   -0.8120 h1        1 09O      0.038700
     17 H4          2.4490    1.9830   -0.8550 h1        1 09O      0.038700
     18 H5          3.4750    1.2640    1.0130 hn        1 09O      0.366800
     19 H7          2.7420   -0.2230    2.3180 h1        1 09O      0.027700
     20 H8          1.9510   -0.7040    1.0200 h1        1 09O      0.027700
     21 H9          0.7830    1.1930    2.8210 hc        1 09O      0.058200
     22 H10         0.6230   -0.3750    3.0840 hc        1 09O      0.058200
     23 H11        -1.0360   -0.4680    1.7050 h1        1 09O      0.048200
     24 H12        -0.8710    1.0740    1.4380 h1        1 09O      0.048200
     25 H13        -3.8430   -1.6660   -2.8880 ha        1 09O      0.091500
     26 H14        -2.2610    1.1570   -0.4430 ha        1 09O      0.101500
     27 H15        -0.1600   -2.3020   -1.1460 ha        1 09O      0.081500
     28 H16        -1.9200   -3.0070   -2.5310 ha        1 09O      0.091500
@<TRIPOS>BOND
     1    1    2 1   
     2    1    7 1   
     3    1   14 1   
     4    1   15 1   
     5    2    3 1   
     6    2   16 1   
     7    2   17 1   
     8    3    4 1   
     9    3   18 1   
    10    4    5 1   
    11    4   19 1   
    12    4   20 1   
    13    5    6 1   
    14    5   21 1   
    15    5   22 1   
    16    6    7 1   
    17    6   23 1   
    18    6   24 1   
    19    7   11 1   
    20    8   13 3   
    21    8   25 1   
    22    9   10 3   
    23   10   26 1   
    24   11   12 3   
    25   12   27 1   
    26   13   28 1   
@<TRIPOS>SUBSTRUCTURE
     1 09O         1 TEMP              0 ****  ****    0 ROOT
