@<TRIPOS>MOLECULE
09O
   28    29     1     0     0
SMALL
bcc


@<TRIPOS>ATOM
      1 C1         -1.0920    0.8460   -1.1810 c3        1 09O      0.168800
      2 C2         -1.8410    1.5540   -0.0290 c3        1 09O      0.120800
      3 N1         -3.0430    0.9130    0.4470 n3        1 09O     -0.804200
      4 C3         -2.8780   -0.4610    0.8650 c3        1 09O      0.153800
      5 C4         -2.4650   -1.4630   -0.2130 c3        1 09O     -0.130400
      6 C5         -0.9590   -1.5240   -0.4390 c3        1 09O      0.205800
      7 N2         -0.2900   -0.2980   -0.8300 nh        1 09O     -0.659000
      8 C6          3.6040    0.1590    0.6060 ca        1 09O      0.348200
      9 N3          3.1420   -1.0750    0.3260 nb        1 09O     -0.640000
     10 C7          1.8810   -1.1930   -0.1090 ca        1 09O      0.346200
     11 C8          0.9890   -0.0870   -0.2910 ca        1 09O      0.051300
     12 C9          1.5050    1.1930    0.0200 ca        1 09O     -0.163000
     13 C10         2.8190    1.3140    0.4650 ca        1 09O     -0.210300
     14 H1         -1.8370    0.5020   -1.9550 h1        1 09O      0.056200
     15 H2         -0.4230    1.6040   -1.6800 h1        1 09O      0.056200
     16 H3         -1.1470    1.6770    0.8490 h1        1 09O      0.059700
     17 H4         -2.1230    2.5830   -0.3910 h1        1 09O      0.059700
     18 H5         -3.7630    0.9710   -0.2510 hn        1 09O      0.353800
     19 H7         -2.1190   -0.4840    1.6970 h1        1 09O      0.056700
     20 H8         -3.8670   -0.7900    1.2940 h1        1 09O      0.056700
     21 H9         -2.7840   -2.4880    0.1180 hc        1 09O      0.052200
     22 H10        -2.9970   -1.2500   -1.1760 hc        1 09O      0.052200
     23 H11        -0.4920   -1.9290    0.5080 h1        1 09O      0.044700
     24 H12        -0.7610   -2.2740   -1.2610 h1        1 09O      0.044700
     25 H14         1.5580   -2.2250   -0.3390 h4        1 09O      0.022100
     26 H15         0.8850    2.0970   -0.0790 ha        1 09O      0.137000
     27 H16         3.2350    2.3010    0.7070 ha        1 09O      0.140000
     28 H13         4.6480    0.2160    0.9580 h4        1 09O      0.021100
@<TRIPOS>BOND
     1    1    2 1   
     2    1    7 1   
     3    1   14 1   
     4    1   15 1   
     5    2    3 1   
     6    2   16 1   
     7    2   17 1   
     8    3    4 1   
     9    3   18 1   
    10    4    5 1   
    11    4   19 1   
    12    4   20 1   
    13    5    6 1   
    14    5   21 1   
    15    5   22 1   
    16    6    7 1   
    17    6   23 1   
    18    6   24 1   
    19    7   11 1   
    20    8    9 ar  
    21    8   13 ar  
    22    8   28 1   
    23    9   10 ar  
    24   10   11 ar  
    25   10   25 1   
    26   11   12 ar  
    27   12   13 ar  
    28   12   26 1   
    29   13   27 1   
@<TRIPOS>SUBSTRUCTURE
     1 09O         1 TEMP              0 ****  ****    0 ROOT
