@<TRIPOS>MOLECULE
09O
   28    29     1     0     0
SMALL
bcc


@<TRIPOS>ATOM
      1 C1         -0.1010    0.4000    0.2250 c3        1 09O      0.204800
      2 C2          1.2980   -0.1210   -0.1690 c3        1 09O      0.131800
      3 N1          2.1450   -0.4420    0.9570 n7        1 09O     -0.827200
      4 C3          1.6250   -1.4280    1.8800 c3        1 09O      0.166800
      5 C4          0.3980   -0.9650    2.6610 c3        1 09O     -0.094400
      6 C5         -0.9120   -1.2170    1.9240 c3        1 09O      0.204800
      7 N2         -1.0710   -0.5840    0.6290 nh        1 09O     -0.661000
      8 C6         -3.3010   -2.7280   -2.1750 ca        1 09O      0.346200
      9 N3         -3.5810   -2.8630   -0.8630 nb        1 09O     -0.639000
     10 C7         -2.8340   -2.1820    0.0140 ca        1 09O      0.343200
     11 C8         -1.7490   -1.3200   -0.3530 ca        1 09O      0.054300
     12 C9         -1.4800   -1.2080   -1.7380 ca        1 09O     -0.167000
     13 C10        -2.2640   -1.9100   -2.6490 ca        1 09O     -0.209300
     14 H1         -0.0000    1.1390    1.0710 h1        1 09O      0.063700
     15 H2         -0.5140    0.9590   -0.6630 h1        1 09O      0.063700
     16 H3          1.1750   -0.9950   -0.8770 h1        1 09O      0.034700
     17 H4          1.8130    0.7060   -0.7370 h1        1 09O      0.034700
     18 H5          3.0460   -0.7350    0.6250 hn        1 09O      0.365800
     19 H7          2.4490   -1.6410    2.6220 h1        1 09O      0.030700
     20 H8          1.3730   -2.4040    1.3680 h1        1 09O      0.030700
     21 H9          0.4920    0.1150    2.9450 hc        1 09O      0.059200
     22 H10         0.3530   -1.5560    3.6150 hc        1 09O      0.059200
     23 H11        -1.7560   -0.8410    2.5750 h1        1 09O      0.043200
     24 H12        -1.0350   -2.3360    1.8220 h1        1 09O      0.043200
     25 H14        -3.1180   -2.3150    1.0740 h4        1 09O      0.022100
     26 H15        -0.6610   -0.5750   -2.1100 ha        1 09O      0.136000
     27 H16        -2.0700   -1.8300   -3.7270 ha        1 09O      0.139000
     28 H13        -3.9410   -3.3010   -2.8660 h4        1 09O      0.021100
@<TRIPOS>BOND
     1    1    2 1   
     2    1    7 1   
     3    1   14 1   
     4    1   15 1   
     5    2    3 1   
     6    2   16 1   
     7    2   17 1   
     8    3    4 1   
     9    3   18 1   
    10    4    5 1   
    11    4   19 1   
    12    4   20 1   
    13    5    6 1   
    14    5   21 1   
    15    5   22 1   
    16    6    7 1   
    17    6   23 1   
    18    6   24 1   
    19    7   11 1   
    20    8    9 ar  
    21    8   13 ar  
    22    8   28 1   
    23    9   10 ar  
    24   10   11 ar  
    25   10   25 1   
    26   11   12 ar  
    27   12   13 ar  
    28   12   26 1   
    29   13   27 1   
@<TRIPOS>SUBSTRUCTURE
     1 09O         1 TEMP              0 ****  ****    0 ROOT
