@<TRIPOS>MOLECULE
09O
   28    29     1     0     0
SMALL
bcc


@<TRIPOS>ATOM
      1 C1         -0.1150    0.4030    0.2300 c3        1 09O      0.204800
      2 C2          1.2890   -0.1040   -0.1650 c3        1 09O      0.131800
      3 N1          2.1380   -0.4210    0.9600 n3        1 09O     -0.827200
      4 C3          1.6270   -1.4140    1.8800 c3        1 09O      0.166800
      5 C4          0.3950   -0.9640    2.6620 c3        1 09O     -0.094400
      6 C5         -0.9120   -1.2250    1.9240 c3        1 09O      0.204800
      7 N2         -1.0770   -0.5910    0.6310 nh        1 09O     -0.661000
      8 C6         -3.2860   -2.7450   -2.1810 ca        1 09O      0.346200
      9 N3         -3.5650   -2.8880   -0.8700 nb        1 09O     -0.639000
     10 C7         -2.8240   -2.2030    0.0100 ca        1 09O      0.343200
     11 C8         -1.7470   -1.3290   -0.3540 ca        1 09O      0.054300
     12 C9         -1.4780   -1.2100   -1.7390 ca        1 09O     -0.167000
     13 C10        -2.2560   -1.9170   -2.6530 ca        1 09O     -0.209300
     14 H1         -0.5330    0.9620   -0.6560 h1        1 09O      0.063700
     15 H2         -0.0210    1.1410    1.0780 h1        1 09O      0.063700
     16 H3          1.1740   -0.9760   -0.8750 h1        1 09O      0.034700
     17 H4          1.7960    0.7300   -0.7300 h1        1 09O      0.034700
     18 H5          3.0420   -0.7040    0.6280 hn        1 09O      0.365800
     19 H7          2.4520   -1.6220    2.6210 h1        1 09O      0.030700
     20 H8          1.3840   -2.3910    1.3650 h1        1 09O      0.030700
     21 H9          0.3550   -1.5590    3.6140 hc        1 09O      0.059200
     22 H10         0.4800    0.1160    2.9500 hc        1 09O      0.059200
     23 H11        -1.7600   -0.8590    2.5750 h1        1 09O      0.043200
     24 H12        -1.0260   -2.3450    1.8180 h1        1 09O      0.043200
     25 H14        -3.1070   -2.3410    1.0690 h4        1 09O      0.022100
     26 H15        -0.6650   -0.5690   -2.1080 ha        1 09O      0.136000
     27 H16        -2.0620   -1.8310   -3.7300 ha        1 09O      0.139000
     28 H13        -3.9200   -3.3230   -2.8750 h4        1 09O      0.021100
@<TRIPOS>BOND
     1    1    2 1   
     2    1    7 1   
     3    1   14 1   
     4    1   15 1   
     5    2    3 1   
     6    2   16 1   
     7    2   17 1   
     8    3    4 1   
     9    3   18 1   
    10    4    5 1   
    11    4   19 1   
    12    4   20 1   
    13    5    6 1   
    14    5   21 1   
    15    5   22 1   
    16    6    7 1   
    17    6   23 1   
    18    6   24 1   
    19    7   11 1   
    20    8    9 ar  
    21    8   13 ar  
    22    8   28 1   
    23    9   10 ar  
    24   10   11 ar  
    25   10   25 1   
    26   11   12 ar  
    27   12   13 ar  
    28   12   26 1   
    29   13   27 1   
@<TRIPOS>SUBSTRUCTURE
     1 09O         1 TEMP              0 ****  ****    0 ROOT
