@<TRIPOS>MOLECULE
09O
   28    29     1     0     0
SMALL
bcc


@<TRIPOS>ATOM
      1 C1         -0.0940    0.3980    0.2290 c3        1 09O      0.204800
      2 C2          1.3030   -0.1290   -0.1640 c3        1 09O      0.131800
      3 N1          2.1470   -0.4560    0.9620 n3        1 09O     -0.827200
      4 C3          1.6210   -1.4410    1.8830 c3        1 09O      0.166800
      5 C4          0.3950   -0.9740    2.6630 c3        1 09O     -0.094400
      6 C5         -0.9150   -1.2180    1.9230 c3        1 09O      0.204800
      7 N2         -1.0690   -0.5830    0.6290 nh        1 09O     -0.661000
      8 C6         -3.3050   -2.7090   -2.1820 ca        1 09O      0.346200
      9 N3         -3.5870   -2.8470   -0.8720 nb        1 09O     -0.639000
     10 C7         -2.8380   -2.1710    0.0090 ca        1 09O      0.343200
     11 C8         -1.7490   -1.3130   -0.3560 ca        1 09O      0.054300
     12 C9         -1.4770   -1.1990   -1.7400 ca        1 09O     -0.167000
     13 C10        -2.2630   -1.8960   -2.6540 ca        1 09O     -0.209300
     14 H1         -0.5030    0.9610   -0.6580 h1        1 09O      0.063700
     15 H2          0.0090    1.1350    1.0760 h1        1 09O      0.063700
     16 H3          1.1780   -1.0000   -0.8740 h1        1 09O      0.034700
     17 H4          1.8230    0.6970   -0.7290 h1        1 09O      0.034700
     18 H5          3.0470   -0.7510    0.6310 hn        1 09O      0.365800
     19 H7          2.4430   -1.6590    2.6260 h1        1 09O      0.030700
     20 H8          1.3660   -2.4150    1.3690 h1        1 09O      0.030700
     21 H9          0.3460   -1.5670    3.6150 hc        1 09O      0.059200
     22 H10         0.4940    0.1050    2.9490 hc        1 09O      0.059200
     23 H11        -1.0430   -2.3370    1.8180 h1        1 09O      0.043200
     24 H12        -1.7590   -0.8400    2.5740 h1        1 09O      0.043200
     25 H14        -3.1240   -2.3050    1.0670 h4        1 09O      0.022100
     26 H15        -0.6540   -0.5700   -2.1090 ha        1 09O      0.136000
     27 H16        -2.0670   -1.8140   -3.7310 ha        1 09O      0.139000
     28 H13        -3.9460   -3.2790   -2.8760 h4        1 09O      0.021100
@<TRIPOS>BOND
     1    1    2 1   
     2    1    7 1   
     3    1   14 1   
     4    1   15 1   
     5    2    3 1   
     6    2   16 1   
     7    2   17 1   
     8    3    4 1   
     9    3   18 1   
    10    4    5 1   
    11    4   19 1   
    12    4   20 1   
    13    5    6 1   
    14    5   21 1   
    15    5   22 1   
    16    6    7 1   
    17    6   23 1   
    18    6   24 1   
    19    7   11 1   
    20    8    9 ar  
    21    8   13 ar  
    22    8   28 1   
    23    9   10 ar  
    24   10   11 ar  
    25   10   25 1   
    26   11   12 ar  
    27   12   13 ar  
    28   12   26 1   
    29   13   27 1   
@<TRIPOS>SUBSTRUCTURE
     1 09O         1 TEMP              0 ****  ****    0 ROOT
