@<TRIPOS>MOLECULE
09P
   35    36     1     0     0
SMALL
bcc


@<TRIPOS>ATOM
      1 C1          2.3110    1.9770    0.1550 c3        1 09P      0.132800
      2 N1          3.4210    1.2230    0.6980 n3        1 09P     -0.825200
      3 C2          3.0870   -0.1150    1.1430 c3        1 09P      0.166800
      4 C3          3.1970   -1.1900    0.0620 c3        1 09P     -0.105400
      5 C4          2.7480   -0.7550   -1.3310 c3        1 09P      0.201800
      6 N2          1.5850    0.1100   -1.4160 nh        1 09P     -0.630000
      7 C5          1.8840    1.5160   -1.2550 c3        1 09P      0.192800
      8 C6         -2.1020   -1.4950   -0.2370 ca        1 09P      0.274200
      9 C7         -1.9140   -0.1020   -0.1390 ca        1 09P      0.049800
     10 C8         -0.6730    0.4630   -0.4800 ca        1 09P     -0.204000
     11 C9          0.3610   -0.3820   -0.9360 ca        1 09P      0.083300
     12 C10         0.0630   -1.7860   -0.9830 ca        1 09P      0.310200
     13 N3         -1.1180   -2.3150   -0.6510 nb        1 09P     -0.613000
     14 C11        -4.1480    0.2330    0.6140 c3        1 09P      0.127400
     15 C12        -5.0200    1.3960    1.0260 c3        1 09P     -0.100100
     16 H1          1.4030    1.9440    0.8280 h1        1 09P      0.035700
     17 H2          2.6320    3.0540    0.0670 h1        1 09P      0.035700
     18 H3          3.8360    1.7380    1.4520 hn        1 09P      0.364800
     19 H5          3.7960   -0.3990    1.9740 h1        1 09P      0.032700
     20 H6          2.0410   -0.1580    1.5730 h1        1 09P      0.032700
     21 H7          4.2630   -1.5280   -0.0200 hc        1 09P      0.049200
     22 H8          2.5850   -2.0680    0.3970 hc        1 09P      0.049200
     23 H9          3.6040   -0.2110   -1.8260 h1        1 09P      0.057700
     24 H10         2.5420   -1.6760   -1.9480 h1        1 09P      0.057700
     25 H11         0.9860    2.1220   -1.5620 h1        1 09P      0.061200
     26 H12         2.7160    1.7590   -1.9780 h1        1 09P      0.061200
     27 H13        -3.0560   -1.9810    0.0200 h4        1 09P      0.024100
     28 H14        -0.5510    1.5500   -0.3790 ha        1 09P      0.152000
     29 H15         0.8210   -2.5190   -1.3110 h4        1 09P      0.023100
     30 H16        -4.5630   -0.2880   -0.2890 h1        1 09P      0.041200
     31 H17        -4.0280   -0.5040    1.4520 h1        1 09P      0.041200
     32 H18        -5.1100    2.1310    0.1910 hc        1 09P      0.049700
     33 H19        -6.0340    1.0140    1.2910 hc        1 09P      0.049700
     34 H20        -4.5820    1.9190    1.9090 hc        1 09P      0.049700
     35 O1         -2.8670    0.7950    0.2910 os        1 09P     -0.327900
@<TRIPOS>BOND
     1    1    2 1   
     2    1    7 1   
     3    1   16 1   
     4    1   17 1   
     5    2    3 1   
     6    2   18 1   
     7    3    4 1   
     8    3   19 1   
     9    3   20 1   
    10    4    5 1   
    11    4   21 1   
    12    4   22 1   
    13    5    6 1   
    14    5   23 1   
    15    5   24 1   
    16    6    7 1   
    17    6   11 1   
    18    7   25 1   
    19    7   26 1   
    20    8    9 ar  
    21    8   13 ar  
    22    8   27 1   
    23    9   10 ar  
    24    9   35 1   
    25   10   11 ar  
    26   10   28 1   
    27   11   12 ar  
    28   12   13 ar  
    29   12   29 1   
    30   14   15 1   
    31   14   30 1   
    32   14   31 1   
    33   14   35 1   
    34   15   32 1   
    35   15   33 1   
    36   15   34 1   
@<TRIPOS>SUBSTRUCTURE
     1 09P         1 TEMP              0 ****  ****    0 ROOT
