@<TRIPOS>MOLECULE
09P
   35    32     1     0     0
SMALL
bcc


@<TRIPOS>ATOM
      1 C1          0.8600    2.6640   -2.1180 c3        1 09P      0.126800
      2 N1          2.2940    2.7360   -2.0740 n3        1 09P     -0.812200
      3 C2          2.7620    2.7290   -0.7510 c3        1 09P      0.158800
      4 C3          3.1640    1.3110   -0.3280 c3        1 09P     -0.148400
      5 C4          2.2170    0.2680   -0.9500 c3        1 09P      0.193800
      6 N2          0.8720    0.6670   -0.8080 n3        1 09P     -0.610200
      7 C5          0.3930    1.2530   -1.9960 c3        1 09P      0.151800
      8 C6         -1.3400   -2.7270    0.2450 c1        1 09P      0.196300
      9 C7         -1.3060   -1.6310    1.0980 c1        1 09P      0.069000
     10 C8         -0.6070   -0.5070    0.7390 c1        1 09P     -0.133500
     11 C9          0.0590   -0.4720   -0.4690 c1        1 09P      0.122800
     12 C10         0.0190   -1.5730   -1.3160 c1        1 09P     -0.106500
     13 N3         -0.6750   -2.6850   -0.9560 n1        1 09P     -0.410800
     14 O1         -1.9060   -1.7200    2.3940 o         1 09P     -0.371500
     15 C11        -3.3060   -1.8760    2.3700 c3        1 09P      0.217100
     16 C12        -3.8350   -2.0730    3.8350 c3        1 09P     -0.100100
     17 H1          0.5480    3.0330   -2.9680 h1        1 09P      0.060200
     18 H2          0.4860    3.1930   -1.3810 h1        1 09P      0.060200
     19 H3          2.6370    2.0460   -2.5080 hn        1 09P      0.357800
     20 H5          3.5590    3.3350   -0.6840 h1        1 09P      0.055700
     21 H6          2.0760    3.0480   -0.1680 h1        1 09P      0.055700
     22 H7          4.1160    1.1240   -0.6380 hc        1 09P      0.052200
     23 H8          3.1230    1.2410    0.6560 hc        1 09P      0.052200
     24 H9          2.3510   -0.6070   -0.4960 h1        1 09P      0.054200
     25 H10         2.4300    0.1660   -1.9440 h1        1 09P      0.054200
     26 H11        -0.6360    1.2370   -1.9920 h1        1 09P      0.059200
     27 H12         0.7200    0.7420   -2.7590 h1        1 09P      0.059200
     28 H13        -1.8620   -3.5670    0.5110 ha        1 09P      0.104500
     29 H14        -0.5820    0.2640    1.3340 ha        1 09P      0.096500
     30 H15         0.4800   -1.5480   -2.1530 ha        1 09P      0.101500
     31 H16        -3.7000   -1.1070    1.9980 h1        1 09P      0.041200
     32 H17        -3.5360   -2.6450    1.8360 h1        1 09P      0.041200
     33 H18        -3.7360   -1.1900    4.3530 hc        1 09P      0.049700
     34 H19        -4.8320   -2.3490    3.8090 hc        1 09P      0.049700
     35 H20        -3.3080   -2.7800    4.2820 hc        1 09P      0.049700
@<TRIPOS>BOND
     1    1    2 1   
     2    1    7 1   
     3    1   17 1   
     4    1   18 1   
     5    2    3 1   
     6    2   19 1   
     7    3    4 1   
     8    3   20 1   
     9    3   21 1   
    10    4    5 1   
    11    4   22 1   
    12    4   23 1   
    13    5    6 1   
    14    5   24 1   
    15    5   25 1   
    16    6    7 1   
    17    6   11 1   
    18    7   26 1   
    19    7   27 1   
    20    8   13 3   
    21    8   28 1   
    22    9   10 3   
    23   10   29 1   
    24   11   12 3   
    25   12   30 1   
    26   14   15 1   
    27   15   16 1   
    28   15   31 1   
    29   15   32 1   
    30   16   33 1   
    31   16   34 1   
    32   16   35 1   
@<TRIPOS>SUBSTRUCTURE
     1 09P         1 TEMP              0 ****  ****    0 ROOT
