@<TRIPOS>MOLECULE
09P
   35    33     1     0     0
SMALL
bcc


@<TRIPOS>ATOM
      1 C1          0.2330    0.7210   -0.2920 c3        1 09P     -0.070000
      2 N1          1.6300    0.4320   -0.0500 n3        1 09P     -0.303000
      3 C2          1.9470    0.1230    1.3310 c3        1 09P     -0.063000
      4 C3          1.8010   -1.3510    1.6960 c3        1 09P     -0.148000
      5 C4          0.6670   -2.0940    0.9950 c3        1 09P     -0.054000
      6 N2         -0.5740   -1.3260    0.9190 n3        1 09P     -0.186000
      7 C5         -0.6840   -0.5180   -0.2900 c3        1 09P     -0.059000
      8 C6         -2.8120   -6.2580    3.2700 c3        1 09P     -0.070000
      9 C7         -1.3690   -6.0580    2.8360 c2        1 09P      0.186000
     10 C8         -3.0000   -1.9450    0.8280 c1        1 09P      0.081000
     11 C9         -1.7350   -2.0670    1.2090 c2        1 09P     -0.341000
     12 C10        -3.4320   -8.6570    3.9940 c1        1 09P      0.136000
     13 N3         -3.1350   -7.5630    3.6610 n2        1 09P     -0.348000
     14 C11        -5.2250   -4.5180    1.0530 c2        1 09P     -0.231500
     15 C12        -4.9640   -5.6660    0.4420 c2        1 09P     -0.231500
     16 H1         -1.7420   -0.1350   -0.3710 h1        1 09P      0.080500
     17 H2         -0.1820    1.4630    0.4530 h1        1 09P      0.072500
     18 H3          0.1460    1.1790   -1.3180 h1        1 09P      0.072500
     19 H5          2.1860    1.2090   -0.3580 hn        1 09P      0.156000
     20 H6          1.3090    0.7250    2.0440 h1        1 09P      0.068000
     21 H7          3.0210    0.4160    1.5200 h1        1 09P      0.068000
     22 H8          1.6570   -1.4110    2.8070 hc        1 09P      0.082000
     23 H9          2.7500   -1.8940    1.4440 hc        1 09P      0.082000
     24 H10         0.4880   -3.0540    1.5620 h1        1 09P      0.087000
     25 H11         1.0160   -2.3790   -0.0410 h1        1 09P      0.087000
     26 H12        -0.4660   -1.1290   -1.2140 h1        1 09P      0.080500
     27 H13        -3.0240   -5.5500    4.1270 h1        1 09P      0.137500
     28 H14        -0.7260   -6.9600    2.7520 h4        1 09P      0.114000
     29 H15        -1.5900   -2.8620    1.9910 h4        1 09P      0.206000
     30 H16        -3.4810   -5.9500    2.4020 h1        1 09P      0.137500
     31 H17        -5.9840   -4.4290    1.8430 ha        1 09P      0.116750
     32 H18        -4.7090   -3.5760    0.8040 ha        1 09P      0.116750
     33 H19        -5.4890   -6.6010    0.6800 ha        1 09P      0.116750
     34 H20        -4.2160   -5.7540   -0.3580 ha        1 09P      0.116750
     35 O1         -0.9470   -4.9290    2.5830 o         1 09P     -0.297000
@<TRIPOS>BOND
     1    1    2 1   
     2    1    7 1   
     3    1   17 1   
     4    1   18 1   
     5    2    3 1   
     6    2   19 1   
     7    3    4 1   
     8    3   20 1   
     9    3   21 1   
    10    4    5 1   
    11    4   22 1   
    12    4   23 1   
    13    5    6 1   
    14    5   24 1   
    15    5   25 1   
    16    6    7 1   
    17    6   11 1   
    18    7   16 1   
    19    7   26 1   
    20    8    9 1   
    21    8   13 1   
    22    8   27 1   
    23    8   30 1   
    24    9   28 1   
    25    9   35 1   
    26   10   11 1   
    27   11   29 1   
    28   12   13 1   
    29   14   15 1   
    30   14   31 1   
    31   14   32 1   
    32   15   33 1   
    33   15   34 1   
@<TRIPOS>SUBSTRUCTURE
     1 09P         1 TEMP              0 ****  ****    0 ROOT
