@<TRIPOS>MOLECULE
09P
   35    33     1     0     0
SMALL
bcc


@<TRIPOS>ATOM
      1 C1          0.1430    0.7190   -1.1350 c3        1 09P     -0.070000
      2 N1          0.4320   -0.5630   -0.5230 n7        1 09P     -0.309000
      3 C2          1.3210   -0.4880    0.6190 c3        1 09P     -0.077000
      4 C3          1.7760   -1.8520    1.1380 c3        1 09P     -0.145000
      5 C4          0.6300   -2.6220    1.7190 c2        1 09P     -0.028000
      6 N2          0.7170   -3.2250    2.8580 n2        1 09P     -0.179000
      7 C5         -0.6290    1.6790   -0.2440 c3        1 09P     -0.213000
      8 C6         -3.0080   -5.6120    4.1070 c1        1 09P      0.019000
      9 C7         -2.4600   -4.7500    2.0390 c2        1 09P      0.147000
     10 C8         -1.4320   -4.3990    2.7950 c1        1 09P     -0.351000
     11 C9         -0.3440   -3.9670    3.3920 c2        1 09P      0.024000
     12 C10        -3.8680   -3.8280    5.6740 c1        1 09P      0.154000
     13 N3         -3.3870   -4.6730    4.9720 n2        1 09P     -0.342000
     14 C11        -3.6330   -6.5360    1.0280 c3        1 09P     -0.032000
     15 C12        -4.4500   -5.8210   -0.0200 c3        1 09P     -0.248000
     16 H1         -0.0080    2.0120    0.6210 hc        1 09P      0.079333
     17 H2         -0.4770    0.5070   -2.0540 h1        1 09P      0.066000
     18 H3          1.0850    1.2430   -1.4800 h1        1 09P      0.066000
     19 H5          0.8040   -1.1890   -1.2130 hn        1 09P      0.154000
     20 H6          0.7690    0.0500    1.4400 h1        1 09P      0.076500
     21 H7          2.2520    0.1140    0.3910 h1        1 09P      0.076500
     22 H8          2.2150   -2.4690    0.3080 hc        1 09P      0.106000
     23 H9          2.5880   -1.6790    1.8940 hc        1 09P      0.106000
     24 H10        -0.2850   -2.6250    1.0850 h4        1 09P      0.124000
     25 H11        -1.5580    1.2030    0.1500 hc        1 09P      0.079333
     26 H12        -0.9140    2.5760   -0.8440 hc        1 09P      0.079333
     27 H13        -2.0980   -6.1780    4.4110 ha        1 09P      0.064000
     28 H14        -3.3980   -4.1700    1.9760 h4        1 09P      0.155000
     29 H15        -0.1620   -4.1950    4.4640 h4        1 09P      0.156000
     30 H16        -4.1880   -6.6250    2.0000 h1        1 09P      0.110000
     31 H17        -3.3160   -7.5530    0.6710 h1        1 09P      0.110000
     32 H18        -5.3490   -6.4330   -0.2720 hc        1 09P      0.085333
     33 H19        -4.7900   -4.8240    0.3490 hc        1 09P      0.085333
     34 H20        -3.8480   -5.6660   -0.9480 hc        1 09P      0.085333
     35 O1         -2.3740   -5.8810    1.2550 os        1 09P     -0.214000
@<TRIPOS>BOND
     1    1    2 1   
     2    1    7 1   
     3    1   17 1   
     4    1   18 1   
     5    2    3 1   
     6    2   19 1   
     7    3    4 1   
     8    3   20 1   
     9    3   21 1   
    10    4    5 1   
    11    4   22 1   
    12    4   23 1   
    13    5    6 1   
    14    5   24 1   
    15    6   11 1   
    16    7   16 1   
    17    7   25 1   
    18    7   26 1   
    19    8   13 1   
    20    8   27 1   
    21    9   10 1   
    22    9   28 1   
    23    9   35 1   
    24   10   11 1   
    25   11   29 1   
    26   12   13 1   
    27   14   15 1   
    28   14   30 1   
    29   14   31 1   
    30   14   35 1   
    31   15   32 1   
    32   15   33 1   
    33   15   34 1   
@<TRIPOS>SUBSTRUCTURE
     1 09P         1 TEMP              0 ****  ****    0 ROOT
