@<TRIPOS>MOLECULE
09P
   35    34     1     0     0
SMALL
bcc


@<TRIPOS>ATOM
      1 C1         -0.1760   -2.0090   -0.5670 c3        1 09P     -0.101000
      2 N1          0.8420   -0.9810   -0.5960 n3        1 09P     -0.304000
      3 C2          0.8620   -0.1160    0.5670 c3        1 09P     -0.068000
      4 C3          1.7460   -0.6140    1.7090 c3        1 09P     -0.183000
      5 C4          1.7400   -2.1240    1.9290 c3        1 09P     -0.033000
      6 N2          0.4820   -2.8230    1.7550 n3        1 09P     -0.246000
      7 C5          0.1430   -3.1720    0.3950 c3        1 09P     -0.045000
      8 C6         -1.6210   -5.9620    1.0760 c1        1 09P      0.066000
      9 C7         -3.1320   -2.7210    2.3440 c2        1 09P      0.058000
     10 C8         -1.8370   -2.6190    2.4480 c1        1 09P     -0.372000
     11 C9         -0.5450   -2.4870    2.6420 c2        1 09P      0.079000
     12 C10        -0.1770   -7.4380    2.5130 c1        1 09P      0.185000
     13 N3         -0.9210   -6.7170    1.8970 n2        1 09P     -0.335000
     14 C11        -5.1340   -3.9890    2.3130 c3        1 09P     -0.026000
     15 C12        -5.3180   -4.1100    0.8200 c3        1 09P     -0.249000
     16 H1         -0.7610   -3.8500    0.4170 h1        1 09P      0.106000
     17 H2         -1.1910   -1.5930   -0.2920 h1        1 09P      0.074500
     18 H3         -0.2560   -2.4500   -1.6000 h1        1 09P      0.074500
     19 H5          0.7360   -0.4290   -1.4270 hn        1 09P      0.158000
     20 H6         -0.1800    0.0460    0.9780 h1        1 09P      0.068500
     21 H7          1.2530    0.8940    0.2530 h1        1 09P      0.068500
     22 H8          2.8080   -0.3070    1.5180 hc        1 09P      0.083500
     23 H9          1.4070   -0.0960    2.6450 hc        1 09P      0.083500
     24 H10         2.0970   -2.3280    2.9800 h1        1 09P      0.095000
     25 H11         2.4790   -2.5930    1.2180 h1        1 09P      0.095000
     26 H12         1.0110   -3.7570   -0.0240 h1        1 09P      0.106000
     27 H13        -2.4570   -5.3940    1.5550 ha        1 09P      0.080000
     28 H14        -3.7960   -1.9030    2.0220 h4        1 09P      0.134000
     29 H15        -0.1770   -2.1270    3.6290 h4        1 09P      0.143000
     30 H16        -5.6800   -3.0960    2.7160 h1        1 09P      0.091000
     31 H17        -5.4880   -4.9150    2.8430 h1        1 09P      0.091000
     32 H18        -6.3960   -4.2760    0.5830 hc        1 09P      0.086000
     33 H19        -4.9740   -3.1800    0.3050 hc        1 09P      0.086000
     34 H20        -4.7230   -4.9680    0.4230 hc        1 09P      0.086000
     35 O1         -3.7520   -3.9240    2.6730 os        1 09P     -0.236000
@<TRIPOS>BOND
     1    1    2 1   
     2    1    7 1   
     3    1   17 1   
     4    1   18 1   
     5    2    3 1   
     6    2   19 1   
     7    3    4 1   
     8    3   20 1   
     9    3   21 1   
    10    4    5 1   
    11    4   22 1   
    12    4   23 1   
    13    5    6 1   
    14    5   24 1   
    15    5   25 1   
    16    6    7 1   
    17    6   11 1   
    18    7   16 1   
    19    7   26 1   
    20    8   13 1   
    21    8   27 1   
    22    9   10 1   
    23    9   28 1   
    24    9   35 1   
    25   10   11 1   
    26   11   29 1   
    27   12   13 1   
    28   14   15 1   
    29   14   30 1   
    30   14   31 1   
    31   14   35 1   
    32   15   32 1   
    33   15   33 1   
    34   15   34 1   
@<TRIPOS>SUBSTRUCTURE
     1 09P         1 TEMP              0 ****  ****    0 ROOT
