@<TRIPOS>MOLECULE
09Q
   38    40     1     0     0
SMALL
bcc


@<TRIPOS>ATOM
      1 C1          0.0790    0.0200    0.1110 cp        1 09Q     -0.038000
      2 C2          1.3910    0.3990    0.4280 ca        1 09Q     -0.116500
      3 C3          1.9250    0.1060    1.6810 ca        1 09Q     -0.129500
      4 C4          1.1580   -0.5700    2.6290 ca        1 09Q     -0.124000
      5 C5         -0.1480   -0.9520    2.3210 ca        1 09Q     -0.129500
      6 C6         -0.6870   -0.6580    1.0710 ca        1 09Q     -0.116500
      7 C7         -1.6600    0.9340   -3.6120 ca        1 09Q      0.351200
      8 C8         -1.8330    0.7400   -1.3230 ca        1 09Q      0.382200
      9 C9         -0.4850    0.3290   -1.1980 cp        1 09Q     -0.133300
     10 C10         0.2840    0.2230   -2.3610 ca        1 09Q     -0.101000
     11 C11        -0.2970    0.5240   -3.6140 ca        1 09Q      0.012300
     12 C12        -0.3020    0.1100   -6.0080 c3        1 09Q      0.186800
     13 C13         0.4400   -0.7460   -7.0330 c3        1 09Q     -0.115400
     14 C14         1.3660    0.0450   -7.9540 c3        1 09Q      0.158800
     15 C15         2.5540    1.0160   -6.0520 c3        1 09Q      0.157800
     16 C16         1.5520    1.3200   -4.9200 c3        1 09Q      0.152800
     17 N1          0.4680    0.3590   -4.8000 nh        1 09Q     -0.641000
     18 N2          2.0680    1.1790   -7.3990 n3        1 09Q     -0.814200
     19 N3         -2.4080    1.0340   -2.5000 nb        1 09Q     -0.649000
     20 H1          1.9990    0.9380   -0.3150 ha        1 09Q      0.135000
     21 H2          2.9550    0.4090    1.9210 ha        1 09Q      0.133500
     22 H3          1.5820   -0.8020    3.6180 ha        1 09Q      0.133000
     23 H4         -0.7550   -1.4870    3.0660 ha        1 09Q      0.133500
     24 H5         -1.7160   -0.9670    0.8300 ha        1 09Q      0.135000
     25 H7         -2.4750    0.8450   -0.4300 h4        1 09Q      0.026100
     26 H8          1.3330   -0.1080   -2.2960 ha        1 09Q      0.149000
     27 H9         -0.6300    1.0730   -6.4960 h1        1 09Q      0.037200
     28 H10        -1.2330   -0.4580   -5.7150 h1        1 09Q      0.037200
     29 H11        -0.3290   -1.2600   -7.6680 hc        1 09Q      0.055700
     30 H12         1.0270   -1.5460   -6.5100 hc        1 09Q      0.055700
     31 H13         0.7740    0.4100   -8.8410 h1        1 09Q      0.047700
     32 H14         2.1510   -0.6650   -8.3440 h1        1 09Q      0.047700
     33 H15         3.4080    1.7430   -5.9220 h1        1 09Q      0.061700
     34 H16         2.9610   -0.0260   -5.9260 h1        1 09Q      0.061700
     35 H17         2.1240    1.3090   -3.9490 h1        1 09Q      0.038200
     36 H18         1.1500    2.3670   -5.0670 h1        1 09Q      0.038200
     37 H19         1.5010    2.0060   -7.4590 hn        1 09Q      0.355800
     38 H6         -2.1810    1.1940   -4.5510 h4        1 09Q      0.022100
@<TRIPOS>BOND
     1    1    2 ar  
     2    1    6 ar  
     3    1    9 1   
     4    2    3 ar  
     5    2   20 1   
     6    3    4 ar  
     7    3   21 1   
     8    4    5 ar  
     9    4   22 1   
    10    5    6 ar  
    11    5   23 1   
    12    6   24 1   
    13    7   11 ar  
    14    7   19 ar  
    15    7   38 1   
    16    8    9 ar  
    17    8   19 ar  
    18    8   25 1   
    19    9   10 ar  
    20   10   11 ar  
    21   10   26 1   
    22   11   17 1   
    23   12   13 1   
    24   12   17 1   
    25   12   27 1   
    26   12   28 1   
    27   13   14 1   
    28   13   29 1   
    29   13   30 1   
    30   14   18 1   
    31   14   31 1   
    32   14   32 1   
    33   15   16 1   
    34   15   18 1   
    35   15   33 1   
    36   15   34 1   
    37   16   17 1   
    38   16   35 1   
    39   16   36 1   
    40   18   37 1   
@<TRIPOS>SUBSTRUCTURE
     1 09Q         1 TEMP              0 ****  ****    0 ROOT
