@<TRIPOS>MOLECULE
09Q
   38    40     1     0     0
SMALL
bcc


@<TRIPOS>ATOM
      1 C1          0.0760   -0.0020    0.1090 cp        1 09Q     -0.038000
      2 C2          1.3880    0.3800    0.4290 ca        1 09Q     -0.116500
      3 C3          1.9210    0.0800    1.6810 ca        1 09Q     -0.129500
      4 C4          1.1560   -0.6040    2.6250 ca        1 09Q     -0.124000
      5 C5         -0.1490   -0.9880    2.3130 ca        1 09Q     -0.129500
      6 C6         -0.6880   -0.6890    1.0640 ca        1 09Q     -0.116500
      7 C7         -1.6620    0.9300   -3.6100 ca        1 09Q      0.351200
      8 C8         -1.8360    0.7210   -1.3220 ca        1 09Q      0.382200
      9 C9         -0.4870    0.3130   -1.1990 cp        1 09Q     -0.133300
     10 C10         0.2840    0.2170   -2.3620 ca        1 09Q     -0.101000
     11 C11        -0.2970    0.5250   -3.6130 ca        1 09Q      0.012300
     12 C12        -0.2990    0.1240   -6.0090 c3        1 09Q      0.186800
     13 C13         0.4480   -0.7230   -7.0390 c3        1 09Q     -0.115400
     14 C14         1.3710    0.0760   -7.9540 c3        1 09Q      0.158800
     15 C15         2.5540    1.0410   -6.0450 c3        1 09Q      0.157800
     16 C16         1.5490    1.3350   -4.9130 c3        1 09Q      0.152800
     17 N1          0.4690    0.3690   -4.7990 nh        1 09Q     -0.641000
     18 N2          2.0690    1.2110   -7.3920 n7        1 09Q     -0.814200
     19 N3         -2.4110    1.0200   -2.4980 nb        1 09Q     -0.649000
     20 H1          1.9940    0.9240   -0.3100 ha        1 09Q      0.135000
     21 H2          2.9500    0.3860    1.9240 ha        1 09Q      0.133500
     22 H3          1.5790   -0.8410    3.6120 ha        1 09Q      0.133000
     23 H4         -0.7550   -1.5290    3.0540 ha        1 09Q      0.133500
     24 H5         -1.7150   -0.9990    0.8200 ha        1 09Q      0.135000
     25 H7         -2.4790    0.8180   -0.4290 h4        1 09Q      0.026100
     26 H8          1.3330   -0.1110   -2.2980 ha        1 09Q      0.149000
     27 H9         -1.2280   -0.4480   -5.7210 h1        1 09Q      0.037200
     28 H10        -0.6300    1.0900   -6.4930 h1        1 09Q      0.037200
     29 H11        -0.3190   -1.2360   -7.6770 hc        1 09Q      0.055700
     30 H12         1.0360   -1.5240   -6.5200 hc        1 09Q      0.055700
     31 H13         2.1600   -0.6290   -8.3470 h1        1 09Q      0.047700
     32 H14         0.7790    0.4440   -8.8400 h1        1 09Q      0.047700
     33 H15         3.4040    1.7710   -5.9110 h1        1 09Q      0.061700
     34 H16         2.9650    0.0010   -5.9260 h1        1 09Q      0.061700
     35 H17         1.1440    2.3810   -5.0540 h1        1 09Q      0.038200
     36 H18         2.1200    1.3210   -3.9420 h1        1 09Q      0.038200
     37 H19         1.4980    2.0350   -7.4480 hn        1 09Q      0.355800
     38 H6         -2.1830    1.1940   -4.5480 h4        1 09Q      0.022100
@<TRIPOS>BOND
     1    1    2 ar  
     2    1    6 ar  
     3    1    9 1   
     4    2    3 ar  
     5    2   20 1   
     6    3    4 ar  
     7    3   21 1   
     8    4    5 ar  
     9    4   22 1   
    10    5    6 ar  
    11    5   23 1   
    12    6   24 1   
    13    7   11 ar  
    14    7   19 ar  
    15    7   38 1   
    16    8    9 ar  
    17    8   19 ar  
    18    8   25 1   
    19    9   10 ar  
    20   10   11 ar  
    21   10   26 1   
    22   11   17 1   
    23   12   13 1   
    24   12   17 1   
    25   12   27 1   
    26   12   28 1   
    27   13   14 1   
    28   13   29 1   
    29   13   30 1   
    30   14   18 1   
    31   14   31 1   
    32   14   32 1   
    33   15   16 1   
    34   15   18 1   
    35   15   33 1   
    36   15   34 1   
    37   16   17 1   
    38   16   35 1   
    39   16   36 1   
    40   18   37 1   
@<TRIPOS>SUBSTRUCTURE
     1 09Q         1 TEMP              0 ****  ****    0 ROOT
