@<TRIPOS>MOLECULE
09Q
   38    40     1     0     0
SMALL
bcc


@<TRIPOS>ATOM
      1 C1          2.7800   -0.0870    0.1710 cp        1 09Q     -0.039000
      2 C2          2.8030   -1.2540    0.9480 ca        1 09Q     -0.117000
      3 C3          3.9670   -2.0140    1.0410 ca        1 09Q     -0.130000
      4 C4          5.1180   -1.6200    0.3590 ca        1 09Q     -0.124000
      5 C5          5.1030   -0.4610   -0.4160 ca        1 09Q     -0.130000
      6 C6          3.9420    0.3040   -0.5110 ca        1 09Q     -0.117000
      7 C7         -0.6600    2.3240   -0.1150 ca        1 09Q      0.346200
      8 C8          1.6280    2.1260    0.0730 ca        1 09Q      0.377200
      9 C9          1.5640    0.7130    0.0730 cp        1 09Q     -0.128300
     10 C10         0.3070    0.1080   -0.0200 ca        1 09Q     -0.114000
     11 C11        -0.8540    0.9130   -0.1100 ca        1 09Q      0.025300
     12 C12        -3.2650    1.1250    0.2140 c3        1 09Q      0.190800
     13 C13        -4.3890    0.3670    0.9180 c3        1 09Q     -0.117400
     14 C14        -4.8580   -0.8880    0.1880 c3        1 09Q      0.160800
     15 C15        -2.9460   -1.9580   -0.8910 c3        1 09Q      0.158800
     16 C16        -2.3510   -0.5860   -1.2750 c3        1 09Q      0.157800
     17 N1         -2.1270    0.2950   -0.1400 nh        1 09Q     -0.648000
     18 N2         -3.9330   -2.0000    0.1610 n3        1 09Q     -0.804200
     19 N3          0.5430    2.9120   -0.0170 nb        1 09Q     -0.646000
     20 H1          1.8990   -1.5640    1.4930 ha        1 09Q      0.136000
     21 H2          3.9760   -2.9260    1.6550 ha        1 09Q      0.134000
     22 H3          6.0360   -2.2220    0.4330 ha        1 09Q      0.133000
     23 H4          6.0090   -0.1480   -0.9560 ha        1 09Q      0.134000
     24 H5          3.9330    1.2150   -1.1280 ha        1 09Q      0.136000
     25 H7          2.5990    2.6460    0.1550 h4        1 09Q      0.026100
     26 H8          0.2250   -0.9900   -0.0250 ha        1 09Q      0.147000
     27 H9         -3.6920    1.6330   -0.7010 h1        1 09Q      0.038700
     28 H10        -2.9220    1.9320    0.9240 h1        1 09Q      0.038700
     29 H11        -4.0610    0.0980    1.9570 hc        1 09Q      0.051700
     30 H12        -5.2580    1.0710    1.0100 hc        1 09Q      0.051700
     31 H13        -5.7880   -1.2620    0.7070 h1        1 09Q      0.049700
     32 H14        -5.1410   -0.6170   -0.8680 h1        1 09Q      0.049700
     33 H15        -3.4320   -2.3680   -1.8240 h1        1 09Q      0.049200
     34 H16        -2.1040   -2.6500   -0.6090 h1        1 09Q      0.049200
     35 H17        -1.3780   -0.7800   -1.8100 h1        1 09Q      0.043700
     36 H18        -3.0470   -0.0930   -2.0170 h1        1 09Q      0.043700
     37 H19        -3.4820   -2.0830    1.0550 hn        1 09Q      0.362800
     38 H6         -1.5120    3.0210   -0.2030 h4        1 09Q      0.022100
@<TRIPOS>BOND
     1    1    2 ar  
     2    1    6 ar  
     3    1    9 1   
     4    2    3 ar  
     5    2   20 1   
     6    3    4 ar  
     7    3   21 1   
     8    4    5 ar  
     9    4   22 1   
    10    5    6 ar  
    11    5   23 1   
    12    6   24 1   
    13    7   11 ar  
    14    7   19 ar  
    15    7   38 1   
    16    8    9 ar  
    17    8   19 ar  
    18    8   25 1   
    19    9   10 ar  
    20   10   11 ar  
    21   10   26 1   
    22   11   17 1   
    23   12   13 1   
    24   12   17 1   
    25   12   27 1   
    26   12   28 1   
    27   13   14 1   
    28   13   29 1   
    29   13   30 1   
    30   14   18 1   
    31   14   31 1   
    32   14   32 1   
    33   15   16 1   
    34   15   18 1   
    35   15   33 1   
    36   15   34 1   
    37   16   17 1   
    38   16   35 1   
    39   16   36 1   
    40   18   37 1   
@<TRIPOS>SUBSTRUCTURE
     1 09Q         1 TEMP              0 ****  ****    0 ROOT
