@<TRIPOS>MOLECULE
09Q
   38    33     1     0     0
SMALL
bcc


@<TRIPOS>ATOM
      1 C1          0.0390   -0.1480    3.2570 c1        1 09Q     -0.053500
      2 C2          0.1910    1.0130    4.0260 c1        1 09Q     -0.125250
      3 C3          0.8610    0.9530    5.2760 c1        1 09Q     -0.125250
      4 C4          1.3740   -0.2740    5.7450 c1        1 09Q     -0.125250
      5 C5          1.2200   -1.4480    4.9660 c1        1 09Q     -0.125250
      6 C6          0.5580   -1.3900    3.7300 c1        1 09Q     -0.109000
      7 C7         -2.2230    0.1600   -0.3310 c1        1 09Q     -0.114000
      8 C8         -2.1500   -0.1430    2.0040 c1        1 09Q     -0.082000
      9 C9         -0.7530   -0.1010    1.9670 c1        1 09Q     -0.053500
     10 C10        -0.1080    0.0710    0.7770 c1        1 09Q     -0.109000
     11 C11        -0.8280    0.2020   -0.3730 c1        1 09Q     -0.004000
     12 C12        -0.3440   -1.1230   -2.2500 c3        1 09Q     -0.050000
     13 C13         0.4580   -1.2420   -3.5380 c3        1 09Q     -0.193000
     14 C14         0.0190   -0.2030   -4.5420 c3        1 09Q     -0.078000
     15 C15         1.1800    1.3820   -3.2230 c3        1 09Q     -0.079000
     16 C16        -0.0710    1.2240   -2.3410 c3        1 09Q     -0.085000
     17 N1          0.0310    0.0560   -1.5180 n2        1 09Q     -0.243000
     18 N2          0.9310    0.8980   -4.5610 n3        1 09Q     -0.293000
     19 N3         -2.8640   -0.0120    0.8590 n1        1 09Q     -0.123000
     20 H1         -0.1710    1.8790    3.6960 ha        1 09Q      0.134250
     21 H2          0.9660    1.7630    5.8120 ha        1 09Q      0.134250
     22 H3          1.8410   -0.3150    6.6170 ha        1 09Q      0.134250
     23 H4          1.5790   -2.3100    5.2940 ha        1 09Q      0.134250
     24 H5          0.4500   -2.2100    3.1870 ha        1 09Q      0.143000
     25 H6         -2.7370    0.2530   -1.1500 ha        1 09Q      0.159000
     26 H7         -2.6170   -0.2660    2.8650 ha        1 09Q      0.163000
     27 H8          0.8940    0.1010    0.7500 ha        1 09Q      0.143000
     28 H9         -0.1810   -1.9090   -1.6980 h1        1 09Q      0.077000
     29 H10        -1.2890   -1.0760   -2.4680 h1        1 09Q      0.077000
     30 H11         0.3230   -2.1510   -3.9250 hc        1 09Q      0.095000
     31 H12         1.4030   -1.1150   -3.3410 hc        1 09Q      0.095000
     32 H13        -0.0150   -0.6040   -5.4220 h1        1 09Q      0.087000
     33 H14        -0.8570    0.1170   -4.3070 h1        1 09Q      0.087000
     34 H15         1.9350    0.8630   -2.8200 h1        1 09Q      0.100500
     35 H16         1.4300    2.3380   -3.2650 h1        1 09Q      0.100500
     36 H17        -0.8800    1.1410   -2.9300 h1        1 09Q      0.078500
     37 H18        -0.1720    2.0420   -1.7510 h1        1 09Q      0.078500
     38 H19         0.5790    1.5820   -5.0740 hn        1 09Q      0.151000
@<TRIPOS>BOND
     1    1    6 1   
     2    1    9 1   
     3    2    3 1   
     4    2   20 1   
     5    3   21 1   
     6    4    5 1   
     7    4   22 1   
     8    5   23 1   
     9    6   24 1   
    10    7   11 1   
    11    7   25 1   
    12    8   19 1   
    13    8   26 1   
    14    9   10 1   
    15   10   27 1   
    16   12   13 1   
    17   12   17 1   
    18   12   28 1   
    19   12   29 1   
    20   13   14 1   
    21   13   30 1   
    22   13   31 1   
    23   14   18 1   
    24   14   32 1   
    25   14   33 1   
    26   15   16 1   
    27   15   18 1   
    28   15   34 1   
    29   15   35 1   
    30   16   17 1   
    31   16   36 1   
    32   16   37 1   
    33   18   38 1   
@<TRIPOS>SUBSTRUCTURE
     1 09Q         1 TEMP              0 ****  ****    0 ROOT
