@<TRIPOS>MOLECULE
09Q
   38    40     1     0     0
SMALL
bcc


@<TRIPOS>ATOM
      1 C1          0.0770   -0.0190    0.1080 cp        1 09Q     -0.038000
      2 C2          1.3810    0.3840    0.4310 ca        1 09Q     -0.116500
      3 C3          1.9180    0.0900    1.6820 ca        1 09Q     -0.129500
      4 C4          1.1630   -0.6100    2.6230 ca        1 09Q     -0.124000
      5 C5         -0.1340   -1.0150    2.3080 ca        1 09Q     -0.129500
      6 C6         -0.6770   -0.7220    1.0590 ca        1 09Q     -0.116500
      7 C7         -1.6730    0.8930   -3.6110 ca        1 09Q      0.351200
      8 C8         -1.8460    0.6750   -1.3240 ca        1 09Q      0.382200
      9 C9         -0.4910    0.2900   -1.2000 cp        1 09Q     -0.133300
     10 C10         0.2840    0.2110   -2.3620 ca        1 09Q     -0.101000
     11 C11        -0.3010    0.5120   -3.6130 ca        1 09Q      0.012300
     12 C12        -0.2920    0.1190   -6.0110 c3        1 09Q      0.186800
     13 C13         0.4700   -0.7120   -7.0420 c3        1 09Q     -0.115400
     14 C14         1.3810    0.1060   -7.9530 c3        1 09Q      0.158800
     15 C15         2.5450    1.0850   -6.0400 c3        1 09Q      0.157800
     16 C16         1.5330    1.3580   -4.9090 c3        1 09Q      0.152800
     17 N1          0.4700    0.3730   -4.7990 nh        1 09Q     -0.641000
     18 N2          2.0580    1.2500   -7.3870 n3        1 09Q     -0.814200
     19 N3         -2.4250    0.9670   -2.5000 nb        1 09Q     -0.649000
     20 H1          1.9780    0.9420   -0.3060 ha        1 09Q      0.135000
     21 H2          2.9410    0.4130    1.9270 ha        1 09Q      0.133500
     22 H3          1.5890   -0.8410    3.6100 ha        1 09Q      0.133000
     23 H4         -0.7320   -1.5690    3.0470 ha        1 09Q      0.133500
     24 H5         -1.6980   -1.0490    0.8130 ha        1 09Q      0.135000
     25 H7         -2.4920    0.7580   -0.4320 h4        1 09Q      0.026100
     26 H8          1.3380   -0.0990   -2.2980 ha        1 09Q      0.149000
     27 H9         -1.2120   -0.4700   -5.7260 h1        1 09Q      0.037200
     28 H10        -0.6400    1.0800   -6.4920 h1        1 09Q      0.037200
     29 H11         1.0720   -1.5050   -6.5250 hc        1 09Q      0.055700
     30 H12        -0.2870   -1.2360   -7.6830 hc        1 09Q      0.055700
     31 H13         0.7840    0.4660   -8.8390 h1        1 09Q      0.047700
     32 H14         2.1830   -0.5840   -8.3480 h1        1 09Q      0.047700
     33 H15         2.9730    0.0510   -5.9230 h1        1 09Q      0.061700
     34 H16         3.3820    1.8290   -5.9020 h1        1 09Q      0.061700
     35 H17         1.1100    2.3970   -5.0470 h1        1 09Q      0.038200
     36 H18         2.1030    1.3510   -3.9360 h1        1 09Q      0.038200
     37 H19         1.4730    2.0650   -7.4410 hn        1 09Q      0.355800
     38 H6         -2.1970    1.1510   -4.5490 h4        1 09Q      0.022100
@<TRIPOS>BOND
     1    1    2 ar  
     2    1    6 ar  
     3    1    9 1   
     4    2    3 ar  
     5    2   20 1   
     6    3    4 ar  
     7    3   21 1   
     8    4    5 ar  
     9    4   22 1   
    10    5    6 ar  
    11    5   23 1   
    12    6   24 1   
    13    7   11 ar  
    14    7   19 ar  
    15    7   38 1   
    16    8    9 ar  
    17    8   19 ar  
    18    8   25 1   
    19    9   10 ar  
    20   10   11 ar  
    21   10   26 1   
    22   11   17 1   
    23   12   13 1   
    24   12   17 1   
    25   12   27 1   
    26   12   28 1   
    27   13   14 1   
    28   13   29 1   
    29   13   30 1   
    30   14   18 1   
    31   14   31 1   
    32   14   32 1   
    33   15   16 1   
    34   15   18 1   
    35   15   33 1   
    36   15   34 1   
    37   16   17 1   
    38   16   35 1   
    39   16   36 1   
    40   18   37 1   
@<TRIPOS>SUBSTRUCTURE
     1 09Q         1 TEMP              0 ****  ****    0 ROOT
