@<TRIPOS>MOLECULE
09R
   28    29     1     0     0
SMALL
bcc


@<TRIPOS>ATOM
      1 C1          0.2040    1.1330    0.5650 ca        1 09R      0.347200
      2 C2          0.9360   -0.1000    0.4920 ca        1 09R      0.064300
      3 C3          0.3070   -1.1480   -0.2220 ca        1 09R     -0.168000
      4 C4         -0.9570   -0.9550   -0.7730 ca        1 09R     -0.176300
      5 C5         -1.5860    0.2930   -0.6230 ca        1 09R      0.405500
      6 N1         -1.0070    1.3230    0.0340 nb        1 09R     -0.612000
      7 BR1        -3.2970    0.5690   -1.3630 br        1 09R     -0.152200
      8 N2          2.1490   -0.2570    1.1770 nh        1 09R     -0.634000
      9 C6          2.8880   -1.4920    1.0190 c3        1 09R      0.149800
     10 C7          3.7080   -1.6350   -0.2810 c3        1 09R      0.128800
     11 N3          4.6150   -0.5590   -0.6000 n3        1 09R     -0.812200
     12 C8          3.9970    0.6870   -0.9890 c3        1 09R      0.159800
     13 C9          3.5020    1.6190    0.1180 c3        1 09R     -0.149400
     14 C10         2.9810    0.9160    1.3690 c3        1 09R      0.192800
     15 H1          0.6180    2.0160    1.0840 h4        1 09R      0.028100
     16 H2          0.7970   -2.1230   -0.3600 ha        1 09R      0.142000
     17 H3         -1.4480   -1.7710   -1.3220 ha        1 09R      0.154000
     18 H4          3.5900   -1.5660    1.9000 h1        1 09R      0.059700
     19 H5          2.1770   -2.3610    1.0950 h1        1 09R      0.059700
     20 H6          4.3220   -2.5750   -0.1890 h1        1 09R      0.059700
     21 H7          3.0000   -1.7680   -1.1470 h1        1 09R      0.059700
     22 H8          5.2650   -0.4120    0.1500 hn        1 09R      0.359800
     23 H11         2.3960    1.6600    1.9820 h1        1 09R      0.055700
     24 H12         3.8630    0.6010    1.9990 h1        1 09R      0.055700
     25 H9          4.7680    1.2490   -1.5920 h1        1 09R      0.056700
     26 H121        3.1360    0.4570   -1.6790 h1        1 09R      0.056700
     27 H10         4.3350    2.2970    0.4400 hc        1 09R      0.054200
     28 H14         2.6920    2.2660   -0.3120 hc        1 09R      0.054200
@<TRIPOS>BOND
     1    1    2 ar  
     2    1    6 ar  
     3    1   15 1   
     4    2    3 ar  
     5    2    8 1   
     6    3    4 ar  
     7    3   16 1   
     8    4    5 ar  
     9    4   17 1   
    10    5    6 ar  
    11    5    7 1   
    12    8    9 1   
    13    8   14 1   
    14    9   10 1   
    15    9   18 1   
    16    9   19 1   
    17   10   11 1   
    18   10   20 1   
    19   10   21 1   
    20   11   12 1   
    21   11   22 1   
    22   12   13 1   
    23   12   25 1   
    24   12   26 1   
    25   13   14 1   
    26   13   27 1   
    27   13   28 1   
    28   14   23 1   
    29   14   24 1   
@<TRIPOS>SUBSTRUCTURE
     1 09R         1 TEMP              0 ****  ****    0 ROOT
