@<TRIPOS>MOLECULE
09R
   28    29     1     0     0
SMALL
bcc


@<TRIPOS>ATOM
      1 C1          0.3120    0.8670   -0.0920 ca        1 09R      0.344200
      2 C2          1.7080    0.5320   -0.0690 ca        1 09R      0.066300
      3 C3          2.0920   -0.4300    0.8960 ca        1 09R     -0.173000
      4 C4          1.1440   -0.9640    1.7640 ca        1 09R     -0.176300
      5 C5         -0.1940   -0.5480    1.6570 ca        1 09R      0.402500
      6 N1         -0.6010    0.3540    0.7360 nb        1 09R     -0.612000
      7 BR1        -1.4880   -1.2630    2.8250 br        1 09R     -0.155200
      8 N2          2.6250    1.2040   -0.8890 nh        1 09R     -0.629000
      9 C6          3.9970    0.7440   -0.9290 c3        1 09R      0.191800
     10 C7          4.2730   -0.5300   -1.7550 c3        1 09R      0.134800
     11 N3          3.7950   -0.4480   -3.1180 n3        1 09R     -0.826200
     12 C8          2.3570   -0.5590   -3.2670 c3        1 09R      0.166800
     13 C9          1.6050    0.7670   -3.1770 c3        1 09R     -0.105400
     14 C10         2.1470    1.7520   -2.1460 c3        1 09R      0.200800
     15 H1         -0.0910    1.5940   -0.8210 h4        1 09R      0.029100
     16 H2          3.1330   -0.7740    0.9790 ha        1 09R      0.141000
     17 H3          1.4450   -1.7050    2.5190 ha        1 09R      0.152000
     18 H4          4.6120    1.5890   -1.3560 h1        1 09R      0.061700
     19 H5          4.3580    0.5650    0.1210 h1        1 09R      0.061700
     20 H6          3.8350   -1.4130   -1.2000 h1        1 09R      0.035200
     21 H7          5.3910   -0.6670   -1.7860 h1        1 09R      0.035200
     22 H8          4.2500   -1.1460   -3.6750 hn        1 09R      0.366800
     23 H11         3.0090    2.3150   -2.6100 h1        1 09R      0.059200
     24 H12         1.3470    2.5110   -1.9120 h1        1 09R      0.059200
     25 H9          2.1400   -1.0020   -4.2820 h1        1 09R      0.033700
     26 H121        1.9160   -1.2640   -2.4990 h1        1 09R      0.033700
     27 H10         1.6320    1.2800   -4.1750 hc        1 09R      0.050200
     28 H14         0.5320    0.5310   -2.9460 hc        1 09R      0.050200
@<TRIPOS>BOND
     1    1    2 ar  
     2    1    6 ar  
     3    1   15 1   
     4    2    3 ar  
     5    2    8 1   
     6    3    4 ar  
     7    3   16 1   
     8    4    5 ar  
     9    4   17 1   
    10    5    6 ar  
    11    5    7 1   
    12    8    9 1   
    13    8   14 1   
    14    9   10 1   
    15    9   18 1   
    16    9   19 1   
    17   10   11 1   
    18   10   20 1   
    19   10   21 1   
    20   11   12 1   
    21   11   22 1   
    22   12   13 1   
    23   12   25 1   
    24   12   26 1   
    25   13   14 1   
    26   13   27 1   
    27   13   28 1   
    28   14   23 1   
    29   14   24 1   
@<TRIPOS>SUBSTRUCTURE
     1 09R         1 TEMP              0 ****  ****    0 ROOT
