@<TRIPOS>MOLECULE
09R
   28    29     1     0     0
SMALL
bcc


@<TRIPOS>ATOM
      1 C1          0.3350    0.9010   -0.0760 ca        1 09R      0.344200
      2 C2          1.7210    0.5300   -0.0620 ca        1 09R      0.066300
      3 C3          2.0830   -0.4560    0.8880 ca        1 09R     -0.173000
      4 C4          1.1240   -0.9770    1.7520 ca        1 09R     -0.176300
      5 C5         -0.2030   -0.5250    1.6550 ca        1 09R      0.402500
      6 N1         -0.5890    0.4000    0.7480 nb        1 09R     -0.612000
      7 BR1        -1.5120   -1.2230    2.8170 br        1 09R     -0.155200
      8 N2          2.6520    1.1890   -0.8750 nh        1 09R     -0.629000
      9 C6          4.0120    0.6950   -0.9260 c3        1 09R      0.191800
     10 C7          4.2530   -0.5750   -1.7700 c3        1 09R      0.134800
     11 N3          3.7740   -0.4610   -3.1310 n3        1 09R     -0.826200
     12 C8          2.3330   -0.5330   -3.2770 c3        1 09R      0.166800
     13 C9          1.6150    0.8110   -3.1670 c3        1 09R     -0.105400
     14 C10         2.1860    1.7670   -2.1230 c3        1 09R      0.200800
     15 H1         -0.0520    1.6490   -0.7930 h4        1 09R      0.029100
     16 H2          3.1150   -0.8290    0.9630 ha        1 09R      0.141000
     17 H3          1.4070   -1.7370    2.4940 ha        1 09R      0.152000
     18 H4          4.6480    1.5290   -1.3430 h1        1 09R      0.061700
     19 H5          4.3720    0.4910    0.1210 h1        1 09R      0.061700
     20 H6          3.7940   -1.4540   -1.2270 h1        1 09R      0.035200
     21 H7          5.3670   -0.7390   -1.8070 h1        1 09R      0.035200
     22 H8          4.2100   -1.1620   -3.7000 hn        1 09R      0.366800
     23 H11         1.4060    2.5430   -1.8760 h1        1 09R      0.059200
     24 H12         3.0610    2.3140   -2.5820 h1        1 09R      0.059200
     25 H9          1.8770   -1.2370   -2.5190 h1        1 09R      0.033700
     26 H121        2.1020   -0.9550   -4.2980 h1        1 09R      0.033700
     27 H10         0.5380    0.5990   -2.9340 hc        1 09R      0.050200
     28 H14         1.6530    1.3370   -4.1570 hc        1 09R      0.050200
@<TRIPOS>BOND
     1    1    2 ar  
     2    1    6 ar  
     3    1   15 1   
     4    2    3 ar  
     5    2    8 1   
     6    3    4 ar  
     7    3   16 1   
     8    4    5 ar  
     9    4   17 1   
    10    5    6 ar  
    11    5    7 1   
    12    8    9 1   
    13    8   14 1   
    14    9   10 1   
    15    9   18 1   
    16    9   19 1   
    17   10   11 1   
    18   10   20 1   
    19   10   21 1   
    20   11   12 1   
    21   11   22 1   
    22   12   13 1   
    23   12   25 1   
    24   12   26 1   
    25   13   14 1   
    26   13   27 1   
    27   13   28 1   
    28   14   23 1   
    29   14   24 1   
@<TRIPOS>SUBSTRUCTURE
     1 09R         1 TEMP              0 ****  ****    0 ROOT
