@<TRIPOS>MOLECULE
09R
   28    26     1     0     0
SMALL
bcc


@<TRIPOS>ATOM
      1 C1         -0.5490    0.2960    1.6760 c1        1 09R     -0.127000
      2 C2         -0.8170   -0.6970    0.7500 c2        1 09R      0.047000
      3 C3         -1.8240   -1.5810    0.9720 c1        1 09R     -0.159000
      4 C4         -2.5750   -1.4880    2.1170 c1        1 09R     -0.112000
      5 C5         -2.3040   -0.4990    3.0350 c1        1 09R     -0.153000
      6 N1         -1.2840    0.3910    2.8010 n1        1 09R     -0.085000
      7 BR1        -3.3380   -0.3740    4.6790 br        1 09R      0.078000
      8 N2         -0.0150   -0.8090   -0.4320 n3        1 09R     -0.248000
      9 C6          1.3470   -0.6050   -0.1050 c3        1 09R     -0.049000
     10 C7          2.2000   -0.6230   -1.3330 c3        1 09R     -0.078000
     11 N3          2.0620    0.5970   -2.0660 n3        1 09R     -0.303000
     12 C8          1.5340    1.6660   -1.2140 c3        1 09R     -0.074000
     13 C9          0.0240    1.5640   -1.0850 c3        1 09R     -0.230000
     14 C10        -0.4690    0.1450   -1.4170 c3        1 09R     -0.040000
     15 H1          0.1650    0.9220    1.5170 DU        1 09R      0.164000
     16 H2         -2.0010   -2.2430    0.3530 ha        1 09R      0.144000
     17 H3         -3.3230   -2.1430    2.2830 ha        1 09R      0.154000
     18 H4          1.4430    0.2400    0.3320 h1        1 09R      0.089000
     19 H5          1.6390   -1.3050    0.4900 h1        1 09R      0.089000
     20 H6          3.1410   -0.7350   -1.0670 h1        1 09R      0.082500
     21 H7          1.9330   -1.3820   -1.9080 h1        1 09R      0.082500
     22 H8          1.5120    0.4700   -2.7680 hn        1 09R      0.157000
     23 H11        -1.4210    0.1440   -1.4330 h1        1 09R      0.097000
     24 H12        -0.1400   -0.1070   -2.2720 h1        1 09R      0.097000
     25 H9          1.9320    1.6060   -0.3440 h1        1 09R      0.096000
     26 H121        1.7640    2.5430   -1.6200 h1        1 09R      0.096000
     27 H10        -0.4070    2.2220   -1.7300 hc        1 09R      0.093000
     28 H14        -0.2280    1.7830   -0.2130 hc        1 09R      0.093000
@<TRIPOS>BOND
     1    1    2 1   
     2    1    6 1   
     3    2    3 1   
     4    2    8 1   
     5    3   16 1   
     6    4    5 1   
     7    4   17 1   
     8    5    7 1   
     9    8    9 1   
    10    8   14 1   
    11    9   10 1   
    12    9   18 1   
    13    9   19 1   
    14   10   11 1   
    15   10   20 1   
    16   10   21 1   
    17   11   12 1   
    18   11   22 1   
    19   12   13 1   
    20   12   25 1   
    21   12   26 1   
    22   13   14 1   
    23   13   27 1   
    24   13   28 1   
    25   14   23 1   
    26   14   24 1   
@<TRIPOS>SUBSTRUCTURE
     1 09R         1 TEMP              0 ****  ****    0 ROOT
