@<TRIPOS>MOLECULE
09R
   28    29     1     0     0
SMALL
bcc


@<TRIPOS>ATOM
      1 C1          0.3130    0.8920   -0.1090 ca        1 09R      0.344200
      2 C2          1.7080    0.5520   -0.0770 ca        1 09R      0.066300
      3 C3          2.0870   -0.3940    0.9050 ca        1 09R     -0.173000
      4 C4          1.1350   -0.9090    1.7810 ca        1 09R     -0.176300
      5 C5         -0.2020   -0.4900    1.6650 ca        1 09R      0.402500
      6 N1         -0.6030    0.3970    0.7270 nb        1 09R     -0.612000
      7 Br1        -1.5000   -1.1800    2.8430 br        1 09R     -0.155200
      8 N2          2.6280    1.2060   -0.9070 nh        1 09R     -0.629000
      9 C6          3.9990    0.7410   -0.9370 c3        1 09R      0.191800
     10 C7          4.2710   -0.5490   -1.7390 c3        1 09R      0.134800
     11 N3          3.7960   -0.4890   -3.1040 n7        1 09R     -0.826200
     12 C8          2.3580   -0.5980   -3.2540 c3        1 09R      0.166800
     13 C9          1.6100    0.7330   -3.1890 c3        1 09R     -0.105400
     14 C10         2.1550    1.7340   -2.1740 c3        1 09R      0.200800
     15 H1         -0.0860    1.6070   -0.8500 h4        1 09R      0.029100
     16 H2          3.1260   -0.7410    0.9970 ha        1 09R      0.141000
     17 H3          1.4310   -1.6380    2.5500 ha        1 09R      0.152000
     18 H4          4.6180    1.5750   -1.3770 h1        1 09R      0.061700
     19 H5          4.3580    0.5790    0.1170 h1        1 09R      0.061700
     20 H6          5.3890   -0.6900   -1.7660 h1        1 09R      0.035200
     21 H7          3.8290   -1.4200   -1.1700 h1        1 09R      0.035200
     22 H8          4.2500   -1.1980   -3.6490 hn        1 09R      0.366800
     23 H11         3.0190    2.2850   -2.6470 h1        1 09R      0.059200
     24 H12         1.3570    2.5000   -1.9550 h1        1 09R      0.059200
     25 H9          2.1410   -1.0570   -4.2620 h1        1 09R      0.033700
     26 H121        1.9140   -1.2880   -2.4750 h1        1 09R      0.033700
     27 H10         1.6410    1.2270   -4.1950 hc        1 09R      0.050200
     28 H14         0.5370    0.5040   -2.9550 hc        1 09R      0.050200
@<TRIPOS>BOND
     1    1    2 ar  
     2    1    6 ar  
     3    1   15 1   
     4    2    3 ar  
     5    2    8 1   
     6    3    4 ar  
     7    3   16 1   
     8    4    5 ar  
     9    4   17 1   
    10    5    6 ar  
    11    5    7 1   
    12    8    9 1   
    13    8   14 1   
    14    9   10 1   
    15    9   18 1   
    16    9   19 1   
    17   10   11 1   
    18   10   20 1   
    19   10   21 1   
    20   11   12 1   
    21   11   22 1   
    22   12   13 1   
    23   12   25 1   
    24   12   26 1   
    25   13   14 1   
    26   13   27 1   
    27   13   28 1   
    28   14   23 1   
    29   14   24 1   
@<TRIPOS>SUBSTRUCTURE
     1 09R         1 TEMP              0 ****  ****    0 ROOT
