@<TRIPOS>MOLECULE
09S
   35    35     1     0     0
SMALL
bcc


@<TRIPOS>ATOM
      1 C1         -0.6420   -0.6010    1.0020 c3        1 09S      0.153800
      2 C2          0.7580   -0.6930    0.3580 c3        1 09S      0.131800
      3 N1          1.7250    0.3010    0.7540 n7        1 09S     -0.813200
      4 C3          1.4620    1.6460    0.2990 c3        1 09S      0.160800
      5 C4          0.4880    2.5010    1.1100 c3        1 09S     -0.148400
      6 C5         -0.6880    1.7440    1.7240 c3        1 09S      0.199800
      7 N2         -1.2820    0.6920    0.9240 nh        1 09S     -0.649400
      8 C6         -4.3510    1.3310   -2.2080 ce        1 09S      0.477400
      9 N3         -4.9210    1.5140   -0.9740 n1        1 09S     -1.083500
     10 C7         -5.4490    1.6710    0.0720 c1        1 09S      0.441800
     11 C8         -1.9820    1.0690   -0.2080 c2        1 09S      0.135000
     12 C9         -2.2570    0.2990   -1.2920 cf        1 09S     -0.326000
     13 C10        -3.1230    0.7390   -2.3690 cf        1 09S      0.194100
     14 O1         -2.7180    0.5010   -3.6670 os        1 09S     -0.318900
     15 C11        -1.3300    0.1680   -3.8390 c3        1 09S      0.135400
     16 C12        -1.0390    0.3650   -5.3090 c3        1 09S     -0.103100
     17 H1         -1.8490   -0.7160   -1.4150 ha        1 09S      0.145000
     18 H2         -0.5590   -0.8670    2.0950 h1        1 09S      0.062200
     19 H3         -1.3090   -1.3670    0.5170 h1        1 09S      0.062200
     20 H4          0.6460   -0.6510   -0.7630 h1        1 09S      0.059200
     21 H5          1.1840   -1.7020    0.6250 h1        1 09S      0.059200
     22 H7          1.8620    0.2850    1.7480 hn        1 09S      0.361800
     23 H8          2.4580    2.1780    0.2880 h1        1 09S      0.054200
     24 H9          1.0970    1.5980   -0.7670 h1        1 09S      0.054200
     25 H10         1.0370    3.0020    1.9500 hc        1 09S      0.052700
     26 H11         0.1000    3.3110    0.4380 hc        1 09S      0.052700
     27 H12        -0.3530    1.2770    2.6950 h1        1 09S      0.058700
     28 H13        -1.4990    2.4890    1.9710 h1        1 09S      0.058700
     29 H14        -2.3710    2.1090   -0.1540 h4        1 09S      0.149000
     30 H15        -0.6900    0.8310   -3.2010 h1        1 09S      0.041200
     31 H16        -1.1830   -0.9010   -3.5350 h1        1 09S      0.041200
     32 H17         0.0160    0.0680   -5.5140 hc        1 09S      0.051367
     33 H18        -1.7250   -0.2610   -5.9290 hc        1 09S      0.051367
     34 H19        -1.1840    1.4340   -5.5970 hc        1 09S      0.051367
     35 Br1        -5.4160    1.9230   -3.6640 br        1 09S     -0.051700
@<TRIPOS>BOND
     1    1    2 1   
     2    1    7 1   
     3    1   18 1   
     4    1   19 1   
     5    2    3 1   
     6    2   20 1   
     7    2   21 1   
     8    3    4 1   
     9    3   22 1   
    10    4    5 1   
    11    4   23 1   
    12    4   24 1   
    13    5    6 1   
    14    5   25 1   
    15    5   26 1   
    16    6    7 1   
    17    6   27 1   
    18    6   28 1   
    19    7   11 1   
    20    8    9 1   
    21    8   13 2   
    22    8   35 1   
    23    9   10 3   
    24   11   12 2   
    25   11   29 1   
    26   12   13 1   
    27   12   17 1   
    28   13   14 1   
    29   14   15 1   
    30   15   16 1   
    31   15   30 1   
    32   15   31 1   
    33   16   32 1   
    34   16   33 1   
    35   16   34 1   
@<TRIPOS>SUBSTRUCTURE
     1 09S         1 TEMP              0 ****  ****    0 ROOT
