@<TRIPOS>MOLECULE
09S
   35    35     1     0     0
SMALL
bcc


@<TRIPOS>ATOM
      1 C1          1.3890   -1.8480    1.1400 c3        1 09S     -0.251000
      2 C2          1.3700   -0.6640    0.1840 c3        1 09S     -0.079000
      3 N1          2.0280    0.5440    0.6250 n3        1 09S     -0.313000
      4 C3          1.3340    1.3040    1.6450 c3        1 09S     -0.065000
      5 C4          0.6180    2.5450    1.0990 c3        1 09S     -0.141000
      6 C5         -0.5320    2.1650    0.2150 c2        1 09S     -0.033000
      7 N2         -1.7520    2.4120    0.5420 n2        1 09S     -0.186000
      8 C6         -4.2350    2.7150   -2.7210 c2        1 09S     -0.081000
      9 N3         -4.5230    3.4070   -1.5430 n2        1 09S     -0.144000
     10 C7         -3.8880    3.1190   -0.4500 c2        1 09S     -0.024000
     11 C8         -2.8400    2.0250   -0.3310 c3        1 09S     -0.102000
     12 C9         -2.5070    1.3970   -1.6170 c1        1 09S     -0.150000
     13 C10        -3.3460    1.6430   -2.7320 c2        1 09S     -0.022000
     14 O1         -3.2090    0.9150   -3.8920 os        1 09S     -0.196000
     15 C11        -2.2190   -0.1320   -3.8190 c3        1 09S     -0.008000
     16 C12        -2.2180   -0.7860   -5.1800 c3        1 09S     -0.222000
     17 H1          0.8680   -1.6030    2.0970 hc        1 09S      0.076667
     18 H2          0.8680   -2.7140    0.6670 hc        1 09S      0.076667
     19 H3          2.4360   -2.1540    1.3790 hc        1 09S      0.076667
     20 H4          0.2980   -0.4140   -0.0620 h1        1 09S      0.094000
     21 H5          1.8770   -0.9720   -0.7760 h1        1 09S      0.094000
     22 H7          2.9660    0.3450    0.9150 hn        1 09S      0.159000
     23 H8          2.0800    1.6710    2.4080 h1        1 09S      0.075000
     24 H9          0.5760    0.6760    2.1950 h1        1 09S      0.075000
     25 H10         0.2890    3.1610    1.9770 hc        1 09S      0.105000
     26 H11         1.3240    3.1670    0.4870 hc        1 09S      0.105000
     27 H12        -0.2290    1.6570   -0.7300 h4        1 09S      0.145000
     28 H13        -4.1690    3.6700    0.4690 h4        1 09S      0.183000
     29 H14        -3.3900    1.1740    0.2230 h1        1 09S      0.184000
     30 H15        -1.2240    0.3220   -3.5700 h1        1 09S      0.090500
     31 H16        -2.5090   -0.8510   -3.0100 h1        1 09S      0.090500
     32 H17        -1.4650   -1.6100   -5.1860 hc        1 09S      0.087000
     33 H18        -3.2250   -1.2080   -5.4140 hc        1 09S      0.087000
     34 H19        -1.9560   -0.0440   -5.9720 hc        1 09S      0.087000
     35 BR1        -5.1280    3.3560   -4.2450 br        1 09S      0.128000
@<TRIPOS>BOND
     1    1    2 1   
     2    1   17 1   
     3    1   18 1   
     4    1   19 1   
     5    2    3 1   
     6    2   20 1   
     7    2   21 1   
     8    3    4 1   
     9    3   22 1   
    10    4    5 1   
    11    4   23 1   
    12    4   24 1   
    13    5    6 1   
    14    5   25 1   
    15    5   26 1   
    16    6    7 1   
    17    6   27 1   
    18    7   11 1   
    19    8    9 1   
    20    8   13 1   
    21    8   35 1   
    22    9   10 1   
    23   10   11 1   
    24   10   28 1   
    25   11   12 1   
    26   11   29 1   
    27   12   13 1   
    28   13   14 1   
    29   14   15 1   
    30   15   16 1   
    31   15   30 1   
    32   15   31 1   
    33   16   32 1   
    34   16   33 1   
    35   16   34 1   
@<TRIPOS>SUBSTRUCTURE
     1 09S         1 TEMP              0 ****  ****    0 ROOT
