@<TRIPOS>MOLECULE
09S
   35    36     1     0     0
SMALL
bcc


@<TRIPOS>ATOM
      1 C1         -2.8640    0.4010    1.7360 c3        1 09S      0.147800
      2 C2         -3.6440    1.4330    0.8830 c3        1 09S      0.131800
      3 N1         -3.8670    1.1520   -0.5120 n3        1 09S     -0.814200
      4 C3         -4.6650   -0.0170   -0.8030 c3        1 09S      0.160800
      5 C4         -3.9490   -1.3650   -0.7870 c3        1 09S     -0.151400
      6 C5         -3.3380   -1.6950    0.5710 c3        1 09S      0.192800
      7 N2         -2.3350   -0.7690    1.0690 nh        1 09S     -0.633000
      8 C6          1.2920   -0.5600   -1.0380 ca        1 09S      0.387500
      9 N3          0.6670   -1.7430   -0.8690 nb        1 09S     -0.594000
     10 C7         -0.5010   -1.7840   -0.2250 ca        1 09S      0.324200
     11 C8         -1.1580   -0.6300    0.3140 ca        1 09S      0.084300
     12 C9         -0.5100    0.6080    0.1160 ca        1 09S     -0.251000
     13 C10         0.7230    0.6490   -0.5510 ca        1 09S      0.082800
     14 O1          1.4260    1.8040   -0.7860 os        1 09S     -0.309900
     15 C11         0.8780    3.0140   -0.2410 c3        1 09S      0.127400
     16 C12         1.8670    4.1020   -0.5900 c3        1 09S     -0.101100
     17 H1         -2.0110    0.9250    2.2520 h1        1 09S      0.059200
     18 H2         -3.5520    0.0220    2.5450 h1        1 09S      0.059200
     19 H3         -4.6510    1.5850    1.3680 h1        1 09S      0.053200
     20 H4         -3.0950    2.4160    0.9350 h1        1 09S      0.053200
     21 H5         -2.9940    1.1120   -1.0080 hn        1 09S      0.365800
     22 H7         -5.5310   -0.0550   -0.0830 h1        1 09S      0.053700
     23 H8         -5.0890    0.1390   -1.8380 h1        1 09S      0.053700
     24 H9         -4.6890   -2.1660   -1.0420 hc        1 09S      0.057700
     25 H10        -3.1490   -1.3810   -1.5750 hc        1 09S      0.057700
     26 H11        -4.1620   -1.7440    1.3390 h1        1 09S      0.058200
     27 H12        -2.8690   -2.7180    0.5170 h1        1 09S      0.058200
     28 H13        -0.9360   -2.7940   -0.1220 h4        1 09S      0.031100
     29 H14        -0.9670    1.5400    0.4790 ha        1 09S      0.147000
     30 H15        -0.1230    3.2100   -0.7080 h1        1 09S      0.040200
     31 H16         0.7650    2.9070    0.8700 h1        1 09S      0.040200
     32 H17         1.4890    5.0760   -0.1970 hc        1 09S      0.052700
     33 H18         2.8630    3.8840   -0.1370 hc        1 09S      0.052700
     34 H19         1.9920    4.1750   -1.6970 hc        1 09S      0.052700
     35 BR1         2.9410   -0.6070   -1.9520 br        1 09S     -0.132200
@<TRIPOS>BOND
     1    1    2 1   
     2    1    7 1   
     3    1   17 1   
     4    1   18 1   
     5    2    3 1   
     6    2   19 1   
     7    2   20 1   
     8    3    4 1   
     9    3   21 1   
    10    4    5 1   
    11    4   22 1   
    12    4   23 1   
    13    5    6 1   
    14    5   24 1   
    15    5   25 1   
    16    6    7 1   
    17    6   26 1   
    18    6   27 1   
    19    7   11 1   
    20    8    9 ar  
    21    8   13 ar  
    22    8   35 1   
    23    9   10 ar  
    24   10   11 ar  
    25   10   28 1   
    26   11   12 ar  
    27   12   13 ar  
    28   12   29 1   
    29   13   14 1   
    30   14   15 1   
    31   15   16 1   
    32   15   30 1   
    33   15   31 1   
    34   16   32 1   
    35   16   33 1   
    36   16   34 1   
@<TRIPOS>SUBSTRUCTURE
     1 09S         1 TEMP              0 ****  ****    0 ROOT
