@<TRIPOS>MOLECULE
09S
   35    33     1     0     0
SMALL
bcc


@<TRIPOS>ATOM
      1 C1          1.2470   -1.5540   -0.8450 c3        1 09S      0.160800
      2 C2          2.7570   -1.6650   -0.8540 c3        1 09S      0.142800
      3 N1          3.2760   -1.6450    0.4780 n3        1 09S     -0.822200
      4 C3          2.9450   -2.8310    1.1690 c3        1 09S      0.165800
      5 C4          1.4650   -3.0740    1.1350 c3        1 09S     -0.116400
      6 C5          0.6890   -1.7730    1.4270 c3        1 09S      0.196800
      7 N2          0.7900   -0.8740    0.3460 n3        1 09S     -0.624200
      8 C6         -3.0080    0.8400   -0.3110 c1        1 09S      0.076800
      9 N3         -2.8430   -0.5320   -0.4320 n1        1 09S     -0.406800
     10 C7         -1.6090   -1.0910   -0.2280 c1        1 09S      0.246300
     11 C8         -0.5110   -0.2750    0.1040 c1        1 09S      0.115800
     12 C9         -0.6750    1.0850    0.2240 c1        1 09S     -0.129500
     13 C10        -1.9110    1.6500    0.0200 c1        1 09S      0.099600
     14 BR1        -4.7580    1.5930   -0.3360 br        1 09S     -0.137800
     15 O1         -2.0950    3.0670    0.2240 os        1 09S     -0.314400
     16 C11        -2.1910    3.7980   -0.9610 c3        1 09S      0.133400
     17 C12        -2.4220    5.2400   -0.6420 c3        1 09S     -0.100100
     18 H1          0.8540   -2.4640   -0.8680 h1        1 09S      0.052200
     19 H2          0.9440   -1.0410   -1.6660 h1        1 09S      0.052200
     20 H3          3.0150   -2.5020   -1.2850 h1        1 09S      0.059200
     21 H4          3.1410   -0.8940   -1.3700 h1        1 09S      0.059200
     22 H5          4.1560   -1.5550    0.4510 hn        1 09S      0.362800
     23 H7          3.2250   -2.7520    2.0660 h1        1 09S      0.038200
     24 H8          3.4330   -3.6250    0.7300 h1        1 09S      0.038200
     25 H9          1.2220   -3.7730    1.8390 hc        1 09S      0.054700
     26 H10         1.2090   -3.4120    0.2380 hc        1 09S      0.054700
     27 H11         1.0670   -1.3400    2.2630 h1        1 09S      0.058700
     28 H12        -0.2650   -1.9910    1.5770 h1        1 09S      0.058700
     29 H13        -1.4870   -2.0850   -0.3150 ha        1 09S      0.109500
     30 H14         0.1110    1.6680    0.4660 ha        1 09S      0.095500
     31 H15        -1.3650    3.7080   -1.4610 h1        1 09S      0.035200
     32 H16        -2.9530    3.4490   -1.5090 h1        1 09S      0.035200
     33 H17        -1.7030    5.5630   -0.0720 hc        1 09S      0.050700
     34 H18        -2.4400    5.7410   -1.4450 hc        1 09S      0.050700
     35 H19        -3.3100    5.3450   -0.1580 hc        1 09S      0.050700
@<TRIPOS>BOND
     1    1    2 1   
     2    1    7 1   
     3    1   18 1   
     4    1   19 1   
     5    2    3 1   
     6    2   20 1   
     7    2   21 1   
     8    3    4 1   
     9    3   22 1   
    10    4    5 1   
    11    4   23 1   
    12    4   24 1   
    13    5    6 1   
    14    5   25 1   
    15    5   26 1   
    16    6    7 1   
    17    6   27 1   
    18    6   28 1   
    19    7   11 1   
    20    8   13 3   
    21    8   14 1   
    22    9   10 3   
    23   10   29 1   
    24   11   12 3   
    25   12   30 1   
    26   13   15 1   
    27   15   16 1   
    28   16   17 1   
    29   16   31 1   
    30   16   32 1   
    31   17   33 1   
    32   17   34 1   
    33   17   35 1   
@<TRIPOS>SUBSTRUCTURE
     1 09S         1 TEMP              0 ****  ****    0 ROOT
