@<TRIPOS>MOLECULE
09S
   35    35     1     0     0
SMALL
bcc


@<TRIPOS>ATOM
      1 C1         -1.6300   -0.3640    0.8660 c2        1 09S     -0.116900
      2 C2          3.4360    1.8800    0.9790 c3        1 09S      0.148100
      3 N1          2.5200    0.8400    0.5890 n3        1 09S     -0.816200
      4 C3          1.6360    0.3830    1.6360 c3        1 09S      0.154800
      5 C4          0.4960    1.3260    2.0400 c3        1 09S     -0.115700
      6 C5         -0.3850    1.6730    0.9050 c2        1 09S     -0.137800
      7 N2         -1.3530    0.8670    0.4270 nh        1 09S      0.130800
      8 C6         -3.7140    2.4790   -2.6660 ca        1 09S      0.436500
      9 N3         -3.4660    3.2110   -1.5620 nb        1 09S     -0.610000
     10 C7         -2.7130    2.6900   -0.5850 ca        1 09S      0.384200
     11 C8         -2.1570    1.3860   -0.6550 ca        1 09S     -0.132500
     12 C9         -2.4090    0.6110   -1.7990 ca        1 09S     -0.163000
     13 C10        -3.1960    1.1600   -2.8220 ca        1 09S      0.054800
     14 O1         -3.5100    0.5010   -3.9830 os        1 09S     -0.305900
     15 C11        -2.9450   -0.8120   -4.1470 c3        1 09S      0.126400
     16 C12        -3.4140   -1.2870   -5.5030 c3        1 09S     -0.101100
     17 H1         -2.4750   -0.9180    0.4490 h4        1 09S      0.020800
     18 H2         -1.0250   -0.8010    1.6650 h4        1 09S      0.020800
     19 H3          2.9350    2.8220    1.3350 h1        1 09S      0.026700
     20 H4          4.0820    2.1350    0.0980 h1        1 09S      0.026700
     21 H5          4.0920    1.5020    1.8060 h1        1 09S      0.026700
     22 H7          1.9800    1.1320   -0.2060 hn        1 09S      0.359800
     23 H8          2.2510    0.1600    2.5530 h1        1 09S      0.048700
     24 H9          1.1870   -0.5870    1.2770 h1        1 09S      0.048700
     25 H10        -0.0830    0.8380    2.8710 hc        1 09S      0.047700
     26 H11         0.9240    2.2810    2.4460 hc        1 09S      0.047700
     27 H12        -0.2460    2.6460    0.4150 h4        1 09S      0.021800
     28 H13        -2.5480    3.3410    0.2950 h4        1 09S      0.051100
     29 H14        -1.9920   -0.4050   -1.8840 ha        1 09S      0.168000
     30 H15        -1.8270   -0.7430   -4.1030 h1        1 09S      0.044700
     31 H16        -3.3200   -1.4800   -3.3280 h1        1 09S      0.044700
     32 H17        -3.0090   -2.3100   -5.6880 hc        1 09S      0.055033
     33 H18        -3.0550   -0.5980   -6.3040 hc        1 09S      0.055033
     34 H19        -4.5290   -1.3200   -5.5410 hc        1 09S      0.055033
     35 BR1        -4.7830    3.3000   -3.9870 br        1 09S     -0.109200
@<TRIPOS>BOND
     1    1    7 2   
     2    1   17 1   
     3    1   18 1   
     4    2    3 1   
     5    2   19 1   
     6    2   20 1   
     7    2   21 1   
     8    3    4 1   
     9    3   22 1   
    10    4    5 1   
    11    4   23 1   
    12    4   24 1   
    13    5    6 1   
    14    5   25 1   
    15    5   26 1   
    16    6    7 2   
    17    6   27 1   
    18    7   11 1   
    19    8    9 ar  
    20    8   13 ar  
    21    8   35 1   
    22    9   10 ar  
    23   10   11 ar  
    24   10   28 1   
    25   11   12 ar  
    26   12   13 ar  
    27   12   29 1   
    28   13   14 1   
    29   14   15 1   
    30   15   16 1   
    31   15   30 1   
    32   15   31 1   
    33   16   32 1   
    34   16   33 1   
    35   16   34 1   
@<TRIPOS>SUBSTRUCTURE
     1 09S         1 TEMP              0 ****  ****    0 ROOT
