@<TRIPOS>MOLECULE
09T
   34    36     1     0     0
SMALL
bcc


@<TRIPOS>ATOM
      1 C4          2.2410    2.1450    0.8480 ca        1 09T     -0.112000
      2 C5          1.1160    1.3160    0.7960 ca        1 09T     -0.114300
      3 C6          1.2220    0.0370    0.2470 ca        1 09T     -0.100000
      4 C7          2.4490   -0.4170   -0.2470 ca        1 09T      0.018400
      5 N12        -2.6740    2.2610   -1.2890 nc        1 09T     -0.561100
      6 C13        -3.0220    0.9730   -0.8220 ca        1 09T      0.065400
      7 C15        -4.1280   -1.1490   -0.5890 ca        1 09T     -0.099300
      8 C17        -3.2810   -1.4880    0.4960 ca        1 09T     -0.055300
      9 C20        -2.1600    0.6160    0.2910 ca        1 09T     -0.073200
     10 CL8         2.5440   -1.9760   -0.9070 cl        1 09T     -0.061400
     11 C2          3.5770    0.4160   -0.1890 ca        1 09T      0.023400
     12 CL1         5.0810   -0.1020   -0.7760 cl        1 09T     -0.063400
     13 C3          3.4660    1.6980    0.3610 ca        1 09T     -0.118000
     14 C9         -0.1900    1.7930    1.3710 c3        1 09T      0.096600
     15 N10        -1.3180    1.7230    0.4960 na        1 09T     -0.179300
     16 C11        -1.6610    2.6590   -0.5100 cd        1 09T      0.425700
     17 C19        -2.2950   -0.6120    0.9430 ca        1 09T     -0.140000
     18 C16        -5.1640   -2.1130   -1.0310 c3        1 09T     -0.048800
     19 C14        -4.0050    0.0730   -1.2460 ca        1 09T     -0.065000
     20 H1          2.1650    3.1560    1.2760 ha        1 09T      0.140000
     21 H2          0.3320   -0.6150    0.1990 ha        1 09T      0.164000
     22 H3          4.3490    2.3540    0.4060 ha        1 09T      0.154000
     23 H4         -0.4190    1.1650    2.2830 h1        1 09T      0.069700
     24 H5         -0.0800    2.8670    1.7020 h1        1 09T      0.069700
     25 H6         -1.1400    3.6210   -0.5930 h5        1 09T      0.067800
     26 H7         -1.6440   -0.8800    1.7870 ha        1 09T      0.134000
     27 H8         -3.2940   -3.6310    0.4310 hc        1 09T      0.045033
     28 H9         -2.7140   -2.9290    2.0010 hc        1 09T      0.045033
     29 H10        -4.4800   -2.8930    1.5850 hc        1 09T      0.045033
     30 H11        -5.8710   -2.3340   -0.1930 hc        1 09T      0.043367
     31 H12        -5.7520   -1.7120   -1.8920 hc        1 09T      0.043367
     32 H13        -4.6880   -3.0760   -1.3470 hc        1 09T      0.043367
     33 H14        -4.6670    0.3340   -2.0850 ha        1 09T      0.149000
     34 C18        -3.4460   -2.8010    1.1660 c3        1 09T     -0.053800
@<TRIPOS>BOND
     1    1    2 ar  
     2    1   13 ar  
     3    1   20 1   
     4    2    3 ar  
     5    2   14 1   
     6    3    4 ar  
     7    3   21 1   
     8    4   10 1   
     9    4   11 ar  
    10    5    6 1   
    11    5   16 2   
    12    6    9 ar  
    13    6   19 ar  
    14    7    8 ar  
    15    7   18 1   
    16    7   19 ar  
    17    8   17 ar  
    18    8   34 1   
    19    9   15 1   
    20    9   17 ar  
    21   11   12 1   
    22   11   13 ar  
    23   13   22 1   
    24   14   15 1   
    25   14   23 1   
    26   14   24 1   
    27   15   16 1   
    28   16   25 1   
    29   17   26 1   
    30   18   30 1   
    31   18   31 1   
    32   18   32 1   
    33   19   33 1   
    34   27   34 1   
    35   28   34 1   
    36   29   34 1   
@<TRIPOS>SUBSTRUCTURE
     1 09T         1 TEMP              0 ****  ****    0 ROOT
