@<TRIPOS>MOLECULE
09T
   34    33     1     0     0
SMALL
bcc


@<TRIPOS>ATOM
      1 C4         -2.7560    0.6050    1.8710 c1        1 09T      0.274000
      2 C5          1.8750   -0.2040    0.2920 c1        1 09T     -0.168000
      3 C6          1.3380   -0.2850    1.3610 c1        1 09T     -0.089000
      4 C7          0.7420   -0.3980    2.6250 c2        1 09T     -0.009000
      5 N12         2.1400    3.2310   -2.3690 n2        1 09T     -0.142000
      6 C13         3.4090    3.3460   -1.7560 ca        1 09T     -0.009000
      7 C15         5.4780    4.2680   -0.9510 ca        1 09T      0.026000
      8 C17         5.8490    3.0090   -0.3980 ca        1 09T     -0.178000
      9 C20         3.7910    2.0560   -1.1960 ca        1 09T     -0.066000
     10 Cl8         1.7960   -0.8830    3.8690 cl        1 09T      0.030000
     11 C2         -0.5720   -0.1400    2.8560 c2        1 09T      0.026000
     12 Cl1        -1.2350   -0.2880    4.4130 cl        1 09T      0.023000
     13 C3         -1.4800    0.2690    1.8130 c2        1 09T     -0.469000
     14 C9          2.5370   -0.1430   -0.9910 c3        1 09T      0.101000
     15 N10         2.7430    1.1690   -1.5280 na        1 09T     -0.207000
     16 C11         1.7720    1.9560   -2.1910 c2        1 09T     -0.011000
     17 C19         5.0060    1.8900   -0.5470 ca        1 09T     -0.066000
     18 C16         6.4060    5.4160   -0.8230 c3        1 09T     -0.195000
     19 C14         4.2740    4.4350   -1.6340 ca        1 09T     -0.122000
     20 H1         -0.9260   -0.0360   -1.5960 ha        1 09T      0.006000
     21 H2         -0.3010   -0.0800   -1.3390 ha        1 09T      0.006000
     22 H3         -1.0340    0.3160    0.7860 ha        1 09T      0.211000
     23 H4          1.9220   -0.7300   -1.7410 h1        1 09T      0.124000
     24 H5          3.5510   -0.6400   -0.8930 h1        1 09T      0.124000
     25 H6          0.8300    1.5160   -2.5450 h5        1 09T      0.201000
     26 H7          5.3040    0.9160   -0.1310 ha        1 09T      0.137000
     27 H8          7.4340    1.9180    0.5640 ha        1 09T      0.038000
     28 H9          8.6830    3.0200   -1.2500 ha        1 09T      0.006000
     29 H10         8.5510    3.6690   -1.0890 ha        1 09T      0.006000
     30 H11         7.0090    5.3280    0.1180 hc        1 09T      0.100000
     31 H12         5.8490    6.3840   -0.8170 hc        1 09T      0.100000
     32 H13         7.1170    5.4210   -1.6890 hc        1 09T      0.100000
     33 H14         4.0020    5.4100   -2.0640 ha        1 09T      0.156000
     34 C18         7.0370    2.9290    0.3820 c1        1 09T     -0.064000
@<TRIPOS>BOND
     1    1   13 1   
     2    2    3 1   
     3    2   14 1   
     4    3    4 1   
     5    4   10 1   
     6    4   11 1   
     7    5    6 1   
     8    5   16 1   
     9    6    9 1   
    10    6   19 1   
    11    7    8 1   
    12    7   18 1   
    13    7   19 1   
    14    8   17 1   
    15    8   34 1   
    16    9   15 1   
    17    9   17 1   
    18   11   12 1   
    19   11   13 1   
    20   13   22 1   
    21   14   15 1   
    22   14   23 1   
    23   14   24 1   
    24   15   16 1   
    25   16   25 1   
    26   17   26 1   
    27   18   30 1   
    28   18   31 1   
    29   18   32 1   
    30   19   33 1   
    31   20   21 1   
    32   27   34 1   
    33   28   29 1   
@<TRIPOS>SUBSTRUCTURE
     1 09T         1 TEMP              0 ****  ****    0 ROOT
