@<TRIPOS>MOLECULE
09T
   34    33     1     0     0
SMALL
bcc


@<TRIPOS>ATOM
      1 C4         -1.3470   -1.6290    2.0340 c1        1 09T      0.276000
      2 C5          1.5290    0.0220   -0.4640 c3        1 09T     -0.217000
      3 C6          2.2000   -0.0430    0.8120 c1        1 09T     -0.032000
      4 C7          1.7020    0.3260    2.0780 c2        1 09T     -0.111000
      5 N12         2.6090    3.5090   -2.7750 n2        1 09T     -0.140000
      6 C13         3.6060    3.5920   -1.7290 c2        1 09T     -0.012000
      7 C15         4.7690    5.8080   -0.9880 c2        1 09T     -0.083000
      8 C17         5.4500    2.6000    0.5850 c1        1 09T     -0.110000
      9 C20         3.8220    2.2060   -1.1850 c2        1 09T      0.040000
     10 CL8         2.8640    1.1040    3.0530 cl        1 09T      0.042000
     11 C2          0.4870   -0.0210    2.5940 c2        1 09T     -0.007000
     12 CL1         0.1510    0.1140    4.2520 cl        1 09T      0.025000
     13 C3         -0.5700   -0.5910    1.7890 c2        1 09T     -0.483000
     14 C9          2.5370    0.0710   -1.6280 c3        1 09T     -0.001000
     15 N10         3.0100    1.3630   -2.0120 na        1 09T     -0.254000
     16 C11         2.2780    2.2380   -2.8680 c2        1 09T     -0.004000
     17 C19         4.6060    1.7800   -0.1690 c2        1 09T     -0.096000
     18 C16         6.0210    6.3390   -1.5720 c3        1 09T     -0.180000
     19 C14         4.2030    4.6950   -1.3500 c1        1 09T     -0.100000
     20 H1          0.7750    0.8510   -0.5590 hc        1 09T      0.120000
     21 H2          0.9690   -0.9600   -0.5480 hc        1 09T      0.120000
     22 H3         -0.7680   -0.0490    0.8340 ha        1 09T      0.205000
     23 H4          2.0450   -0.3870   -2.5340 h1        1 09T      0.112000
     24 H5          3.4330   -0.5570   -1.3440 h1        1 09T      0.112000
     25 H6          1.5460    1.8300   -3.5800 h5        1 09T      0.192000
     26 H7          4.6010    0.7100    0.1310 ha        1 09T      0.170000
     27 H8          6.8480    3.8300    1.8620 ha        1 09T      0.221000
     28 H9          4.3280   -1.4840    0.5310 ha        1 09T      0.000500
     29 H10         4.8800   -1.7570    0.2470 ha        1 09T      0.000500
     30 H11         6.7970    6.4400   -0.7730 hc        1 09T      0.088000
     31 H12         5.8310    7.3510   -2.0110 hc        1 09T      0.088000
     32 H13         6.4220    5.6740   -2.3750 hc        1 09T      0.088000
     33 H14         4.3170    6.4220   -0.1860 ha        1 09T      0.142000
     34 C18         6.1920    3.2530    1.2640 c1        1 09T     -0.213000
@<TRIPOS>BOND
     1    1   13 1   
     2    2    3 1   
     3    2   14 1   
     4    2   20 1   
     5    2   21 1   
     6    3    4 1   
     7    4   10 1   
     8    4   11 1   
     9    5    6 1   
    10    5   16 1   
    11    6    9 1   
    12    6   19 1   
    13    7   18 1   
    14    7   19 1   
    15    7   33 1   
    16    8   17 1   
    17    8   34 1   
    18    9   15 1   
    19    9   17 1   
    20   11   12 1   
    21   11   13 1   
    22   13   22 1   
    23   14   15 1   
    24   14   23 1   
    25   14   24 1   
    26   15   16 1   
    27   16   25 1   
    28   17   26 1   
    29   18   30 1   
    30   18   31 1   
    31   18   32 1   
    32   27   34 1   
    33   28   29 1   
@<TRIPOS>SUBSTRUCTURE
     1 09T         1 TEMP              0 ****  ****    0 ROOT
