@<TRIPOS>MOLECULE
09T
   34    34     1     0     0
SMALL
bcc


@<TRIPOS>ATOM
      1 C4         -2.3770   -0.6790    0.5770 c2        1 09T     -0.192100
      2 C5          2.3410    0.5300    0.8620 c2        1 09T     -0.186300
      3 C6          1.5480   -0.1750    1.6120 c1        1 09T     -0.019800
      4 C7          0.7630   -0.8760    2.3870 ce        1 09T      0.027300
      5 N12         2.3460    3.7590   -2.9110 n1        1 09T     -0.802500
      6 C13         3.4760    3.5090   -2.1560 ca        1 09T      0.208700
      7 C15         5.6680    4.2630   -1.3820 ca        1 09T     -0.106300
      8 C17         5.8080    3.0820   -0.6340 ca        1 09T     -0.037300
      9 C20         3.6150    2.2940   -1.4040 ca        1 09T      0.146600
     10 CL8         1.3860   -2.1790    3.2980 cl        1 09T     -0.082400
     11 C2         -0.6690   -0.6190    2.5410 ce        1 09T      0.010300
     12 CL1        -1.1920   -0.2680    4.1280 cl        1 09T     -0.081400
     13 C3         -1.5230   -0.6470    1.5510 c1        1 09T     -0.016800
     14 C9          2.6400    0.1850   -0.5700 c3        1 09T      0.219000
     15 N10         2.6480    1.2810   -1.5040 nh        1 09T     -0.717600
     16 C11         1.3860    3.9730   -3.5670 c1        1 09T      0.445800
     17 C19         4.7950    2.1270   -0.6470 ca        1 09T     -0.183000
     18 C16         6.7380    5.2870   -1.3770 c3        1 09T     -0.047800
     19 C14         4.5110    4.4650   -2.1290 ca        1 09T     -0.092000
     20 H1         -2.6170    0.2120   -0.0240 ha        1 09T      0.143500
     21 H2          2.8550    1.4230    1.2670 ha        1 09T      0.157000
     22 H3         -2.9100   -1.6010    0.2950 ha        1 09T      0.143500
     23 H4          1.8780   -0.5550   -0.9520 h1        1 09T      0.073700
     24 H5          3.6480   -0.3250   -0.5980 h1        1 09T      0.073700
     25 H6          1.7260    1.6200   -1.6970 hn        1 09T      0.406800
     26 H7          4.9330    1.2140   -0.0450 ha        1 09T      0.139000
     27 H8          7.1550    3.6700    0.9240 hc        1 09T      0.048367
     28 H9          7.9320    2.8520   -0.4930 hc        1 09T      0.048367
     29 H10         6.9900    1.8750    0.7120 hc        1 09T      0.048367
     30 H11         7.6960    4.8470   -1.7530 hc        1 09T      0.045367
     31 H12         6.4730    6.1600   -2.0220 hc        1 09T      0.045367
     32 H13         6.9140    5.6590   -0.3350 hc        1 09T      0.045367
     33 H14         4.4050    5.3960   -2.7120 ha        1 09T      0.145000
     34 C18         7.0310    2.8520    0.1710 c3        1 09T     -0.056800
@<TRIPOS>BOND
     1    1   13 2   
     2    1   20 1   
     3    1   22 1   
     4    2    3 2   
     5    2   14 1   
     6    2   21 1   
     7    3    4 2   
     8    4   10 1   
     9    4   11 1   
    10    5    6 1   
    11    5   16 3   
    12    6    9 ar  
    13    6   19 ar  
    14    7    8 ar  
    15    7   18 1   
    16    7   19 ar  
    17    8   17 ar  
    18    8   34 1   
    19    9   15 1   
    20    9   17 ar  
    21   11   12 1   
    22   11   13 2   
    23   14   15 1   
    24   14   23 1   
    25   14   24 1   
    26   15   25 1   
    27   17   26 1   
    28   18   30 1   
    29   18   31 1   
    30   18   32 1   
    31   19   33 1   
    32   27   34 1   
    33   28   34 1   
    34   29   34 1   
@<TRIPOS>SUBSTRUCTURE
     1 09T         1 TEMP              0 ****  ****    0 ROOT
