@<TRIPOS>MOLECULE
09T
   34    28     1     0     0
SMALL
bcc


@<TRIPOS>ATOM
      1 C4         -3.4860   -1.4360    0.2710 c1        1 09T     -0.112000
      2 C5         -2.1650   -1.6490    0.7390 c1        1 09T     -0.107000
      3 C6         -1.9310   -1.8320    2.1240 c2        1 09T     -0.100000
      4 C7         -2.9980   -1.8000    3.0230 c1        1 09T     -0.060000
      5 N12        -0.8040    1.0470   -2.2800 n2        1 09T     -0.134000
      6 C13         0.4090    1.1880   -1.7270 c1        1 09T     -0.074000
      7 C15         2.6860    1.9490   -1.3250 c1        1 09T     -0.070000
      8 C17         2.8400    0.9390   -0.3590 c1        1 09T     -0.070000
      9 C20         0.5640    0.1890   -0.7690 c1        1 09T     -0.028000
     10 CL8        -2.9290   -1.9330    4.8180 cl        1 09T      0.017000
     11 C2         -4.3190   -1.5870    2.5580 c1        1 09T     -0.055000
     12 CL1        -5.6380   -1.6550    3.6610 cl        1 09T      0.015000
     13 C3         -4.5630   -1.4060    1.1930 c1        1 09T     -0.118000
     14 C9         -0.9740   -1.8220   -0.2840 c2        1 09T      0.030000
     15 N10        -0.5620   -0.5490   -0.7530 n2        1 09T     -0.205000
     16 C11        -1.4210   -0.0320   -1.6830 c1        1 09T     -0.030000
     17 C19         1.7740    0.0580   -0.0830 c1        1 09T     -0.140000
     18 C18         4.1680    0.7110    0.4620 c3        1 09T     -0.176500
     19 C16         3.6550    3.0550   -1.7590 c3        1 09T     -0.176500
     20 C14         1.4860    2.0770   -2.0060 c1        1 09T     -0.065000
     21 H1         -3.6670   -1.3000   -0.7460 ha        1 09T      0.140000
     22 H2         -0.9870   -1.9850    2.4630 ha        1 09T      0.164000
     23 H3         -5.5190   -1.2520    0.8630 ha        1 09T      0.154000
     24 H4         -1.2470   -2.3330   -0.9890 h4        1 09T      0.109000
     25 H5         -0.1960   -2.2790    0.1810 h4        1 09T      0.109000
     26 H6         -2.3560   -0.3880   -1.9020 DU        1 09T      0.197000
     27 H7          1.8810   -0.6440    0.5910 ha        1 09T      0.134000
     28 H8          4.8550    0.4340   -0.1250 hc        1 09T      0.083500
     29 H9          4.0160   -0.0130    1.1710 hc        1 09T      0.083500
     30 H10         4.4290    1.5480    0.8990 hc        1 09T      0.083500
     31 H11         3.4630    3.8850   -1.2430 hc        1 09T      0.083500
     32 H12         3.5450    3.2250   -2.6800 hc        1 09T      0.083500
     33 H13         4.6210    2.7560   -1.5800 hc        1 09T      0.083500
     34 H14         1.3700    2.8300   -2.7260 ha        1 09T      0.149000
@<TRIPOS>BOND
     1    1    2 1   
     2    1   21 1   
     3    2    3 1   
     4    3    4 1   
     5    3   22 1   
     6    4   10 1   
     7    5    6 1   
     8    5   16 1   
     9    6   20 1   
    10    7    8 1   
    11    7   19 1   
    12    8   18 1   
    13    9   17 1   
    14   11   12 1   
    15   11   13 1   
    16   13   23 1   
    17   14   15 1   
    18   14   24 1   
    19   14   25 1   
    20   15   16 1   
    21   17   27 1   
    22   18   28 1   
    23   18   29 1   
    24   18   30 1   
    25   19   31 1   
    26   19   32 1   
    27   19   33 1   
    28   20   34 1   
@<TRIPOS>SUBSTRUCTURE
     1 09T         1 TEMP              0 ****  ****    0 ROOT
