@<TRIPOS>MOLECULE
09U
   16    16     1     0     0
SMALL
bcc


@<TRIPOS>ATOM
      1 C1         -0.0130   -0.0830    0.0090 c3        1 09U      0.156400
      2 C2          1.4870   -0.0750   -0.0070 cx        1 09U     -0.124700
      3 C3          2.2210    0.0390    1.3020 cx        1 09U     -0.131400
      4 C4          2.2450   -1.2540    0.5420 cx        1 09U     -0.131400
      5 C5         -1.8590    0.1960   -1.4410 c3        1 09U      0.116700
      6 O1         -0.4480    0.1820   -1.3260 os        1 09U     -0.420600
      7 H1         -0.4170   -1.0760    0.3430 h1        1 09U      0.028200
      8 H2         -0.4050    0.7190    0.6920 h1        1 09U      0.028200
      9 H3          1.8970    0.4460   -0.8960 hc        1 09U      0.101700
     10 H4          3.1360    0.6560    1.3470 hc        1 09U      0.070200
     11 H5          1.6380    0.0990    2.2380 hc        1 09U      0.070200
     12 H6          1.6820   -2.1180    0.9360 hc        1 09U      0.070200
     13 H7          3.1770   -1.5660    0.0390 hc        1 09U      0.070200
     14 H8         -2.2890   -0.7980   -1.1600 h1        1 09U      0.032033
     15 H9         -2.0500    0.4130   -2.5220 h1        1 09U      0.032033
     16 H10        -2.3010    0.9960   -0.7960 h1        1 09U      0.032033
@<TRIPOS>BOND
     1    1    2 1   
     2    1    6 1   
     3    1    7 1   
     4    1    8 1   
     5    2    3 1   
     6    2    4 1   
     7    2    9 1   
     8    3    4 1   
     9    3   10 1   
    10    3   11 1   
    11    4   12 1   
    12    4   13 1   
    13    5    6 1   
    14    5   14 1   
    15    5   15 1   
    16    5   16 1   
@<TRIPOS>SUBSTRUCTURE
     1 09U         1 TEMP              0 ****  ****    0 ROOT
