@<TRIPOS>MOLECULE
09U
   16    16     1     0     0
SMALL
bcc


@<TRIPOS>ATOM
      1 C1         -0.3690    0.3040    0.3360 c3        1 09U      0.156400
      2 C2          0.8870   -0.0630   -0.3980 cx        1 09U     -0.124700
      3 C3          2.1590    0.6660   -0.0610 cx        1 09U     -0.131400
      4 C4          1.9960   -0.7720    0.3320 cx        1 09U     -0.131400
      5 C5         -2.7170    0.0820    0.1690 c3        1 09U      0.116700
      6 O1         -1.4650   -0.2000   -0.4300 os        1 09U     -0.420600
      7 H1         -0.3930   -0.1470    1.3640 h1        1 09U      0.028700
      8 H2         -0.4640    1.4210    0.4250 h1        1 09U      0.028700
      9 H3          0.6940   -0.3370   -1.4550 hc        1 09U      0.101700
     10 H4          2.8550    0.9270   -0.8770 hc        1 09U      0.070200
     11 H5          2.1390    1.4410    0.7260 hc        1 09U      0.070200
     12 H6          1.8610   -1.0250    1.3990 hc        1 09U      0.070200
     13 H7          2.5740   -1.5470   -0.2030 hc        1 09U      0.070200
     14 H8         -2.7900   -0.3950    1.1770 h1        1 09U      0.032033
     15 H9         -2.8720    1.1860    0.2600 h1        1 09U      0.032033
     16 H10        -3.4680   -0.3620   -0.5310 h1        1 09U      0.032033
@<TRIPOS>BOND
     1    1    2 1   
     2    1    6 1   
     3    1    7 1   
     4    1    8 1   
     5    2    3 1   
     6    2    4 1   
     7    2    9 1   
     8    3    4 1   
     9    3   10 1   
    10    3   11 1   
    11    4   12 1   
    12    4   13 1   
    13    5    6 1   
    14    5   14 1   
    15    5   15 1   
    16    5   16 1   
@<TRIPOS>SUBSTRUCTURE
     1 09U         1 TEMP              0 ****  ****    0 ROOT
