@<TRIPOS>MOLECULE
09U
   16    16     1     0     0
SMALL
bcc


@<TRIPOS>ATOM
      1 C1         -0.0130   -0.0850    0.0080 c3        1 09U      0.156400
      2 C2          1.4870   -0.0780   -0.0090 cx        1 09U     -0.124700
      3 C3          2.2220    0.0440    1.2980 cx        1 09U     -0.131400
      4 C4          2.2440   -1.2540    0.5470 cx        1 09U     -0.131400
      5 C5         -1.8600    0.1960   -1.4410 c3        1 09U      0.116700
      6 O1         -0.4480    0.1820   -1.3270 os        1 09U     -0.420600
      7 H1         -0.4050    0.7170    0.6910 h1        1 09U      0.028200
      8 H2         -0.4170   -1.0780    0.3410 h1        1 09U      0.028200
      9 H3          1.8970    0.4370   -0.9020 hc        1 09U      0.101700
     10 H4          3.1380    0.6600    1.3390 hc        1 09U      0.070200
     11 H5          1.6400    0.1110    2.2350 hc        1 09U      0.070200
     12 H6          3.1760   -1.5710    0.0460 hc        1 09U      0.070200
     13 H7          1.6800   -2.1150    0.9480 hc        1 09U      0.070200
     14 H8         -2.2900   -0.7970   -1.1610 h1        1 09U      0.032033
     15 H9         -2.0510    0.4150   -2.5210 h1        1 09U      0.032033
     16 H10        -2.3010    0.9960   -0.7950 h1        1 09U      0.032033
@<TRIPOS>BOND
     1    1    2 1   
     2    1    6 1   
     3    1    7 1   
     4    1    8 1   
     5    2    3 1   
     6    2    4 1   
     7    2    9 1   
     8    3    4 1   
     9    3   10 1   
    10    3   11 1   
    11    4   12 1   
    12    4   13 1   
    13    5    6 1   
    14    5   14 1   
    15    5   15 1   
    16    5   16 1   
@<TRIPOS>SUBSTRUCTURE
     1 09U         1 TEMP              0 ****  ****    0 ROOT
