@<TRIPOS>MOLECULE
09U
   16    16     1     0     0
SMALL
bcc


@<TRIPOS>ATOM
      1 C1         -0.0140   -0.0950    0.0080 c3        1 09U      0.156400
      2 C2          1.4860   -0.0740   -0.0090 cx        1 09U     -0.124700
      3 C3          2.2200    0.0430    1.3000 cx        1 09U     -0.131400
      4 C4          2.2540   -1.2480    0.5360 cx        1 09U     -0.131400
      5 C5         -1.8640    0.2010   -1.4350 c3        1 09U      0.116700
      6 O1         -0.4520    0.1960   -1.3210 os        1 09U     -0.420600
      7 H1         -0.4140    0.6870    0.7090 h1        1 09U      0.028700
      8 H2         -0.4090   -1.1000    0.3190 h1        1 09U      0.028700
      9 H3          1.8910    0.4540   -0.8960 hc        1 09U      0.101700
     10 H4          1.6380    0.0950    2.2370 hc        1 09U      0.070200
     11 H5          3.1290    0.6670    1.3460 hc        1 09U      0.070200
     12 H6          1.6980   -2.1180    0.9290 hc        1 09U      0.070200
     13 H7          3.1880   -1.5520    0.0320 hc        1 09U      0.070200
     14 H8         -2.3120    0.9820   -0.7710 h1        1 09U      0.032033
     15 H9         -2.2850   -0.8030   -1.1760 h1        1 09U      0.032033
     16 H10        -2.0570    0.4410   -2.5100 h1        1 09U      0.032033
@<TRIPOS>BOND
     1    1    2 1   
     2    1    6 1   
     3    1    7 1   
     4    1    8 1   
     5    2    3 1   
     6    2    4 1   
     7    2    9 1   
     8    3    4 1   
     9    3   10 1   
    10    3   11 1   
    11    4   12 1   
    12    4   13 1   
    13    5    6 1   
    14    5   14 1   
    15    5   15 1   
    16    5   16 1   
@<TRIPOS>SUBSTRUCTURE
     1 09U         1 TEMP              0 ****  ****    0 ROOT
