@<TRIPOS>MOLECULE
09V
   13    13     1     0     0
SMALL
bcc


@<TRIPOS>ATOM
      1 O1          0.0300   -0.2450    0.0640 oh        1 09V     -0.599800
      2 C1          1.4190    0.0530    0.0110 c3        1 09V      0.159400
      3 C2          1.9290    0.0630    1.4230 cx        1 09V     -0.125700
      4 C3          3.3990   -0.1500    1.6650 cx        1 09V     -0.131900
      5 C4          2.7930    1.2020    1.8930 cx        1 09V     -0.131900
      6 H1         -0.2850   -0.2360   -0.8470 ho        1 09V      0.399000
      7 H2          1.9500   -0.7350   -0.5910 h1        1 09V      0.023200
      8 H3          1.5750    1.0500   -0.4820 h1        1 09V      0.023200
      9 H4          1.2020   -0.3760    2.1360 hc        1 09V      0.102700
     10 H5          4.0680   -0.2990    0.7990 hc        1 09V      0.070450
     11 H6          3.7120   -0.7550    2.5350 hc        1 09V      0.070450
     12 H7          3.0310    2.0210    1.1910 hc        1 09V      0.070450
     13 H8          2.6700    1.5710    2.9260 hc        1 09V      0.070450
@<TRIPOS>BOND
     1    1    2 1   
     2    1    6 1   
     3    2    3 1   
     4    2    7 1   
     5    2    8 1   
     6    3    4 1   
     7    3    5 1   
     8    3    9 1   
     9    4    5 1   
    10    4   10 1   
    11    4   11 1   
    12    5   12 1   
    13    5   13 1   
@<TRIPOS>SUBSTRUCTURE
     1 09V         1 TEMP              0 ****  ****    0 ROOT
