@<TRIPOS>MOLECULE
09V
   13    13     1     0     0
SMALL
bcc


@<TRIPOS>ATOM
      1 O1          0.0230   -0.2130    0.0660 oh        1 09V     -0.599800
      2 C1          1.4200    0.0410    0.0120 c3        1 09V      0.159400
      3 C2          1.9280    0.0660    1.4250 cx        1 09V     -0.125700
      4 C3          3.3960   -0.1530    1.6720 cx        1 09V     -0.131900
      5 C4          2.7970    1.2060    1.8840 cx        1 09V     -0.131900
      6 H1         -0.2890   -0.2120   -0.8450 ho        1 09V      0.399000
      7 H2          1.9290   -0.7750   -0.5710 h1        1 09V      0.023200
      8 H3          1.6080    1.0230   -0.5020 h1        1 09V      0.023200
      9 H4          1.1970   -0.3610    2.1410 hc        1 09V      0.102700
     10 H5          3.7040   -0.7490    2.5480 hc        1 09V      0.070450
     11 H6          4.0660   -0.3140    0.8090 hc        1 09V      0.070450
     12 H7          2.6740    1.5870    2.9130 hc        1 09V      0.070450
     13 H8          3.0400    2.0160    1.1730 hc        1 09V      0.070450
@<TRIPOS>BOND
     1    1    2 1   
     2    1    6 1   
     3    2    3 1   
     4    2    7 1   
     5    2    8 1   
     6    3    4 1   
     7    3    5 1   
     8    3    9 1   
     9    4    5 1   
    10    4   10 1   
    11    4   11 1   
    12    5   12 1   
    13    5   13 1   
@<TRIPOS>SUBSTRUCTURE
     1 09V         1 TEMP              0 ****  ****    0 ROOT
