@<TRIPOS>MOLECULE
09V
   13    13     1     0     0
SMALL
bcc


@<TRIPOS>ATOM
      1 O1          2.0390    0.0520   -0.3350 oh        1 09V     -0.599800
      2 C1          0.8930   -0.3130    0.4220 c3        1 09V      0.159400
      3 C2         -0.3160    0.0450   -0.3930 cx        1 09V     -0.125700
      4 C3         -1.6180   -0.6510   -0.1040 cx        1 09V     -0.131900
      5 C4         -1.4500    0.7960    0.2510 cx        1 09V     -0.131900
      6 H1          2.8050   -0.1720    0.2050 ho        1 09V      0.399000
      7 H2          0.9140   -1.4190    0.6260 h1        1 09V      0.023200
      8 H3          0.8960    0.2360    1.4030 h1        1 09V      0.023200
      9 H4         -0.0580    0.2800   -1.4460 hc        1 09V      0.102700
     10 H5         -2.2720   -0.9280   -0.9500 hc        1 09V      0.070450
     11 H6         -1.6560   -1.4010    0.7060 hc        1 09V      0.070450
     12 H7         -1.3710    1.0810    1.3150 hc        1 09V      0.070450
     13 H8         -1.9830    1.5620   -0.3400 hc        1 09V      0.070450
@<TRIPOS>BOND
     1    1    2 1   
     2    1    6 1   
     3    2    3 1   
     4    2    7 1   
     5    2    8 1   
     6    3    4 1   
     7    3    5 1   
     8    3    9 1   
     9    4    5 1   
    10    4   10 1   
    11    4   11 1   
    12    5   12 1   
    13    5   13 1   
@<TRIPOS>SUBSTRUCTURE
     1 09V         1 TEMP              0 ****  ****    0 ROOT
