@<TRIPOS>MOLECULE
09V
   13    13     1     0     0
SMALL
bcc


@<TRIPOS>ATOM
      1 O1          0.0250   -0.2240    0.0650 oh        1 09V     -0.599800
      2 C1          1.4200    0.0450    0.0120 c3        1 09V      0.159400
      3 C2          1.9270    0.0670    1.4250 cx        1 09V     -0.125700
      4 C3          3.3950   -0.1530    1.6720 cx        1 09V     -0.131900
      5 C4          2.7970    1.2050    1.8850 cx        1 09V     -0.131900
      6 H1         -0.2870   -0.2220   -0.8460 ho        1 09V      0.399000
      7 H2          1.9360   -0.7630   -0.5760 h1        1 09V      0.023200
      8 H3          1.5970    1.0320   -0.4960 h1        1 09V      0.023200
      9 H4          1.1960   -0.3610    2.1400 hc        1 09V      0.102700
     10 H5          4.0650   -0.3140    0.8080 hc        1 09V      0.070450
     11 H6          3.7040   -0.7510    2.5470 hc        1 09V      0.070450
     12 H7          3.0410    2.0160    1.1760 hc        1 09V      0.070450
     13 H8          2.6740    1.5850    2.9150 hc        1 09V      0.070450
@<TRIPOS>BOND
     1    1    2 1   
     2    1    6 1   
     3    2    3 1   
     4    2    7 1   
     5    2    8 1   
     6    3    4 1   
     7    3    5 1   
     8    3    9 1   
     9    4    5 1   
    10    4   10 1   
    11    4   11 1   
    12    5   12 1   
    13    5   13 1   
@<TRIPOS>SUBSTRUCTURE
     1 09V         1 TEMP              0 ****  ****    0 ROOT
