@<TRIPOS>MOLECULE
09Z
   32    33     1     0     0
SMALL
bcc


@<TRIPOS>ATOM
      1 C1          0.0040   -0.1230   -0.0060 c3        1 09Z     -0.114100
      2 C2          1.5310   -0.0710    0.0490 c3        1 09Z      0.200500
      3 C3          1.9760   -0.1790    1.5090 c3        1 09Z     -0.114100
      4 N4          2.1910   -1.0850   -0.7620 nu        1 09Z     -0.812900
      5 C5          2.2000   -0.9960   -2.1420 cc        1 09Z      0.705300
      6 N6          1.8400    0.0860   -2.8650 nd        1 09Z     -0.772000
      7 C7          2.1110   -0.1510   -4.2300 cd        1 09Z      0.734200
      8 C8          2.6470   -1.4410   -4.5150 cc        1 09Z     -0.422000
      9 S9          2.8520   -2.3170   -3.0800 ss        1 09Z     -0.158300
     10 N10         1.8780    0.8060   -5.1690 nv        1 09Z     -0.940500
     11 C11         2.9290   -1.9510   -5.8280 c         1 09Z      0.649300
     12 C12         3.4850   -3.3230   -5.9200 ca        1 09Z     -0.269900
     13 C13         4.4480   -3.8140   -5.0320 ca        1 09Z     -0.070000
     14 C14         4.9210   -5.1160   -5.2010 ca        1 09Z     -0.255300
     15 C15         4.4090   -5.8850   -6.2620 ca        1 09Z      0.409200
     16 N16         3.4880   -5.4280   -7.1340 nb        1 09Z     -0.670000
     17 C17         3.0460   -4.1700   -6.9640 ca        1 09Z      0.441200
     18 O18         2.7010   -1.3080   -6.8720 o         1 09Z     -0.594100
     19 H1         -0.3800   -1.0880    0.4020 hc        1 09Z      0.045367
     20 H1A        -0.3610   -0.0050   -1.0550 hc        1 09Z      0.045367
     21 H1B        -0.4110    0.7120    0.6080 hc        1 09Z      0.045367
     22 H2          1.8650    0.9370   -0.3460 h1        1 09Z      0.086700
     23 H3          1.6440   -1.1430    1.9620 hc        1 09Z      0.045367
     24 H3A         1.5140    0.6600    2.0830 hc        1 09Z      0.045367
     25 H3B         3.0860   -0.1030    1.5970 hc        1 09Z      0.045367
     26 HN4         2.0850   -2.0170   -0.4180 hn        1 09Z      0.415800
     27 HN10        1.4360    1.6560   -4.9240 hn        1 09Z      0.457800
     28 HN1A        2.0110    0.5690   -6.1260 hn        1 09Z      0.457800
     29 H13         4.8430   -3.1790   -4.2200 ha        1 09Z      0.152000
     30 H14         5.6800   -5.5330   -4.5270 ha        1 09Z      0.145000
     31 H15         4.7550   -6.9210   -6.4290 h4        1 09Z      0.023100
     32 H17         2.3050   -3.8030   -7.6990 h4        1 09Z      0.040100
@<TRIPOS>BOND
     1    1    2 1   
     2    1   19 1   
     3    1   20 1   
     4    1   21 1   
     5    2    3 1   
     6    2    4 1   
     7    2   22 1   
     8    3   23 1   
     9    3   24 1   
    10    3   25 1   
    11    4    5 1   
    12    4   26 1   
    13    5    6 2   
    14    5    9 1   
    15    6    7 1   
    16    7    8 2   
    17    7   10 1   
    18    8    9 1   
    19    8   11 1   
    20   10   27 1   
    21   10   28 1   
    22   11   12 1   
    23   11   18 2   
    24   12   13 ar  
    25   12   17 ar  
    26   13   14 ar  
    27   13   29 1   
    28   14   15 ar  
    29   14   30 1   
    30   15   16 ar  
    31   15   31 1   
    32   16   17 ar  
    33   17   32 1   
@<TRIPOS>SUBSTRUCTURE
     1 09Z         1 TEMP              0 ****  ****    0 ROOT
