@<TRIPOS>MOLECULE
09Z
   32    33     1     0     0
SMALL
bcc


@<TRIPOS>ATOM
      1 C1         -0.0030   -0.1280   -0.0090 c3        1 09Z     -0.114100
      2 C2          1.5240   -0.0740    0.0480 c3        1 09Z      0.200500
      3 C3          1.9670   -0.1820    1.5090 c3        1 09Z     -0.114100
      4 N4          2.1870   -1.0870   -0.7620 nh        1 09Z     -0.812900
      5 C5          2.1970   -0.9970   -2.1430 cc        1 09Z      0.705300
      6 N6          1.8370    0.0850   -2.8650 nd        1 09Z     -0.772000
      7 C7          2.1100   -0.1510   -4.2290 cd        1 09Z      0.734200
      8 C8          2.6480   -1.4400   -4.5140 cc        1 09Z     -0.422000
      9 S9          2.8520   -2.3160   -3.0800 ss        1 09Z     -0.158300
     10 N10         1.8770    0.8060   -5.1690 nh        1 09Z     -0.940500
     11 C11         2.9330   -1.9490   -5.8270 c         1 09Z      0.649300
     12 C12         3.4900   -3.3200   -5.9190 ca        1 09Z     -0.269900
     13 C13         4.4530   -3.8100   -5.0300 ca        1 09Z     -0.070000
     14 C14         4.9280   -5.1120   -5.2000 ca        1 09Z     -0.255300
     15 C15         4.4190   -5.8810   -6.2610 ca        1 09Z      0.409200
     16 N16         3.4980   -5.4250   -7.1340 nb        1 09Z     -0.670000
     17 C17         3.0540   -4.1680   -6.9650 ca        1 09Z      0.441200
     18 O18         2.7060   -1.3060   -6.8710 o         1 09Z     -0.594100
     19 H1         -0.4200    0.7060    0.6050 hc        1 09Z      0.045367
     20 H1A        -0.3660   -0.0090   -1.0580 hc        1 09Z      0.045367
     21 H1B        -0.3860   -1.0940    0.3980 hc        1 09Z      0.045367
     22 H2          1.8570    0.9340   -0.3450 h1        1 09Z      0.086700
     23 H3          1.5040    0.6560    2.0830 hc        1 09Z      0.045367
     24 H3A         3.0770   -0.1050    1.5990 hc        1 09Z      0.045367
     25 H3B         1.6350   -1.1470    1.9610 hc        1 09Z      0.045367
     26 HN4         2.0810   -2.0190   -0.4180 hn        1 09Z      0.415800
     27 HN10        1.4330    1.6550   -4.9230 hn        1 09Z      0.457800
     28 HN1A        2.0120    0.5690   -6.1260 hn        1 09Z      0.457800
     29 H13         4.8460   -3.1750   -4.2180 ha        1 09Z      0.152000
     30 H14         5.6870   -5.5280   -4.5240 ha        1 09Z      0.145000
     31 H15         4.7660   -6.9170   -6.4280 h4        1 09Z      0.023100
     32 H17         2.3130   -3.8010   -7.7000 h4        1 09Z      0.040100
@<TRIPOS>BOND
     1    1    2 1   
     2    1   19 1   
     3    1   20 1   
     4    1   21 1   
     5    2    3 1   
     6    2    4 1   
     7    2   22 1   
     8    3   23 1   
     9    3   24 1   
    10    3   25 1   
    11    4    5 1   
    12    4   26 1   
    13    5    6 2   
    14    5    9 1   
    15    6    7 1   
    16    7    8 2   
    17    7   10 1   
    18    8    9 1   
    19    8   11 1   
    20   10   27 1   
    21   10   28 1   
    22   11   12 1   
    23   11   18 2   
    24   12   13 ar  
    25   12   17 ar  
    26   13   14 ar  
    27   13   29 1   
    28   14   15 ar  
    29   14   30 1   
    30   15   16 ar  
    31   15   31 1   
    32   16   17 ar  
    33   17   32 1   
@<TRIPOS>SUBSTRUCTURE
     1 09Z         1 TEMP              0 ****  ****    0 ROOT
