@<TRIPOS>MOLECULE
09Z
   34    35     1     0     0
SMALL
bcc


@<TRIPOS>ATOM
      1 C1          1.2370   -2.1580   -0.0790 c3        1 09Z     -0.142600
      2 C2          1.2130   -0.6420   -0.1610 c3        1 09Z      0.143500
      3 C3          0.9630   -0.0350    1.2120 c3        1 09Z     -0.142600
      4 N4          2.5290   -0.0990   -0.7270 n4        1 09Z     -0.731700
      5 C5          2.6430   -0.2650   -2.1680 cc        1 09Z      0.348300
      6 N6          2.6470    0.8240   -2.9870 nd        1 09Z     -0.570000
      7 C7          2.7710    0.3800   -4.2900 cd        1 09Z      0.431200
      8 C8          2.8630   -1.0320   -4.4350 cc        1 09Z     -0.277000
      9 S9          2.7920   -1.7630   -2.9700 ss        1 09Z      0.373700
     10 N10         2.8090    1.3260   -5.3980 n4        1 09Z     -0.800300
     11 C11         2.9460   -1.7370   -5.7450 c         1 09Z      0.645300
     12 C12         3.1150   -3.1810   -5.7310 ca        1 09Z     -0.348900
     13 C13         3.7650   -3.8880   -4.7000 ca        1 09Z     -0.082000
     14 C14         3.8850   -5.2670   -4.7940 ca        1 09Z     -0.231300
     15 C15         3.3540   -5.9170   -5.9370 ca        1 09Z      0.486200
     16 N16         2.7450   -5.2590   -6.9390 nb        1 09Z     -0.629000
     17 C17         2.6370   -3.9220   -6.8440 ca        1 09Z      0.505200
     18 O18         2.8180   -1.0650   -6.7790 o         1 09Z     -0.524100
     19 H1          1.4620   -2.6260   -1.0700 hc        1 09Z      0.090200
     20 H1A         0.2190   -2.5060    0.2410 hc        1 09Z      0.090200
     21 H1B         1.9740   -2.5220    0.6790 hc        1 09Z      0.090200
     22 H2          0.4060   -0.2990   -0.8770 hx        1 09Z      0.117700
     23 H3          0.9090    1.0810    1.1730 hc        1 09Z      0.090200
     24 H3A        -0.0290   -0.4110    1.5780 hc        1 09Z      0.090200
     25 H3B         1.7420   -0.3430    1.9530 hc        1 09Z      0.090200
     26 HN4         3.3190   -0.5810   -0.2750 hn        1 09Z      0.478800
     27 HN10        2.2040    2.1390   -5.2090 hn        1 09Z      0.499133
     28 HN1A        2.4870    0.8430   -6.2650 hn        1 09Z      0.499133
     29 H13         4.2380   -3.3630   -3.8520 ha        1 09Z      0.116000
     30 H14         4.3990   -5.8540   -4.0180 ha        1 09Z      0.179000
     31 H15         3.4340   -7.0180   -6.0550 h4        1 09Z      0.072100
     32 H17         2.1430   -3.4080   -7.6950 h4        1 09Z      0.065100
     33 H42         2.5860    0.9060   -0.4800 hn        1 09Z      0.478800
     34 H103        3.7780    1.6500   -5.5370 hn        1 09Z      0.499133
@<TRIPOS>BOND
     1    1    2 1   
     2    1   19 1   
     3    1   20 1   
     4    1   21 1   
     5    2    3 1   
     6    2    4 1   
     7    2   22 1   
     8    3   23 1   
     9    3   24 1   
    10    3   25 1   
    11    4    5 1   
    12    4   26 1   
    13    4   33 1   
    14    5    6 2   
    15    5    9 1   
    16    6    7 1   
    17    7    8 2   
    18    7   10 1   
    19    8    9 1   
    20    8   11 1   
    21   10   27 1   
    22   10   28 1   
    23   10   34 1   
    24   11   12 1   
    25   11   18 2   
    26   12   13 ar  
    27   12   17 ar  
    28   13   14 ar  
    29   13   29 1   
    30   14   15 ar  
    31   14   30 1   
    32   15   16 ar  
    33   15   31 1   
    34   16   17 ar  
    35   17   32 1   
@<TRIPOS>SUBSTRUCTURE
     1 09Z         1 TEMP              0 ****  ****    0 ROOT
