@<TRIPOS>MOLECULE
09Z
   32    33     1     0     0
SMALL
bcc


@<TRIPOS>ATOM
      1 C1          4.8130    0.0840   -1.3150 c3        1 09Z     -0.114100
      2 C2          4.4100    0.5800    0.0740 c3        1 09Z      0.200500
      3 C3          5.3650    1.7000    0.4950 c3        1 09Z     -0.114100
      4 N4          3.0260    1.0270    0.1690 nh        1 09Z     -0.812900
      5 C5          1.9830    0.1190    0.1490 cc        1 09Z      0.705300
      6 N6          2.1020   -1.2200    0.2780 nd        1 09Z     -0.772000
      7 C7          0.8150   -1.7980    0.3460 cd        1 09Z      0.734200
      8 C8         -0.2610   -0.8720    0.2310 cc        1 09Z     -0.422000
      9 S9          0.3400    0.7050    0.0910 ss        1 09Z     -0.158300
     10 N10         0.6560   -3.1390    0.5210 nh        1 09Z     -0.940500
     11 C11        -1.6550   -1.2190    0.1900 c         1 09Z      0.649300
     12 C12        -2.6290   -0.1080    0.0650 ca        1 09Z     -0.269900
     13 C13        -2.4900    1.1050    0.7470 ca        1 09Z     -0.070000
     14 C14        -3.4630    2.0920    0.5760 ca        1 09Z     -0.255300
     15 C15        -4.5480    1.8260   -0.2780 ca        1 09Z      0.409200
     16 N16        -4.7060    0.6600   -0.9370 nb        1 09Z     -0.670000
     17 C17        -3.7660   -0.2840   -0.7580 ca        1 09Z      0.441200
     18 O18        -2.0650   -2.3960    0.2240 o         1 09Z     -0.594100
     19 H1          5.8700   -0.2740   -1.2800 hc        1 09Z      0.045367
     20 H1A         4.1630   -0.7640   -1.6390 hc        1 09Z      0.045367
     21 H1B         4.7410    0.9030   -2.0690 hc        1 09Z      0.045367
     22 H2          4.5310   -0.2770    0.8050 h1        1 09Z      0.086700
     23 H3          5.3110    2.5620   -0.2110 hc        1 09Z      0.045367
     24 H3A         5.1290    2.0620    1.5240 hc        1 09Z      0.045367
     25 H3B         6.4060    1.2980    0.4880 hc        1 09Z      0.045367
     26 HN4         2.8350    1.8730   -0.3270 hn        1 09Z      0.415800
     27 HN10        1.4390   -3.7430    0.5210 hn        1 09Z      0.457800
     28 HN1A       -0.2660   -3.5120    0.4870 hn        1 09Z      0.457800
     29 H13        -1.6360    1.2770    1.4240 ha        1 09Z      0.152000
     30 H14        -3.3890    3.0540    1.0990 ha        1 09Z      0.145000
     31 H15        -5.3380    2.5800   -0.4430 h4        1 09Z      0.023100
     32 H17        -3.9200   -1.2420   -1.2900 h4        1 09Z      0.040100
@<TRIPOS>BOND
     1    1    2 1   
     2    1   19 1   
     3    1   20 1   
     4    1   21 1   
     5    2    3 1   
     6    2    4 1   
     7    2   22 1   
     8    3   23 1   
     9    3   24 1   
    10    3   25 1   
    11    4    5 1   
    12    4   26 1   
    13    5    6 2   
    14    5    9 1   
    15    6    7 1   
    16    7    8 2   
    17    7   10 1   
    18    8    9 1   
    19    8   11 1   
    20   10   27 1   
    21   10   28 1   
    22   11   12 1   
    23   11   18 2   
    24   12   13 ar  
    25   12   17 ar  
    26   13   14 ar  
    27   13   29 1   
    28   14   15 ar  
    29   14   30 1   
    30   15   16 ar  
    31   15   31 1   
    32   16   17 ar  
    33   17   32 1   
@<TRIPOS>SUBSTRUCTURE
     1 09Z         1 TEMP              0 ****  ****    0 ROOT
