@<TRIPOS>MOLECULE
09Z
   32    29     1     0     0
SMALL
bcc


@<TRIPOS>ATOM
      1 C1         -1.0760   -1.7450    4.6300 c3        1 09Z     -0.231500
      2 C2         -0.7860   -0.7320    3.5220 c3        1 09Z      0.000000
      3 C3         -1.4470    0.6380    3.8820 c3        1 09Z     -0.231500
      4 N4         -1.3330   -1.2120    2.2780 n3        1 09Z     -0.258000
      5 C5         -0.5460   -1.2010    1.1210 c2        1 09Z     -0.074000
      6 N6          0.7080   -1.8950    0.9420 n2        1 09Z     -0.251000
      7 C7          1.1730   -1.6870   -0.5060 c1        1 09Z      0.213000
      8 C8          0.2120   -0.8840   -1.1720 c1        1 09Z     -0.616000
      9 S9         -0.8980   -0.5530   -0.1730 ss        1 09Z      0.456000
     10 N10         2.3280   -2.2410   -1.0960 n2        1 09Z     -0.339000
     11 C11         0.2420   -0.4940   -2.6580 c1        1 09Z      0.369000
     12 C12         0.4350    0.9730   -3.0700 c2        1 09Z     -0.181000
     13 C13         0.3880    1.3200   -4.4050 c2        1 09Z     -0.047000
     14 C14         0.5700    2.6370   -4.7860 c1        1 09Z     -0.189000
     15 C15         0.7950    3.5910   -3.8460 c1        1 09Z     -0.059000
     16 N16         0.8420    3.2440   -2.5230 n1        1 09Z     -0.144000
     17 C17         0.6570    1.9100   -2.1420 c1        1 09Z     -0.051000
     18 O18         0.0570   -1.3140   -3.4830 o         1 09Z     -0.357000
     19 H1         -0.6020   -2.6300    4.4180 hc        1 09Z      0.087667
     20 H1A        -2.0320   -1.8960    4.6870 hc        1 09Z      0.087667
     21 H1B        -0.7400   -1.3900    5.5050 hc        1 09Z      0.087667
     22 H2          0.1540   -0.6200    3.4320 h1        1 09Z      0.106000
     23 H3         -1.3850    1.2460    3.1070 hc        1 09Z      0.087667
     24 H3A        -0.9740    1.0460    4.6620 hc        1 09Z      0.087667
     25 H3B        -2.3950    0.4940    4.1130 hc        1 09Z      0.087667
     26 HN4        -2.1530   -1.5710    2.2570 hn        1 09Z      0.221000
     27 HN10        2.3640   -2.3720   -2.0480 hn        1 09Z      0.252500
     28 HN1A        3.0560   -2.4210   -0.5850 hn        1 09Z      0.252500
     29 H13         0.2360    0.6760   -5.0370 ha        1 09Z      0.156000
     30 H14         0.5360    2.8760   -5.7220 ha        1 09Z      0.147000
     31 H15         0.9280    4.5490   -4.1180 ha        1 09Z      0.160000
     32 H17         0.6870    1.6580   -1.1860 ha        1 09Z      0.170000
@<TRIPOS>BOND
     1    1    2 1   
     2    1   19 1   
     3    1   20 1   
     4    1   21 1   
     5    2    3 1   
     6    2    4 1   
     7    2   22 1   
     8    3   23 1   
     9    3   24 1   
    10    3   25 1   
    11    4    5 1   
    12    4   26 1   
    13    5    6 1   
    14    5    9 1   
    15    6    7 1   
    16    7    8 1   
    17    8    9 1   
    18   10   27 1   
    19   10   28 1   
    20   11   12 1   
    21   11   18 1   
    22   12   13 1   
    23   12   17 1   
    24   13   14 1   
    25   13   29 1   
    26   14   30 1   
    27   15   16 1   
    28   15   31 1   
    29   17   32 1   
@<TRIPOS>SUBSTRUCTURE
     1 09Z         1 TEMP              0 ****  ****    0 ROOT
