@<TRIPOS>MOLECULE
0A0
   17    16     1     0     0
SMALL
bcc


@<TRIPOS>ATOM
      1 N           0.8800   -0.4550    1.4660 n3        1 0A0     -0.914800
      2 CA          0.7340   -0.5270    0.0090 c3        1 0A0      0.076200
      3 C           1.6850    0.5150   -0.6850 c         1 0A0      0.913600
      4 O           2.3320    0.1720   -1.7190 o         1 0A0     -0.874800
      5 CB         -0.6960   -0.1960   -0.4760 c3        1 0A0     -0.193400
      6 CG         -1.8080   -1.0280    0.1610 c         1 0A0      0.900600
      7 OD1        -2.0640   -0.9000    1.4010 o         1 0A0     -0.887800
      8 OD2        -2.4990   -1.8020   -0.5750 o         1 0A0     -0.887800
      9 OXT         1.7660    1.6830   -0.1960 o         1 0A0     -0.874800
     10 CM          1.0850   -1.9320   -0.4920 c3        1 0A0     -0.051100
     11 HN1         0.9710    0.5140    1.7130 hn        1 0A0      0.345300
     12 HN2         0.0350   -0.8030    1.8890 hn        1 0A0      0.345300
     13 HBC1       -0.9000    0.8830   -0.2530 hc        1 0A0      0.029200
     14 HBC2       -0.7270   -0.3350   -1.5850 hc        1 0A0      0.029200
     15 HMC1        0.3190   -2.6690   -0.1500 hc        1 0A0      0.014700
     16 HMC2        1.1080   -1.9160   -1.6080 hc        1 0A0      0.014700
     17 HMC3        2.0910   -2.2450   -0.1260 hc        1 0A0      0.014700
@<TRIPOS>BOND
     1    1    2 1   
     2    1   11 1   
     3    1   12 1   
     4    2    3 1   
     5    2    5 1   
     6    2   10 1   
     7    3    4 1   
     8    3    9 1   
     9    5    6 1   
    10    5   13 1   
    11    5   14 1   
    12    6    7 1   
    13    6    8 1   
    14   10   15 1   
    15   10   16 1   
    16   10   17 1   
@<TRIPOS>SUBSTRUCTURE
     1 0A0         1 TEMP              0 ****  ****    0 ROOT
