@<TRIPOS>MOLECULE
0A1
   26    26     1     0     0
SMALL
bcc


@<TRIPOS>ATOM
      1 N           2.0140    1.3650    1.1280 n3        1 0A1     -0.885800
      2 CA          2.0690    0.0990    0.4110 c3        1 0A1      0.023500
      3 CB          1.2400    0.0980   -0.8790 c3        1 0A1     -0.034100
      4 CG         -0.2260    0.0990   -0.6310 ca        1 0A1     -0.054300
      5 CD1        -1.0090    1.2240   -0.9260 ca        1 0A1     -0.103000
      6 CE1        -2.3830    1.2180   -0.7110 ca        1 0A1     -0.179500
      7 CZ         -2.9890    0.0630   -0.1900 ca        1 0A1      0.086100
      8 OH         -4.3670    0.1450   -0.0310 os        1 0A1     -0.341900
      9 CM         -4.9710   -0.9380    0.6600 c3        1 0A1      0.119700
     10 CE2        -2.2250   -1.0680    0.1150 ca        1 0A1     -0.179500
     11 CD2        -0.8500   -1.0400   -0.1070 ca        1 0A1     -0.103000
     12 C           3.5160   -0.3850    0.0570 c         1 0A1      0.886600
     13 O           4.4900    0.3130    0.4590 o         1 0A1     -0.841300
     14 OXT         3.6260   -1.4610   -0.5940 o         1 0A1     -0.841300
     15 HN1         2.7290    1.3340    1.8380 hn        1 0A1      0.330300
     16 HN2         2.2810    2.1000    0.4970 hn        1 0A1      0.330300
     17 HA          1.6370   -0.6820    1.1040 h1        1 0A1      0.043700
     18 HBC1        1.5250    0.9750   -1.5170 hc        1 0A1      0.059200
     19 HBC2        1.5230   -0.8360   -1.4420 hc        1 0A1      0.059200
     20 HD1        -0.5260    2.1290   -1.3240 ha        1 0A1      0.137000
     21 HD2        -0.2370   -1.9220    0.1350 ha        1 0A1      0.137000
     22 HE1        -2.9980    2.0980   -0.9390 ha        1 0A1      0.125500
     23 HE2        -2.6910   -1.9730    0.5280 ha        1 0A1      0.125500
     24 HMC1       -6.0420   -0.6280    0.7580 h1        1 0A1      0.033367
     25 HMC2       -4.8910   -1.8790    0.0630 h1        1 0A1      0.033367
     26 HMC3       -4.5090   -1.0790    1.6670 h1        1 0A1      0.033367
@<TRIPOS>BOND
     1    1    2 1   
     2    1   15 1   
     3    1   16 1   
     4    2    3 1   
     5    2   12 1   
     6    2   17 1   
     7    3    4 1   
     8    3   18 1   
     9    3   19 1   
    10    4    5 ar  
    11    4   11 ar  
    12    5    6 ar  
    13    5   20 1   
    14    6    7 ar  
    15    6   22 1   
    16    7    8 1   
    17    7   10 ar  
    18    8    9 1   
    19    9   24 1   
    20    9   25 1   
    21    9   26 1   
    22   10   11 ar  
    23   10   23 1   
    24   11   21 1   
    25   12   13 1   
    26   12   14 1   
@<TRIPOS>SUBSTRUCTURE
     1 0A1         1 TEMP              0 ****  ****    0 ROOT
