@<TRIPOS>MOLECULE
0A3
   42    39     1     0     0
SMALL
bcc


@<TRIPOS>ATOM
      1 OG          0.2070    0.9370    2.5740 o         1 0A3     -0.569500
      2 S1         -1.9980    3.1630   -0.1440 ss        1 0A3     -0.014000
      3 C2         -0.8670    4.6060   -0.0790 c3        1 0A3     -0.187000
      4 C3         -0.4140    4.4630    0.0580 c2        1 0A3     -0.232000
      5 C3'         0.5700    5.4810    0.6050 c3        1 0A3     -0.127000
      6 C4          0.2520    2.9610   -1.3100 c1        1 0A3     -0.009000
      7 C4'         1.2230    3.3200   -2.4130 c1        1 0A3      0.353000
      8 O4A         0.7920    3.7400   -3.5180 o         1 0A3     -0.577000
      9 O4B         2.4620    3.2170   -2.2190 o         1 0A3     -0.577000
     10 N5         -0.8950    1.8110   -1.5660 n3        1 0A3     -0.277000
     11 C6         -1.2610    1.6670   -0.9500 c3        1 0A3     -0.043000
     12 C7         -0.0320    0.8770    0.2930 c3        1 0A3     -0.095000
     13 C8         -0.5610    0.9420    1.5760 c2        1 0A3      0.316000
     14 O9         -1.8060    1.0260    1.7400 o         1 0A3     -0.569500
     15 N10         0.1740   -0.3530   -0.0280 n         1 0A3     -0.290000
     16 C11        -0.6420   -1.3750    0.5230 c2        1 0A3      0.306000
     17 O12        -1.7820   -1.1270    0.8590 o         1 0A3     -0.370000
     18 C13        -0.0710   -2.7580    0.7510 c2        1 0A3     -0.104000
     19 N16        -0.0500   -3.2640    1.9530 n1        1 0A3      0.033000
     20 O17        -0.5430   -2.5460    3.0050 o         1 0A3     -0.185000
     21 C18        -0.4330   -3.3000    4.1910 c3        1 0A3     -0.149000
     22 C14         0.4760   -3.5520   -0.4140 c2        1 0A3     -0.070000
     23 C15         1.7970   -3.4220   -0.9810 c1        1 0A3     -0.414000
     24 S16         1.9160   -4.4240   -2.1240 ss        1 0A3      0.634000
     25 C17         0.5730   -5.1800   -2.2210 c1        1 0A3     -0.336000
     26 N18         0.2800   -6.2490   -3.1060 n2        1 0A3     -0.259000
     27 N19        -0.2920   -4.6690   -1.2060 n2        1 0A3     -0.118000
     28 H2C1       -0.7850    5.1470   -0.8990 h1        1 0A3      0.073000
     29 H2C2       -1.2600    5.2650    0.5400 h1        1 0A3      0.073000
     30 H6         -1.9770    1.0240   -1.1450 h2        1 0A3      0.158000
     31 H3'1        0.1600    5.9620    1.3550 hc        1 0A3      0.060667
     32 H3'2        1.3780    5.0210    0.9160 hc        1 0A3      0.060667
     33 H3'3        0.8080    6.1180   -0.1010 hc        1 0A3      0.060667
     34 H5         -0.7470    1.1430   -2.1780 hn        1 0A3      0.227000
     35 H7          0.8160    1.3660    0.2660 h1        1 0A3      0.111000
     36 H10         0.8670   -0.5710   -0.5810 hn        1 0A3      0.217000
     37 H181       -1.0050   -2.9050    4.8840 h1        1 0A3      0.113000
     38 H182       -0.7170   -4.2230    4.0190 h1        1 0A3      0.113000
     39 H183        0.5000   -3.2960    4.4950 h1        1 0A3      0.113000
     40 H15         2.5100   -2.8450   -0.6470 DU        1 0A3      0.261000
     41 HA1        -0.5430   -6.6470   -3.0860 hn        1 0A3      0.144000
     42 HB2         0.9180   -6.5490   -3.6880 hn        1 0A3      0.144000
@<TRIPOS>BOND
     1    1   13 1   
     2    2    3 1   
     3    2   11 1   
     4    3    4 1   
     5    3   28 1   
     6    3   29 1   
     7    4    5 1   
     8    4    6 1   
     9    5   31 1   
    10    5   32 1   
    11    5   33 1   
    12    6   10 1   
    13    7    8 1   
    14    7    9 1   
    15   10   11 1   
    16   10   34 1   
    17   11   12 1   
    18   11   30 1   
    19   12   13 1   
    20   12   15 1   
    21   12   35 1   
    22   13   14 1   
    23   15   16 1   
    24   15   36 1   
    25   16   17 1   
    26   16   18 1   
    27   18   19 1   
    28   18   22 1   
    29   20   21 1   
    30   21   37 1   
    31   21   38 1   
    32   21   39 1   
    33   22   23 1   
    34   22   27 1   
    35   23   24 1   
    36   24   25 1   
    37   25   27 1   
    38   26   41 1   
    39   26   42 1   
@<TRIPOS>SUBSTRUCTURE
     1 0A3         1 TEMP              0 ****  ****    0 ROOT
