@<TRIPOS>MOLECULE
0A3
   43    44     1     0     0
SMALL
bcc


@<TRIPOS>ATOM
      1 OG          1.2670    1.1230   -0.1560 o         1 0A3     -0.774800
      2 S1          2.1150   -2.8450   -1.6080 ss        1 0A3     -0.594200
      3 C2          0.9080   -3.7770   -2.5430 c3        1 0A3      0.135900
      4 C3         -0.4270   -3.1480   -2.6310 c2        1 0A3     -0.275400
      5 C3'        -1.4910   -4.1080   -3.0200 c3        1 0A3     -0.023900
      6 C4         -0.7160   -1.8460   -2.3600 ce        1 0A3      0.080800
      7 C4'        -2.1800   -1.3150   -2.3660 c         1 0A3      0.927800
      8 O4A        -2.6360   -0.9180   -1.2660 o         1 0A3     -0.803800
      9 O4B        -2.7840   -1.3220   -3.4690 o         1 0A3     -0.803800
     10 N5          0.2360   -0.8610   -2.0660 nh        1 0A3     -0.700000
     11 C6          1.5970   -1.1660   -2.2450 c3        1 0A3      0.379600
     12 C7          2.6030   -0.1240   -1.7310 c3        1 0A3     -0.028500
     13 C8          2.3130    0.4610   -0.2800 c         1 0A3      0.930600
     14 O9          3.2230    0.2840    0.5780 o         1 0A3     -0.774800
     15 N10         3.9980   -0.7030   -1.7580 n4        1 0A3     -0.651800
     16 C11         5.0030    0.2630   -2.2640 c         1 0A3      0.484800
     17 O12         5.0490    0.5270   -3.4580 o         1 0A3     -0.448100
     18 C13         5.9160    0.8030   -1.1970 ce        1 0A3      0.262300
     19 N16         5.7360    1.9190   -0.5360 n2        1 0A3     -0.315200
     20 O17         4.7250    2.6610   -0.9130 os        1 0A3     -0.191300
     21 C18         4.0250    3.3420    0.1710 c3        1 0A3      0.120700
     22 C14         7.0530   -0.0800   -0.9100 cc        1 0A3      0.332000
     23 C15         8.2080    0.2870   -0.2340 cd        1 0A3     -0.214400
     24 S16         9.2500   -1.0080   -0.0840 ss        1 0A3     -0.095300
     25 C17         8.1130   -2.0510   -0.9140 cd        1 0A3      0.621300
     26 N18         8.4660   -3.3680   -1.2120 nh        1 0A3     -0.886500
     27 N19         6.9860   -1.4200   -1.2970 nc        1 0A3     -0.715000
     28 H2C1        0.8380   -4.7600   -2.0120 h1        1 0A3      0.050200
     29 H2C2        1.3250   -3.9550   -3.5650 h1        1 0A3      0.050200
     30 H6          1.7680   -1.3110   -3.3560 h2        1 0A3      0.051700
     31 H3'1       -1.1450   -4.7440   -3.8730 hc        1 0A3      0.032033
     32 H3'2       -1.7360   -4.7820   -2.1610 hc        1 0A3      0.032033
     33 H3'3       -2.4220   -3.5700   -3.3320 hc        1 0A3      0.032033
     34 H5         -0.0160   -0.2320   -1.3200 hn        1 0A3      0.479800
     35 H7          2.5710    0.7580   -2.4350 hx        1 0A3      0.102700
     36 H10         4.2170   -0.9300   -0.7590 hn        1 0A3      0.482800
     37 H181        4.7370    3.9200    0.8030 h1        1 0A3      0.075033
     38 H182        3.3410    4.0160   -0.4020 h1        1 0A3      0.075033
     39 H183        3.4490    2.5810    0.7610 h1        1 0A3      0.075033
     40 H15         8.4090    1.2800    0.1660 h4        1 0A3      0.199000
     41 HA1         8.7110   -3.8870   -0.3930 hn        1 0A3      0.400800
     42 HB2         7.7920   -3.8550   -1.7710 hn        1 0A3      0.400800
     43 H102        4.0090   -1.5750   -2.3110 hn        1 0A3      0.482800
@<TRIPOS>BOND
     1    1   13 1   
     2    2    3 1   
     3    2   11 1   
     4    3    4 1   
     5    3   28 1   
     6    3   29 1   
     7    4    5 1   
     8    4    6 2   
     9    5   31 1   
    10    5   32 1   
    11    5   33 1   
    12    6    7 1   
    13    6   10 1   
    14    7    8 1   
    15    7    9 1   
    16   10   11 1   
    17   10   34 1   
    18   11   12 1   
    19   11   30 1   
    20   12   13 1   
    21   12   15 1   
    22   12   35 1   
    23   13   14 1   
    24   15   16 1   
    25   15   36 1   
    26   15   43 1   
    27   16   17 2   
    28   16   18 1   
    29   18   19 2   
    30   18   22 1   
    31   19   20 1   
    32   20   21 1   
    33   21   37 1   
    34   21   38 1   
    35   21   39 1   
    36   22   23 2   
    37   22   27 1   
    38   23   24 1   
    39   23   40 1   
    40   24   25 1   
    41   25   26 1   
    42   25   27 2   
    43   26   41 1   
    44   26   42 1   
@<TRIPOS>SUBSTRUCTURE
     1 0A3         1 TEMP              0 ****  ****    0 ROOT
