@<TRIPOS>MOLECULE
0A3
   43    44     1     0     0
SMALL
bcc


@<TRIPOS>ATOM
      1 OG          2.0590    0.2780    0.6460 o         1 0A3     -0.765800
      2 S1          1.9900   -3.1210   -2.0340 ss        1 0A3     -0.562200
      3 C2          0.5500   -3.5580   -2.9990 c3        1 0A3      0.126900
      4 C3         -0.6650   -2.7740   -2.6890 c2        1 0A3     -0.270400
      5 C3'        -1.9090   -3.4240   -3.1710 c3        1 0A3     -0.024900
      6 C4         -0.7010   -1.5960   -2.0090 ce        1 0A3      0.076800
      7 C4'        -2.0440   -0.9040   -1.6330 c         1 0A3      0.927800
      8 O4A        -2.2940   -0.7940   -0.4070 o         1 0A3     -0.805300
      9 O4B        -2.7650   -0.5020   -2.5820 o         1 0A3     -0.805300
     10 N5          0.4290   -0.8770   -1.5940 nu        1 0A3     -0.701000
     11 C6          1.6930   -1.2880   -2.0690 c3        1 0A3      0.367600
     12 C7          2.8980   -0.5810   -1.4350 c3        1 0A3     -0.043500
     13 C8          2.8820   -0.5210    0.1610 c         1 0A3      0.935600
     14 O9          3.7630   -1.2040    0.7470 o         1 0A3     -0.765800
     15 N10         4.1860   -1.2170   -1.8930 ny        1 0A3     -0.659800
     16 C11         5.1230   -0.2250   -2.4660 c         1 0A3      0.477800
     17 O12         5.2800   -0.1850   -3.6800 o         1 0A3     -0.451100
     18 C13         5.8280    0.6360   -1.4530 ce        1 0A3      0.279300
     19 N16         5.4040    1.7950   -1.0140 n2        1 0A3     -0.332200
     20 O17         4.3030    2.2530   -1.5600 os        1 0A3     -0.202300
     21 C18         3.4330    2.9990   -0.6580 c3        1 0A3      0.113700
     22 C14         7.0720    0.0400   -0.9510 cc        1 0A3      0.329000
     23 C15         8.0080    0.6860   -0.1540 cd        1 0A3     -0.208400
     24 S16         9.2580   -0.3390    0.2500 ss        1 0A3     -0.083300
     25 C17         8.5050   -1.6480   -0.6380 cd        1 0A3      0.615300
     26 N18         9.1660   -2.8730   -0.7600 nv        1 0A3     -0.884500
     27 N19         7.3470   -1.3000   -1.2290 nc        1 0A3     -0.706000
     28 H2C1        0.3790   -4.6410   -2.7750 h1        1 0A3      0.051700
     29 H2C2        0.8130   -3.4580   -4.0820 h1        1 0A3      0.051700
     30 H6          1.7070   -1.0930   -3.1850 h2        1 0A3      0.051700
     31 H3'1       -2.7680   -2.7050   -3.1590 hc        1 0A3      0.032367
     32 H3'2       -1.7710   -3.7960   -4.2170 hc        1 0A3      0.032367
     33 H3'3       -2.1640   -4.3000   -2.5220 hc        1 0A3      0.032367
     34 H5          0.3790   -0.5140   -0.6560 hn        1 0A3      0.472800
     35 H7          2.8800    0.4950   -1.7830 hx        1 0A3      0.102700
     36 H10         4.6050   -1.6390   -1.0260 hn        1 0A3      0.484300
     37 H181        2.6890    3.4280   -1.3750 h1        1 0A3      0.077367
     38 H182        3.9980    3.8000   -0.1280 h1        1 0A3      0.077367
     39 H183        2.9470    2.2820    0.0560 h1        1 0A3      0.077367
     40 H15         7.9330    1.7190    0.1870 h4        1 0A3      0.200000
     41 HA1         8.7140   -3.5150   -1.3830 hn        1 0A3      0.397300
     42 HB2         9.3400   -3.2920    0.1320 hn        1 0A3      0.397300
     43 H102        3.9810   -1.9740   -2.5690 hn        1 0A3      0.484300
@<TRIPOS>BOND
     1    1   13 1   
     2    2    3 1   
     3    2   11 1   
     4    3    4 1   
     5    3   28 1   
     6    3   29 1   
     7    4    5 1   
     8    4    6 2   
     9    5   31 1   
    10    5   32 1   
    11    5   33 1   
    12    6    7 1   
    13    6   10 1   
    14    7    8 1   
    15    7    9 1   
    16   10   11 1   
    17   10   34 1   
    18   11   12 1   
    19   11   30 1   
    20   12   13 1   
    21   12   15 1   
    22   12   35 1   
    23   13   14 1   
    24   15   16 1   
    25   15   36 1   
    26   15   43 1   
    27   16   17 2   
    28   16   18 1   
    29   18   19 2   
    30   18   22 1   
    31   19   20 1   
    32   20   21 1   
    33   21   37 1   
    34   21   38 1   
    35   21   39 1   
    36   22   23 2   
    37   22   27 1   
    38   23   24 1   
    39   23   40 1   
    40   24   25 1   
    41   25   26 1   
    42   25   27 2   
    43   26   41 1   
    44   26   42 1   
@<TRIPOS>SUBSTRUCTURE
     1 0A3         1 TEMP              0 ****  ****    0 ROOT
