@<TRIPOS>MOLECULE
0A3
   42    43     1     0     0
SMALL
bcc


@<TRIPOS>ATOM
      1 OG          1.7370   -3.4820    1.5250 o         1 0A3     -0.820300
      2 S1          1.2590    0.6570    1.1220 ss        1 0A3     -0.531200
      3 C2          2.5610    1.7120    0.5260 c3        1 0A3      0.109900
      4 C3          3.8340    1.0330    0.2080 c2        1 0A3     -0.304400
      5 C3'         4.9780    1.9650    0.0760 c3        1 0A3     -0.008900
      6 C4          3.9940   -0.3160    0.0750 ce        1 0A3      0.109800
      7 C4'         5.4090   -0.9160   -0.1190 c         1 0A3      0.921800
      8 O4A         5.9780   -0.7250   -1.2300 o         1 0A3     -0.827300
      9 O4B         5.9170   -1.5420    0.8480 o         1 0A3     -0.827300
     10 N5          2.9540   -1.2440    0.0710 nh        1 0A3     -0.711000
     11 C6          1.6140   -0.7920   -0.0030 c3        1 0A3      0.376600
     12 C7          0.5330   -1.8850    0.1840 c3        1 0A3     -0.036300
     13 C8          0.7260   -2.7360    1.4990 c         1 0A3      0.925600
     14 O9         -0.1560   -2.6710    2.3990 o         1 0A3     -0.820300
     15 N10        -0.8040   -1.3410    0.1200 n         1 0A3     -0.506900
     16 C11        -1.3950   -0.8440   -0.9970 c         1 0A3      0.557800
     17 O12        -0.9210   -0.8890   -2.1530 o         1 0A3     -0.628100
     18 C13        -2.7620   -0.2000   -0.7780 ce        1 0A3      0.305300
     19 N16        -3.9020   -0.8340   -0.7040 n2        1 0A3     -0.423200
     20 O17        -3.8260   -2.1520   -0.8280 os        1 0A3     -0.171300
     21 C18        -5.0500   -2.8360   -0.5010 c3        1 0A3      0.135700
     22 C14        -2.7090    1.2660   -0.6660 cc        1 0A3      0.305000
     23 C15        -1.5940    1.9420   -0.1650 cd        1 0A3     -0.221400
     24 S16        -1.8390    3.5790   -0.1670 ss        1 0A3     -0.039300
     25 C17        -3.4230    3.3720   -0.8460 cd        1 0A3      0.483300
     26 N18        -4.2150    4.5180   -1.0990 nh        1 0A3     -0.866500
     27 N19        -3.7600    2.0850   -1.0590 nc        1 0A3     -0.637000
     28 H2C1        2.1840    2.2610   -0.3750 h1        1 0A3      0.031200
     29 H2C2        2.7240    2.4620    1.3420 h1        1 0A3      0.031200
     30 H6          1.4640   -0.3140   -1.0160 h2        1 0A3      0.058700
     31 H3'1        5.2750    2.3660    1.0790 hc        1 0A3      0.017367
     32 H3'2        5.8630    1.4570   -0.3830 hc        1 0A3      0.017367
     33 H3'3        4.6970    2.8370   -0.5680 hc        1 0A3      0.017367
     34 H5          3.1190   -2.0910    0.5920 hn        1 0A3      0.475800
     35 H7          0.6650   -2.6030   -0.6820 h1        1 0A3      0.073700
     36 H10        -1.2760   -1.3070    1.0020 hn        1 0A3      0.344500
     37 H181       -5.3360   -2.6570    0.5630 h1        1 0A3      0.036367
     38 H182       -5.8750   -2.5280   -1.1850 h1        1 0A3      0.036367
     39 H183       -4.7730   -3.9080   -0.6630 h1        1 0A3      0.036367
     40 H15        -0.6540    1.4590    0.1900 h4        1 0A3      0.258000
     41 HA1        -4.2900    4.6660   -2.0910 hn        1 0A3      0.357300
     42 HB2        -5.1410    4.3920   -0.7280 hn        1 0A3      0.357300
@<TRIPOS>BOND
     1    1   13 1   
     2    2    3 1   
     3    2   11 1   
     4    3    4 1   
     5    3   28 1   
     6    3   29 1   
     7    4    5 1   
     8    4    6 2   
     9    5   31 1   
    10    5   32 1   
    11    5   33 1   
    12    6    7 1   
    13    6   10 1   
    14    7    8 1   
    15    7    9 1   
    16   10   11 1   
    17   10   34 1   
    18   11   12 1   
    19   11   30 1   
    20   12   13 1   
    21   12   15 1   
    22   12   35 1   
    23   13   14 1   
    24   15   16 1   
    25   15   36 1   
    26   16   17 2   
    27   16   18 1   
    28   18   19 2   
    29   18   22 1   
    30   19   20 1   
    31   20   21 1   
    32   21   37 1   
    33   21   38 1   
    34   21   39 1   
    35   22   23 2   
    36   22   27 1   
    37   23   24 1   
    38   23   40 1   
    39   24   25 1   
    40   25   26 1   
    41   25   27 2   
    42   26   41 1   
    43   26   42 1   
@<TRIPOS>SUBSTRUCTURE
     1 0A3         1 TEMP              0 ****  ****    0 ROOT
