@<TRIPOS>MOLECULE
0A3
   44    43     1     0     0
SMALL
bcc


@<TRIPOS>ATOM
      1 OG          1.5420   -1.2200    3.8300 o         1 0A3     -0.455500
      2 S1          1.3620   -3.4400   -0.0510 sh        1 0A3     -0.482900
      3 C2          0.1690   -3.5210   -1.3840 c3        1 0A3      0.078900
      4 C3          0.7840   -3.7080   -2.7150 c2        1 0A3     -0.164400
      5 C3'         0.8870   -5.1220   -3.1590 c3        1 0A3     -0.059900
      6 C4          1.1940   -2.6980   -3.5180 ce        1 0A3      0.007800
      7 C4'         1.8090   -2.9110   -4.9330 c         1 0A3      0.920800
      8 O4A         1.2400   -2.3290   -5.8830 o         1 0A3     -0.792800
      9 O4B         2.8680   -3.5930   -4.9770 o         1 0A3     -0.792800
     10 N5          1.0990   -1.3200   -3.1820 nh        1 0A3     -0.582800
     11 C6          1.7470   -0.8200   -2.1090 c2        1 0A3      0.191000
     12 C7          1.9230    0.5240   -1.8580 c2        1 0A3     -0.385000
     13 C8          1.8430   -0.5680    2.8900 c1        1 0A3      0.913000
     14 O9          2.1520    0.1070    1.9530 o         1 0A3     -0.455500
     15 N10         2.6900    0.9620   -0.7150 n4        1 0A3     -0.464600
     16 C11         3.8110    1.8730   -1.1320 c         1 0A3      0.465800
     17 O12         3.5190    2.9590   -1.6100 o         1 0A3     -0.423100
     18 C13         5.2020    1.3630   -0.8970 ce        1 0A3      0.286300
     19 N16         6.0420    1.8800   -0.0370 n2        1 0A3     -0.345200
     20 O17         5.5910    2.8740    0.6930 os        1 0A3     -0.196300
     21 C18         6.5880    3.4780    1.5600 c3        1 0A3      0.134700
     22 C14         5.6120    0.2510   -1.7660 cc        1 0A3      0.303000
     23 C15         6.8310    0.1880   -2.4230 cd        1 0A3     -0.224400
     24 S16         6.9350   -1.1980   -3.3440 ss        1 0A3     -0.097300
     25 C17         5.3240   -1.7000   -2.8270 cd        1 0A3      0.688300
     26 N18         4.8310   -2.9360   -3.1720 nh        1 0A3     -0.871500
     27 N19         4.7410   -0.8130   -1.9850 nc        1 0A3     -0.771000
     28 H2C1       -0.5430   -4.3550   -1.1680 h1        1 0A3      0.077700
     29 H2C2       -0.3910   -2.5560   -1.3020 h1        1 0A3      0.077700
     30 H6          2.1150   -1.5930   -1.3820 h4        1 0A3      0.188000
     31 H3'1        1.5610   -5.2240   -4.0490 hc        1 0A3      0.054367
     32 H3'2       -0.1280   -5.5030   -3.4350 hc        1 0A3      0.054367
     33 H3'3        1.2900   -5.7590   -2.3330 hc        1 0A3      0.054367
     34 H5          0.8740   -0.7280   -3.9610 hn        1 0A3      0.467800
     35 H7          1.5740    1.3420   -2.5030 hx        1 0A3      0.186000
     36 H10         2.0670    1.4760   -0.0770 hn        1 0A3      0.454300
     37 H181        5.9880    4.2680    2.0760 h1        1 0A3      0.063033
     38 H182        6.9830    2.7270    2.2840 h1        1 0A3      0.063033
     39 H183        7.4110    3.9240    0.9540 h1        1 0A3      0.063033
     40 H15         7.6210    0.9350   -2.3610 h4        1 0A3      0.190000
     41 HA1         2.1390   -4.4670   -0.3710 hs        1 0A3      0.243800
     42 HB2         3.8440   -3.0830   -3.0350 hn        1 0A3      0.442800
     43 H102        3.0730    0.1520   -0.2070 hn        1 0A3      0.454300
     44 H184        5.1090   -3.2640   -4.0800 hn        1 0A3      0.442800
@<TRIPOS>BOND
     1    1   13 2   
     2    2    3 1   
     3    2   41 1   
     4    3    4 1   
     5    3   28 1   
     6    3   29 1   
     7    4    5 1   
     8    4    6 2   
     9    5   31 1   
    10    5   32 1   
    11    5   33 1   
    12    6    7 1   
    13    6   10 1   
    14    7    8 1   
    15    7    9 1   
    16   10   11 1   
    17   10   34 1   
    18   11   12 2   
    19   11   30 1   
    20   12   15 1   
    21   12   35 1   
    22   13   14 2   
    23   15   16 1   
    24   15   36 1   
    25   15   43 1   
    26   16   17 2   
    27   16   18 1   
    28   18   19 2   
    29   18   22 1   
    30   19   20 1   
    31   20   21 1   
    32   21   37 1   
    33   21   38 1   
    34   21   39 1   
    35   22   23 2   
    36   22   27 1   
    37   23   24 1   
    38   23   40 1   
    39   24   25 1   
    40   25   26 1   
    41   25   27 2   
    42   26   42 1   
    43   26   44 1   
@<TRIPOS>SUBSTRUCTURE
     1 0A3         1 TEMP              0 ****  ****    0 ROOT
