@<TRIPOS>MOLECULE
0A4
   35    36     1     0     0
SMALL
bcc


@<TRIPOS>ATOM
      1 OG         -0.1790    4.4990   -0.3520 o         1 0A4     -0.834800
      2 S1         -3.1150    1.8780    0.0580 ss        1 0A4     -0.456200
      3 C2         -3.9610    0.3230    0.1300 c3        1 0A4      0.051900
      4 C3         -3.0360   -0.8280    0.0240 ce        1 0A4     -0.191800
      5 C3'        -3.2050   -1.8250   -0.8490 c2        1 0A4     -0.199000
      6 C4         -1.8950   -0.8090    0.9740 ce        1 0A4      0.415600
      7 C4'        -1.5160   -2.2080    1.5210 c         1 0A4      0.847300
      8 O4A        -0.6340   -2.8430    0.8780 o         1 0A4     -0.826300
      9 O4B        -2.1320   -2.6380    2.5300 o         1 0A4     -0.826300
     10 N5         -1.2420    0.2370    1.3390 n2        1 0A4     -0.594900
     11 C6         -1.4680    1.5490    0.8300 c3        1 0A4      0.247600
     12 C7         -0.4050    2.0950   -0.1840 c3        1 0A4     -0.026300
     13 C8          0.0950    3.4900    0.3510 c         1 0A4      0.920600
     14 O9          0.7300    3.5220    1.4400 o         1 0A4     -0.834800
     15 N10         0.7240    1.2160   -0.3870 n         1 0A4     -0.490900
     16 C11         0.6880    0.1760   -1.2910 c         1 0A4      0.658100
     17 O12         0.0650    0.2310   -2.3750 o         1 0A4     -0.647100
     18 C13         1.4800   -1.0910   -0.9720 c3        1 0A4     -0.136100
     19 C14         2.8150   -0.8620   -0.4100 cc        1 0A4     -0.027400
     20 C15         3.1250   -0.6300    0.9130 cd        1 0A4     -0.154000
     21 C16         4.5340   -0.4770    1.1160 cd        1 0A4     -0.146000
     22 C17         5.2400   -0.6070   -0.0570 cc        1 0A4     -0.193100
     23 S19         4.2230   -0.8920   -1.3570 ss        1 0A4     -0.078800
     24 H2C1       -4.5260    0.2550    1.0930 h1        1 0A4      0.050200
     25 H2C2       -4.7020    0.3340   -0.7070 h1        1 0A4      0.050200
     26 H6         -1.4630    2.2390    1.7230 h2        1 0A4      0.108700
     27 H3'1       -4.0390   -1.8490   -1.5600 ha        1 0A4      0.111000
     28 H3'2       -2.4970   -2.6660   -0.8930 ha        1 0A4      0.111000
     29 H7         -0.9170    2.2560   -1.1770 h1        1 0A4      0.094700
     30 H10         1.2660    1.0750    0.4410 hn        1 0A4      0.310500
     31 H131        0.8420   -1.6860   -0.2390 hc        1 0A4      0.110700
     32 H132        1.5520   -1.6920   -1.9170 hc        1 0A4      0.110700
     33 H151        2.3870   -0.5680    1.7200 ha        1 0A4      0.184000
     34 H16         4.9690   -0.2750    2.0960 ha        1 0A4      0.136000
     35 H17         6.3170   -0.5280   -0.1650 h4        1 0A4      0.143000
@<TRIPOS>BOND
     1    1   13 1   
     2    2    3 1   
     3    2   11 1   
     4    3    4 1   
     5    3   24 1   
     6    3   25 1   
     7    4    5 2   
     8    4    6 1   
     9    5   27 1   
    10    5   28 1   
    11    6    7 1   
    12    6   10 2   
    13    7    8 1   
    14    7    9 1   
    15   10   11 1   
    16   11   12 1   
    17   11   26 1   
    18   12   13 1   
    19   12   15 1   
    20   12   29 1   
    21   13   14 1   
    22   15   16 1   
    23   15   30 1   
    24   16   17 2   
    25   16   18 1   
    26   18   19 1   
    27   18   31 1   
    28   18   32 1   
    29   19   20 2   
    30   19   23 1   
    31   20   21 1   
    32   20   33 1   
    33   21   22 2   
    34   21   34 1   
    35   22   23 1   
    36   22   35 1   
@<TRIPOS>SUBSTRUCTURE
     1 0A4         1 TEMP              0 ****  ****    0 ROOT
