@<TRIPOS>MOLECULE
0A4
   36    37     1     0     0
SMALL
bcc


@<TRIPOS>ATOM
      1 OG         -0.0200   -2.2310    0.8670 o         1 0A4     -0.777300
      2 S1          0.2790   -0.1180   -2.5590 ss        1 0A4     -0.446200
      3 C2          0.8760   -0.3070   -4.2160 c3        1 0A4      0.042900
      4 C3          2.3140   -0.6630   -4.2400 ce        1 0A4     -0.226800
      5 C3'         3.1920   -0.0410   -5.0370 c2        1 0A4     -0.176000
      6 C4          2.7130   -1.7980   -3.3760 ce        1 0A4      0.406600
      7 C4'         4.1940   -2.2570   -3.5210 c         1 0A4      0.854300
      8 O4A         4.8950   -1.7770   -2.5740 o         1 0A4     -0.803800
      9 O4B         4.5850   -2.9370   -4.4850 o         1 0A4     -0.803800
     10 N5          2.0390   -2.2830   -2.3870 n2        1 0A4     -0.611900
     11 C6          1.0520   -1.5370   -1.6850 c3        1 0A4      0.251600
     12 C7          1.6090   -0.9380   -0.3690 c3        1 0A4     -0.027500
     13 C8          1.1620   -1.8370    0.8780 c         1 0A4      0.939600
     14 O9          2.0380   -2.0090    1.7670 o         1 0A4     -0.777300
     15 N10         3.1000   -0.7430   -0.3340 ny        1 0A4     -0.668800
     16 C11         3.5260    0.6690   -0.5340 c         1 0A4      0.553100
     17 O12         3.0950    1.5160    0.2450 o         1 0A4     -0.475100
     18 C13         4.4760    0.8980   -1.6830 c3        1 0A4     -0.096100
     19 C14         4.9550    2.2840   -1.7620 cc        1 0A4     -0.110400
     20 C15         6.1060    2.7690   -1.1650 cd        1 0A4     -0.141000
     21 C16         6.3190    4.1480   -1.4690 cd        1 0A4     -0.160000
     22 C17         5.3250    4.6460   -2.2860 cc        1 0A4     -0.181100
     23 S19         4.1910    3.4860   -2.6560 ss        1 0A4      0.052200
     24 H2C1        0.2860   -1.1010   -4.7390 h1        1 0A4      0.072200
     25 H2C2        0.6770    0.6660   -4.7290 h1        1 0A4      0.072200
     26 H6          0.1950   -2.2170   -1.4000 h2        1 0A4      0.152700
     27 H3'1        4.2520   -0.3370   -5.0740 ha        1 0A4      0.125000
     28 H3'2        2.8970    0.7780   -5.7050 ha        1 0A4      0.125000
     29 H7          1.1230    0.0680   -0.2020 hx        1 0A4      0.105700
     30 H10         3.3790   -1.0520    0.6270 hn        1 0A4      0.495800
     31 H131        3.9550    0.5850   -2.6390 hc        1 0A4      0.135700
     32 H132        5.3530    0.1850   -1.5860 hc        1 0A4      0.135700
     33 H151        6.7800    2.1810   -0.5410 ha        1 0A4      0.155000
     34 H16         7.1700    4.7170   -1.0930 ha        1 0A4      0.147000
     35 H17         5.2670    5.6680   -2.6560 h4        1 0A4      0.164000
     36 H102        3.5950   -1.3530   -1.0210 hn        1 0A4      0.495800
@<TRIPOS>BOND
     1    1   13 1   
     2    2    3 1   
     3    2   11 1   
     4    3    4 1   
     5    3   24 1   
     6    3   25 1   
     7    4    5 2   
     8    4    6 1   
     9    5   27 1   
    10    5   28 1   
    11    6    7 1   
    12    6   10 2   
    13    7    8 1   
    14    7    9 1   
    15   10   11 1   
    16   11   12 1   
    17   11   26 1   
    18   12   13 1   
    19   12   15 1   
    20   12   29 1   
    21   13   14 1   
    22   15   16 1   
    23   15   30 1   
    24   15   36 1   
    25   16   17 2   
    26   16   18 1   
    27   18   19 1   
    28   18   31 1   
    29   18   32 1   
    30   19   20 2   
    31   19   23 1   
    32   20   21 1   
    33   20   33 1   
    34   21   22 2   
    35   21   34 1   
    36   22   23 1   
    37   22   35 1   
@<TRIPOS>SUBSTRUCTURE
     1 0A4         1 TEMP              0 ****  ****    0 ROOT
