@<TRIPOS>MOLECULE
0A4
   35    31     1     0     0
SMALL
bcc


@<TRIPOS>ATOM
      1 OG         -2.4990    0.3310    1.2140 o         1 0A4     -0.570000
      2 S1         -0.6700    3.2460    1.0710 ss        1 0A4     -0.104000
      3 C2         -0.0100    4.8660    0.7560 c3        1 0A4     -0.232000
      4 C3          0.0810    4.8950    0.4310 c2        1 0A4     -0.096000
      5 C3'        -0.4370    5.8250   -0.4110 c1        1 0A4     -0.215000
      6 C4          1.4510    3.5560   -0.1170 c2        1 0A4     -0.025000
      7 C4'         2.2670    3.7790   -1.3720 c2        1 0A4      0.387000
      8 O4A         1.6930    3.8720   -2.4880 o         1 0A4     -0.564500
      9 O4B         3.5210    3.8670   -1.2990 o         1 0A4     -0.564500
     10 N5          1.0530    1.9180    0.3950 n1        1 0A4     -0.181000
     11 C6          0.3340    1.8070    0.2860 c2        1 0A4     -0.091000
     12 C7         -0.2280    0.1040    0.9650 c3        1 0A4     -0.053000
     13 C8         -1.3620    0.2680    1.7520 c2        1 0A4      0.340000
     14 O9         -1.2500    0.3790    3.0010 o         1 0A4     -0.570000
     15 N10        -0.4950   -0.6850   -0.0170 n         1 0A4     -0.301000
     16 C11        -0.4080   -2.0910    0.1580 c2        1 0A4      0.304000
     17 O12        -0.4040   -2.5640    1.2770 o         1 0A4     -0.427000
     18 C13        -0.3510   -3.0020   -1.0490 c3        1 0A4     -0.167000
     19 C14        -0.2810   -4.4420   -0.5910 c2        1 0A4     -0.341000
     20 C15         0.7200   -5.4150   -0.9870 c1        1 0A4     -0.188000
     21 C16         0.3300   -6.8220   -0.3510 c1        1 0A4     -0.174000
     22 C17        -0.8940   -6.6550    0.4090 c1        1 0A4     -0.502000
     23 S19        -1.3290   -5.1700    0.2940 ss        1 0A4      0.675000
     24 H2C1       -0.5120    5.6830    0.9930 h1        1 0A4      0.113000
     25 H2C2        0.7580    4.9450    1.3730 h1        1 0A4      0.113000
     26 H6          0.1310    1.7140   -0.6690 h4        1 0A4      0.146000
     27 H3'1       -0.1390    5.8610   -1.3420 DU        1 0A4      0.140250
     28 H3'2       -1.1080    6.4590   -0.0870 ha        1 0A4      0.074000
     29 H7          0.4900   -0.2830    1.5070 h1        1 0A4      0.126000
     30 H10        -0.7080   -0.3400   -0.8360 hn        1 0A4      0.229000
     31 H131       -1.1530   -2.8720   -1.5940 hc        1 0A4      0.149500
     32 H132        0.4420   -2.7900   -1.5800 hc        1 0A4      0.149500
     33 H151        1.5000   -5.2370   -1.5470 DU        1 0A4      0.140250
     34 H16         0.8290   -7.6540   -0.4540 DU        1 0A4      0.140250
     35 H17        -1.3620   -7.3530    0.9050 DU        1 0A4      0.140250
@<TRIPOS>BOND
     1    1   13 1   
     2    2    3 1   
     3    2   11 1   
     4    3    4 1   
     5    3   24 1   
     6    3   25 1   
     7    4    5 1   
     8    4    6 1   
     9    5   28 1   
    10    6    7 1   
    11    6   10 1   
    12    7    8 1   
    13    7    9 1   
    14   11   12 1   
    15   11   26 1   
    16   12   13 1   
    17   12   15 1   
    18   12   29 1   
    19   13   14 1   
    20   15   16 1   
    21   15   30 1   
    22   16   17 1   
    23   16   18 1   
    24   18   19 1   
    25   18   31 1   
    26   18   32 1   
    27   19   20 1   
    28   19   23 1   
    29   20   21 1   
    30   21   22 1   
    31   22   23 1   
@<TRIPOS>SUBSTRUCTURE
     1 0A4         1 TEMP              0 ****  ****    0 ROOT
