@<TRIPOS>MOLECULE
0A4
   36    37     1     0     0
SMALL
bcc


@<TRIPOS>ATOM
      1 OG          1.4140   -0.9670    1.1550 o         1 0A4     -0.793300
      2 S1         -0.2190   -1.0850   -2.2800 ss        1 0A4     -0.398200
      3 C2         -0.1890   -1.4900   -4.0060 c3        1 0A4      0.038900
      4 C3          1.1850   -1.4840   -4.5590 ce        1 0A4     -0.229800
      5 C3'         1.5040   -0.8330   -5.6840 c2        1 0A4     -0.165000
      6 C4          2.1740   -2.2940   -3.8120 ce        1 0A4      0.405600
      7 C4'         3.5170   -2.5330   -4.5580 c         1 0A4      0.854300
      8 O4A         4.3450   -1.6170   -4.2420 o         1 0A4     -0.798800
      9 O4B         3.6830   -3.4630   -5.3640 o         1 0A4     -0.798800
     10 N5          2.1180   -2.5850   -2.5510 n2        1 0A4     -0.614900
     11 C6          1.3510   -1.7770   -1.6560 c3        1 0A4      0.239600
     12 C7          2.1700   -0.5710   -1.0990 c3        1 0A4     -0.027500
     13 C8          2.4300   -0.7980    0.4530 c         1 0A4      0.928600
     14 O9          3.6310   -0.7600    0.8390 o         1 0A4     -0.793300
     15 N10         3.4770   -0.3300   -1.8080 n4        1 0A4     -0.649800
     16 C11         3.9770    1.0600   -1.6040 c         1 0A4      0.575100
     17 O12         3.3320    1.9760   -2.1040 o         1 0A4     -0.477100
     18 C13         5.2460    1.1640   -0.7950 c3        1 0A4     -0.099100
     19 C14         5.7150    2.5460   -0.6330 cc        1 0A4     -0.114400
     20 C15         5.3460    3.3990    0.3910 cd        1 0A4     -0.128000
     21 C16         6.0080    4.6620    0.2920 cd        1 0A4     -0.161000
     22 C17         6.8510    4.7080   -0.7970 cc        1 0A4     -0.173100
     23 S19         6.8300    3.2830   -1.6580 ss        1 0A4      0.027200
     24 H2C1       -0.6470   -2.5010   -4.1540 h1        1 0A4      0.069700
     25 H2C2       -0.8440   -0.7370   -4.5100 h1        1 0A4      0.069700
     26 H6          1.0400   -2.4050   -0.7710 h2        1 0A4      0.140700
     27 H3'1        2.5270   -0.8490   -6.0900 ha        1 0A4      0.124000
     28 H3'2        0.7670   -0.2540   -6.2540 ha        1 0A4      0.124000
     29 H7          1.5430    0.3600   -1.2130 hx        1 0A4      0.109700
     30 H10         4.1510   -0.9970   -1.3970 hn        1 0A4      0.485300
     31 H131        5.0290    0.7030    0.2240 hc        1 0A4      0.131200
     32 H132        6.0370    0.5310   -1.2860 hc        1 0A4      0.131200
     33 H151        4.6380    3.1490    1.1850 ha        1 0A4      0.168000
     34 H16         5.8500    5.4740    1.0040 ha        1 0A4      0.149000
     35 H17         7.4650    5.5600   -1.0840 h4        1 0A4      0.164000
     36 H102        3.4290   -0.5210   -2.8340 hn        1 0A4      0.485300
@<TRIPOS>BOND
     1    1   13 1   
     2    2    3 1   
     3    2   11 1   
     4    3    4 1   
     5    3   24 1   
     6    3   25 1   
     7    4    5 2   
     8    4    6 1   
     9    5   27 1   
    10    5   28 1   
    11    6    7 1   
    12    6   10 2   
    13    7    8 1   
    14    7    9 1   
    15   10   11 1   
    16   11   12 1   
    17   11   26 1   
    18   12   13 1   
    19   12   15 1   
    20   12   29 1   
    21   13   14 1   
    22   15   16 1   
    23   15   30 1   
    24   15   36 1   
    25   16   17 2   
    26   16   18 1   
    27   18   19 1   
    28   18   31 1   
    29   18   32 1   
    30   19   20 2   
    31   19   23 1   
    32   20   21 1   
    33   20   33 1   
    34   21   22 2   
    35   21   34 1   
    36   22   23 1   
    37   22   35 1   
@<TRIPOS>SUBSTRUCTURE
     1 0A4         1 TEMP              0 ****  ****    0 ROOT
