@<TRIPOS>MOLECULE
0A4
   36    37     1     0     0
SMALL
bcc


@<TRIPOS>ATOM
      1 OG          1.5580   -1.1210    1.1720 o         1 0A4     -0.793300
      2 S1         -0.1890   -1.1700   -2.2090 ss        1 0A4     -0.398200
      3 C2         -0.2090   -1.5170   -3.9470 c3        1 0A4      0.038900
      4 C3          1.1450   -1.4560   -4.5460 ce        1 0A4     -0.229800
      5 C3'         1.4080   -0.7610   -5.6580 c2        1 0A4     -0.165000
      6 C4          2.1800   -2.2620   -3.8600 ce        1 0A4      0.405600
      7 C4'         3.5020   -2.4400   -4.6580 c         1 0A4      0.854300
      8 O4A         4.3160   -1.5130   -4.3400 o         1 0A4     -0.798800
      9 O4B         3.6640   -3.3380   -5.5000 o         1 0A4     -0.798800
     10 N5          2.1760   -2.5950   -2.6080 n2        1 0A4     -0.614900
     11 C6          1.4190   -1.8390   -1.6610 c3        1 0A4      0.239600
     12 C7          2.2250   -0.6290   -1.0920 c3        1 0A4     -0.027500
     13 C8          2.5450   -0.9000    0.4420 c         1 0A4      0.928600
     14 O9          3.7570   -0.8420    0.7880 o         1 0A4     -0.793300
     15 N10         3.5000   -0.3300   -1.8360 n4        1 0A4     -0.649800
     16 C11         3.9710    1.0650   -1.6020 c         1 0A4      0.575100
     17 O12         3.2850    1.9800   -2.0480 o         1 0A4     -0.477100
     18 C13         5.2650    1.1770   -0.8350 c3        1 0A4     -0.099100
     19 C14         5.7040    2.5640   -0.6420 cc        1 0A4     -0.114400
     20 C15         5.3490    3.3740    0.4210 cd        1 0A4     -0.128000
     21 C16         5.9750    4.6560    0.3430 cd        1 0A4     -0.161000
     22 C17         6.7780    4.7610   -0.7730 cc        1 0A4     -0.173100
     23 S19         6.7630    3.3630   -1.6790 ss        1 0A4      0.027200
     24 H2C1       -0.6450   -2.5350   -4.1130 h1        1 0A4      0.069700
     25 H2C2       -0.9000   -0.7660   -4.4040 h1        1 0A4      0.069700
     26 H6          1.1550   -2.5030   -0.7880 h2        1 0A4      0.140700
     27 H3'1        2.4160   -0.7360   -6.1000 ha        1 0A4      0.124000
     28 H3'2        0.6360   -0.1840   -6.1840 ha        1 0A4      0.124000
     29 H7          1.5710    0.2870   -1.1530 hx        1 0A4      0.109700
     30 H10         4.2050   -0.9920   -1.4710 hn        1 0A4      0.485300
     31 H131        5.0960    0.6770    0.1750 hc        1 0A4      0.131200
     32 H132        6.0540    0.5820   -1.3740 hc        1 0A4      0.131200
     33 H151        4.6750    3.0800    1.2300 ha        1 0A4      0.168000
     34 H16         5.8210    5.4410    1.0850 ha        1 0A4      0.149000
     35 H17         7.3600    5.6370   -1.0510 h4        1 0A4      0.164000
     36 H102        3.4210   -0.4880   -2.8660 hn        1 0A4      0.485300
@<TRIPOS>BOND
     1    1   13 1   
     2    2    3 1   
     3    2   11 1   
     4    3    4 1   
     5    3   24 1   
     6    3   25 1   
     7    4    5 2   
     8    4    6 1   
     9    5   27 1   
    10    5   28 1   
    11    6    7 1   
    12    6   10 2   
    13    7    8 1   
    14    7    9 1   
    15   10   11 1   
    16   11   12 1   
    17   11   26 1   
    18   12   13 1   
    19   12   15 1   
    20   12   29 1   
    21   13   14 1   
    22   15   16 1   
    23   15   30 1   
    24   15   36 1   
    25   16   17 2   
    26   16   18 1   
    27   18   19 1   
    28   18   31 1   
    29   18   32 1   
    30   19   20 2   
    31   19   23 1   
    32   20   21 1   
    33   20   33 1   
    34   21   22 2   
    35   21   34 1   
    36   22   23 1   
    37   22   35 1   
@<TRIPOS>SUBSTRUCTURE
     1 0A4         1 TEMP              0 ****  ****    0 ROOT
