@<TRIPOS>MOLECULE
0A5
   13    12     1     0     0
SMALL
bcc


@<TRIPOS>ATOM
      1 C1          0.0340   -0.0340    0.0200 c3        1 0A5      0.025000
      2 C2          3.5850   -0.0930   -1.4500 c         1 0A5      0.911600
      3 O1          4.1910   -0.7380   -0.5470 o         1 0A5     -0.846300
      4 C3          2.0430   -0.0740   -1.4250 c3        1 0A5     -0.200400
      5 C4          1.5240    0.1800   -0.0270 c3        1 0A5     -0.072400
      6 OXT         4.1590    0.5230   -2.3920 o         1 0A5     -0.846300
      7 BR1        -0.7730    0.3380    1.7470 br        1 0A5     -0.254400
      8 H          -0.2220   -1.0950   -0.2050 h1        1 0A5      0.056700
      9 HA         -0.4880    0.6370   -0.7000 h1        1 0A5      0.056700
     10 H2          1.6720    0.7120   -2.1280 hc        1 0A5      0.021700
     11 H2A         1.6860   -1.0680   -1.7940 hc        1 0A5      0.021700
     12 H3          2.0530   -0.5140    0.6810 hc        1 0A5      0.062700
     13 H3A         1.7780    1.2280    0.2800 hc        1 0A5      0.062700
@<TRIPOS>BOND
     1    1    5 1   
     2    1    7 1   
     3    1    8 1   
     4    1    9 1   
     5    2    3 1   
     6    2    4 1   
     7    2    6 1   
     8    4    5 1   
     9    4   10 1   
    10    4   11 1   
    11    5   12 1   
    12    5   13 1   
@<TRIPOS>SUBSTRUCTURE
     1 0A5         1 TEMP              0 ****  ****    0 ROOT
