@<TRIPOS>MOLECULE
0A5
   13    12     1     0     0
SMALL
bcc


@<TRIPOS>ATOM
      1 C1          0.6150   -0.9140   -0.0000 c3        1 0A5      0.023000
      2 C2         -3.1070    0.1030    0.0000 c         1 0A5      0.911600
      3 O1         -2.9620    1.3580    0.0000 o         1 0A5     -0.846800
      4 C3         -1.8570   -0.7970   -0.0000 c3        1 0A5     -0.200400
      5 C4         -0.5770    0.0080   -0.0000 c3        1 0A5     -0.068400
      6 OXT        -4.2290   -0.4810    0.0000 o         1 0A5     -0.846800
      7 BR1         2.3300   -0.0040   -0.0000 br        1 0A5     -0.253400
      8 H           0.6210   -1.5560    0.9100 h1        1 0A5      0.055700
      9 HA          0.6210   -1.5560   -0.9100 h1        1 0A5      0.055700
     10 H2         -1.9020   -1.4550    0.9030 hc        1 0A5      0.021700
     11 H2A        -1.9020   -1.4550   -0.9030 hc        1 0A5      0.021700
     12 H3         -0.5660    0.6770    0.9000 hc        1 0A5      0.063700
     13 H3A        -0.5660    0.6770   -0.9000 hc        1 0A5      0.063700
@<TRIPOS>BOND
     1    1    5 1   
     2    1    7 1   
     3    1    8 1   
     4    1    9 1   
     5    2    3 1   
     6    2    4 1   
     7    2    6 1   
     8    4    5 1   
     9    4   10 1   
    10    4   11 1   
    11    5   12 1   
    12    5   13 1   
@<TRIPOS>SUBSTRUCTURE
     1 0A5         1 TEMP              0 ****  ****    0 ROOT
