@<TRIPOS>MOLECULE
0A5
   13    12     1     0     0
SMALL
bcc


@<TRIPOS>ATOM
      1 C1          0.0240   -0.0000    0.0100 c3        1 0A5      0.023000
      2 C2          3.5860    0.0000   -1.4730 c         1 0A5      0.911600
      3 O1          4.2420    0.0000   -0.3930 o         1 0A5     -0.846800
      4 C3          2.0470   -0.0000   -1.4150 c3        1 0A5     -0.200400
      5 C4          1.5310   -0.0000    0.0050 c3        1 0A5     -0.068400
      6 OXT         4.1130    0.0000   -2.6230 o         1 0A5     -0.846800
      7 BR1        -0.7710   -0.0000    1.7810 br        1 0A5     -0.253400
      8 H          -0.3750    0.9100   -0.4940 h1        1 0A5      0.055700
      9 HA         -0.3750   -0.9100   -0.4940 h1        1 0A5      0.055700
     10 H2          1.6780   -0.9030   -1.9630 hc        1 0A5      0.021700
     11 H2A         1.6780    0.9030   -1.9630 hc        1 0A5      0.021700
     12 H3          1.9330    0.9000    0.5410 hc        1 0A5      0.063700
     13 H3A         1.9330   -0.9000    0.5410 hc        1 0A5      0.063700
@<TRIPOS>BOND
     1    1    5 1   
     2    1    7 1   
     3    1    8 1   
     4    1    9 1   
     5    2    3 1   
     6    2    4 1   
     7    2    6 1   
     8    4    5 1   
     9    4   10 1   
    10    4   11 1   
    11    5   12 1   
    12    5   13 1   
@<TRIPOS>SUBSTRUCTURE
     1 0A5         1 TEMP              0 ****  ****    0 ROOT
