@<TRIPOS>MOLECULE
0A5
   13    12     1     0     0
SMALL
bcc


@<TRIPOS>ATOM
      1 C1          0.0370   -0.0170    0.0300 c3        1 0A5      0.025000
      2 C2          3.5800   -0.1170   -1.4570 c         1 0A5      0.911600
      3 O1          4.1930   -0.7320   -0.5380 o         1 0A5     -0.846300
      4 C3          2.0390   -0.0990   -1.4240 c3        1 0A5     -0.200400
      5 C4          1.5270    0.1980   -0.0330 c3        1 0A5     -0.072400
      6 OXT         4.1490    0.4710   -2.4200 o         1 0A5     -0.846300
      7 Br1        -0.7600    0.4090    1.7480 br        1 0A5     -0.254400
      8 H          -0.4900    0.6290   -0.7090 h1        1 0A5      0.056700
      9 HA         -0.2170   -1.0850   -0.1600 h1        1 0A5      0.056700
     10 H2          1.6820   -1.1050   -1.7600 hc        1 0A5      0.021700
     11 H2A         1.6620    0.6630   -2.1510 hc        1 0A5      0.021700
     12 H3          1.7810    1.2560    0.2390 hc        1 0A5      0.062700
     13 H3A         2.0610   -0.4710    0.6950 hc        1 0A5      0.062700
@<TRIPOS>BOND
     1    1    5 1   
     2    1    7 1   
     3    1    8 1   
     4    1    9 1   
     5    2    3 1   
     6    2    4 1   
     7    2    6 1   
     8    4    5 1   
     9    4   10 1   
    10    4   11 1   
    11    5   12 1   
    12    5   13 1   
@<TRIPOS>SUBSTRUCTURE
     1 0A5         1 TEMP              0 ****  ****    0 ROOT
