@<TRIPOS>MOLECULE
0A5
   13    11     1     0     0
SMALL
bcc


@<TRIPOS>ATOM
      1 C1         -1.6270   -0.0000    0.5900 c3        1 0A5     -0.183000
      2 C2          1.9030   -0.0000   -0.8360 c1        1 0A5      0.331000
      3 O1          2.5330    1.0900   -0.8360 o         1 0A5     -0.580000
      4 C3          0.3900    0.0000   -0.8360 c2        1 0A5     -0.229000
      5 C4         -0.1140   -0.0000    0.5900 c3        1 0A5     -0.146000
      6 OXT         2.5320   -1.0910   -0.8360 o         1 0A5     -0.580000
      7 BR1        -2.2640   -0.0000    2.3930 br        1 0A5     -0.126000
      8 H          -1.9520   -0.7970    0.1300 h1        1 0A5      0.098000
      9 HA         -1.9520    0.7970    0.1300 h1        1 0A5      0.098000
     10 H2          0.0650   -0.7970   -1.2960 ha        1 0A5      0.061000
     11 H2A         0.0650    0.7970   -1.2960 ha        1 0A5      0.061000
     12 H3          0.2110    0.7970    1.0510 hc        1 0A5      0.098000
     13 H3A         0.2110   -0.7970    1.0510 hc        1 0A5      0.098000
@<TRIPOS>BOND
     1    1    5 1   
     2    1    7 1   
     3    1    8 1   
     4    1    9 1   
     5    2    3 1   
     6    2    6 1   
     7    4    5 1   
     8    4   10 1   
     9    4   11 1   
    10    5   12 1   
    11    5   13 1   
@<TRIPOS>SUBSTRUCTURE
     1 0A5         1 TEMP              0 ****  ****    0 ROOT
