@<TRIPOS>MOLECULE
0A6
   20    19     1     0     0
SMALL
bcc


@<TRIPOS>ATOM
      1 O01         0.0680    0.6150   -0.1850 o         1 0A6     -0.557000
      2 C02         1.2300    0.2150   -0.1120 c         1 0A6      0.634100
      3 C03         2.1420    0.0260    1.0900 c3        1 0A6      0.149100
      4 O04         1.4910   -0.9110    1.9280 oh        1 0A6     -0.639800
      5 C05         2.3850    1.3710    1.7540 c3        1 0A6     -0.241400
      6 C06         3.3990    1.2510    2.9080 c         1 0A6      0.913600
      7 O07         3.2890    0.2580    3.6900 o         1 0A6     -0.838300
      8 C08         1.1010    0.0720   -2.4940 c3        1 0A6      0.138400
      9 C09         2.0090   -0.3170   -3.6370 c3        1 0A6     -0.096100
     10 O10         1.8580   -0.1060   -1.2920 os        1 0A6     -0.451900
     11 OXT         4.2720    2.1510    3.0230 o         1 0A6     -0.838300
     12 H03         3.1180   -0.4190    0.7420 h1        1 0A6      0.060700
     13 H04         1.8620   -0.7840    2.8240 ho        1 0A6      0.471000
     14 H051        2.7690    2.1000    1.0000 hc        1 0A6      0.049700
     15 H052        1.4250    1.7610    2.1750 hc        1 0A6      0.049700
     16 H081        0.7780    1.1440   -2.5680 h1        1 0A6      0.040200
     17 H082        0.1880   -0.5780   -2.4490 h1        1 0A6      0.040200
     18 H091        2.3330   -1.3800   -3.5330 hc        1 0A6      0.039033
     19 H092        1.4610   -0.1930   -4.6010 hc        1 0A6      0.039033
     20 H093        2.9200    0.3270   -3.6480 hc        1 0A6      0.039033
@<TRIPOS>BOND
     1    1    2 2   
     2    2    3 1   
     3    2   10 1   
     4    3    4 1   
     5    3    5 1   
     6    3   12 1   
     7    4   13 1   
     8    5    6 1   
     9    5   14 1   
    10    5   15 1   
    11    6    7 1   
    12    6   11 1   
    13    8    9 1   
    14    8   10 1   
    15    8   16 1   
    16    8   17 1   
    17    9   18 1   
    18    9   19 1   
    19    9   20 1   
@<TRIPOS>SUBSTRUCTURE
     1 0A6         1 TEMP              0 ****  ****    0 ROOT
