@<TRIPOS>MOLECULE
0A6
   20    18     1     0     0
SMALL
bcc


@<TRIPOS>ATOM
      1 O01        -1.6990   -0.2220   -0.0360 o         1 0A6     -0.368000
      2 C02        -0.4790   -0.1980   -0.0320 c1        1 0A6      0.305000
      3 C03         0.2870   -0.3050    1.3020 c2        1 0A6      0.088000
      4 O04         0.0360   -1.5310    1.8750 oh        1 0A6     -0.367000
      5 C05        -0.1750    0.7900    2.2380 c3        1 0A6     -0.270000
      6 C06         0.6100    0.7100    3.5360 c2        1 0A6      0.333000
      7 O07         0.1390    0.0860    4.5150 o         1 0A6     -0.573000
      8 C08        -0.6040   -0.1720   -2.4340 c3        1 0A6     -0.012000
      9 C09         0.2420   -0.0130   -3.6830 c3        1 0A6     -0.214000
     10 O10         0.2370   -0.0910   -1.2670 os        1 0A6     -0.290000
     11 OXT         1.6880    1.3570    3.6610 o         1 0A6     -0.573000
     12 H03         1.2560   -0.2110    1.1360 h4        1 0A6      0.100000
     13 H04         0.6790   -2.0980    1.6540 ho        1 0A6      0.270000
     14 H051       -0.0300    1.6390    1.8310 hc        1 0A6      0.089000
     15 H052       -1.1280    0.6770    2.4260 hc        1 0A6      0.089000
     16 H081       -1.0520   -1.0400   -2.4520 h1        1 0A6      0.079500
     17 H082       -1.2810    0.5470   -2.4010 h1        1 0A6      0.079500
     18 H091       -0.3490   -0.0180   -4.4900 hc        1 0A6      0.078333
     19 H092        0.8830   -0.7590   -3.7420 hc        1 0A6      0.078333
     20 H093        0.7400    0.8530   -3.6390 hc        1 0A6      0.078333
@<TRIPOS>BOND
     1    1    2 1   
     2    2   10 1   
     3    3    4 1   
     4    3    5 1   
     5    3   12 1   
     6    4   13 1   
     7    5    6 1   
     8    5   14 1   
     9    5   15 1   
    10    6    7 1   
    11    6   11 1   
    12    8    9 1   
    13    8   10 1   
    14    8   16 1   
    15    8   17 1   
    16    9   18 1   
    17    9   19 1   
    18    9   20 1   
@<TRIPOS>SUBSTRUCTURE
     1 0A6         1 TEMP              0 ****  ****    0 ROOT
