@<TRIPOS>MOLECULE
0A6
   20    19     1     0     0
SMALL
bcc


@<TRIPOS>ATOM
      1 O01         0.0780    0.6690   -0.1780 o         1 0A6     -0.557000
      2 C02         1.2300    0.2380   -0.1080 c         1 0A6      0.634100
      3 C03         2.1420    0.0300    1.0910 c3        1 0A6      0.149100
      4 O04         1.4710   -0.8880    1.9340 oh        1 0A6     -0.639800
      5 C05         2.4200    1.3710    1.7500 c3        1 0A6     -0.241400
      6 C06         3.4360    1.2290    2.8990 c         1 0A6      0.913600
      7 O07         3.3050    0.2410    3.6850 o         1 0A6     -0.838300
      8 C08         1.0850    0.0860   -2.4890 c3        1 0A6      0.138400
      9 C09         1.9750   -0.3380   -3.6340 c3        1 0A6     -0.096100
     10 O10         1.8430   -0.1060   -1.2900 os        1 0A6     -0.451900
     11 OXT         4.3310    2.1080    3.0090 o         1 0A6     -0.838300
     12 H03         3.1050   -0.4400    0.7390 h1        1 0A6      0.060700
     13 H04         1.8490   -0.7690    2.8280 ho        1 0A6      0.471000
     14 H051        2.8190    2.0880    0.9920 hc        1 0A6      0.049700
     15 H052        1.4720    1.7860    2.1730 hc        1 0A6      0.049700
     16 H081        0.7940    1.1670   -2.5680 h1        1 0A6      0.040200
     17 H082        0.1540   -0.5360   -2.4350 h1        1 0A6      0.040200
     18 H091        2.2680   -1.4090   -3.5240 hc        1 0A6      0.039033
     19 H092        2.9050    0.2790   -3.6530 hc        1 0A6      0.039033
     20 H093        1.4260   -0.2040   -4.5960 hc        1 0A6      0.039033
@<TRIPOS>BOND
     1    1    2 2   
     2    2    3 1   
     3    2   10 1   
     4    3    4 1   
     5    3    5 1   
     6    3   12 1   
     7    4   13 1   
     8    5    6 1   
     9    5   14 1   
    10    5   15 1   
    11    6    7 1   
    12    6   11 1   
    13    8    9 1   
    14    8   10 1   
    15    8   16 1   
    16    8   17 1   
    17    9   18 1   
    18    9   19 1   
    19    9   20 1   
@<TRIPOS>SUBSTRUCTURE
     1 0A6         1 TEMP              0 ****  ****    0 ROOT
