@<TRIPOS>MOLECULE
0A6
   20    19     1     0     0
SMALL
bcc


@<TRIPOS>ATOM
      1 O01         0.0820    0.6950   -0.1910 o         1 0A6     -0.557000
      2 C02         1.2270    0.2480   -0.1130 c         1 0A6      0.634100
      3 C03         2.1300    0.0320    1.0930 c3        1 0A6      0.149100
      4 O04         1.4400   -0.8730    1.9350 oh        1 0A6     -0.639800
      5 C05         2.4230    1.3710    1.7480 c3        1 0A6     -0.241400
      6 C06         3.4300    1.2180    2.9050 c         1 0A6      0.913600
      7 O07         3.2790    0.2370    3.6940 o         1 0A6     -0.838300
      8 C08         1.0960    0.0910   -2.4940 c3        1 0A6      0.138400
      9 C09         1.9880   -0.3470   -3.6320 c3        1 0A6     -0.096100
     10 O10         1.8430   -0.1080   -1.2890 os        1 0A6     -0.451900
     11 OXT         4.3370    2.0840    3.0150 o         1 0A6     -0.838300
     12 H03         3.0880   -0.4540    0.7490 h1        1 0A6      0.060700
     13 H04         1.8140   -0.7550    2.8310 ho        1 0A6      0.471000
     14 H051        2.8370    2.0790    0.9900 hc        1 0A6      0.049700
     15 H052        1.4780    1.8010    2.1640 hc        1 0A6      0.049700
     16 H081        0.8190    1.1750   -2.5780 h1        1 0A6      0.040200
     17 H082        0.1560   -0.5190   -2.4440 h1        1 0A6      0.040200
     18 H091        2.2660   -1.4210   -3.5180 hc        1 0A6      0.039033
     19 H092        2.9260    0.2580   -3.6470 hc        1 0A6      0.039033
     20 H093        1.4460   -0.2080   -4.5980 hc        1 0A6      0.039033
@<TRIPOS>BOND
     1    1    2 2   
     2    2    3 1   
     3    2   10 1   
     4    3    4 1   
     5    3    5 1   
     6    3   12 1   
     7    4   13 1   
     8    5    6 1   
     9    5   14 1   
    10    5   15 1   
    11    6    7 1   
    12    6   11 1   
    13    8    9 1   
    14    8   10 1   
    15    8   16 1   
    16    8   17 1   
    17    9   18 1   
    18    9   19 1   
    19    9   20 1   
@<TRIPOS>SUBSTRUCTURE
     1 0A6         1 TEMP              0 ****  ****    0 ROOT
