@<TRIPOS>MOLECULE
0A6
   20    19     1     0     0
SMALL
bcc


@<TRIPOS>ATOM
      1 O01        -1.5700   -1.3320    1.1860 o         1 0A6     -0.584000
      2 C02        -1.0720   -0.6190    0.3090 c         1 0A6      0.600100
      3 C03         0.3580   -0.6030   -0.2130 c3        1 0A6      0.123100
      4 O04         0.7960   -1.9440   -0.2900 oh        1 0A6     -0.585800
      5 C05         1.2090    0.2750    0.6850 c3        1 0A6     -0.237400
      6 C06         2.4460    0.8260   -0.0630 c         1 0A6      0.919600
      7 O07         2.3110    1.1510   -1.2750 o         1 0A6     -0.834800
      8 C08        -3.2410    0.3680    0.1660 c3        1 0A6      0.137400
      9 C09        -3.9080    1.4680   -0.6250 c3        1 0A6     -0.097100
     10 O10        -1.8890    0.2940   -0.3030 os        1 0A6     -0.433900
     11 OXT         3.5110    0.9410    0.6040 o         1 0A6     -0.834800
     12 H03         0.3900   -0.2150   -1.2750 h1        1 0A6      0.140700
     13 H04         1.0650   -2.2130    0.5980 ho        1 0A6      0.402000
     14 H051        0.6110    1.1590    1.0220 hc        1 0A6      0.041700
     15 H052        1.5420   -0.2940    1.5880 hc        1 0A6      0.041700
     16 H081       -3.2340    0.5920    1.2650 h1        1 0A6      0.039200
     17 H082       -3.7370   -0.6240    0.0020 h1        1 0A6      0.039200
     18 H091       -3.3750    2.4360   -0.4720 hc        1 0A6      0.040367
     19 H092       -3.8910    1.2290   -1.7160 hc        1 0A6      0.040367
     20 H093       -4.9670    1.5730   -0.2890 hc        1 0A6      0.040367
@<TRIPOS>BOND
     1    1    2 2   
     2    2    3 1   
     3    2   10 1   
     4    3    4 1   
     5    3    5 1   
     6    3   12 1   
     7    4   13 1   
     8    5    6 1   
     9    5   14 1   
    10    5   15 1   
    11    6    7 1   
    12    6   11 1   
    13    8    9 1   
    14    8   10 1   
    15    8   16 1   
    16    8   17 1   
    17    9   18 1   
    18    9   19 1   
    19    9   20 1   
@<TRIPOS>SUBSTRUCTURE
     1 0A6         1 TEMP              0 ****  ****    0 ROOT
