@<TRIPOS>MOLECULE
0A7
   19    19     1     0     0
SMALL
bcc


@<TRIPOS>ATOM
      1 O01         0.5240   -1.5510    0.4110 o         1 0A7     -0.876300
      2 C02        -0.4960   -1.1440   -3.8120 ca        1 0A7     -0.176000
      3 C03         0.0920   -0.9820   -2.5600 ca        1 0A7     -0.141000
      4 C04         0.6450    0.2480   -2.1710 ca        1 0A7     -0.000300
      5 C05         0.5820    1.3340   -3.0660 ca        1 0A7     -0.118600
      6 C06         0.0010    1.1530   -4.3260 ca        1 0A7     -0.131000
      7 C07        -0.5390   -0.0750   -4.7050 ca        1 0A7     -0.192000
      8 C08         1.0970    2.7280   -2.7500 c         1 0A7      0.912200
      9 O09         1.9210    3.2560   -3.5570 o         1 0A7     -0.852300
     10 C10         1.2760    0.3980   -0.8330 c3        1 0A7     -0.150100
     11 C11         1.5140   -0.9010   -0.0520 c         1 0A7      0.903600
     12 O12         2.7080   -1.2750    0.1540 o         1 0A7     -0.876300
     13 OXT         0.6440    3.3410   -1.7410 o         1 0A7     -0.852300
     14 H07        -0.9920   -0.1990   -5.6970 ha        1 0A7      0.077000
     15 H101        2.2580    0.9270   -0.9580 hc        1 0A7      0.058200
     16 H102        0.6170    1.0660   -0.2150 hc        1 0A7      0.058200
     17 H06        -0.0130    2.0030   -5.0240 ha        1 0A7      0.114000
     18 H02        -0.9250   -2.1150   -4.0940 ha        1 0A7      0.082000
     19 H03         0.1180   -1.8210   -1.8430 ha        1 0A7      0.160000
@<TRIPOS>BOND
     1    1   11 1   
     2    2    3 ar  
     3    2    7 ar  
     4    2   18 1   
     5    3    4 ar  
     6    3   19 1   
     7    4    5 ar  
     8    4   10 1   
     9    5    6 ar  
    10    5    8 1   
    11    6    7 ar  
    12    6   17 1   
    13    7   14 1   
    14    8    9 1   
    15    8   13 1   
    16   10   11 1   
    17   10   15 1   
    18   10   16 1   
    19   11   12 1   
@<TRIPOS>SUBSTRUCTURE
     1 0A7         1 TEMP              0 ****  ****    0 ROOT
