@<TRIPOS>MOLECULE
0A7
   19    16     1     0     0
SMALL
bcc


@<TRIPOS>ATOM
      1 O01        -1.0580   -1.3890    2.2990 o         1 0A7     -0.876300
      2 C02        -1.2630   -0.5680   -1.9890 c1        1 0A7     -0.126500
      3 C03        -0.5600   -1.2120   -0.9820 c1        1 0A7     -0.083500
      4 C04         0.1900   -0.4740   -0.0800 c1        1 0A7      0.033900
      5 C05         0.2380    0.9070   -0.1840 cg        1 0A7     -0.067200
      6 C06        -0.4650    1.5510   -1.1900 c1        1 0A7     -0.073500
      7 C07        -1.2160    0.8130   -2.0930 c1        1 0A7     -0.126500
      8 C08         1.0580    1.7120    0.7990 c         1 0A7      0.860800
      9 O09         2.2860    1.8980    0.5910 o         1 0A7     -0.852300
     10 C10         0.9630   -1.1770    1.0140 c3        1 0A7     -0.184300
     11 C11         0.1720   -1.1240    2.3030 c         1 0A7      0.903600
     12 O12         0.7480   -0.8250    3.3820 o         1 0A7     -0.876300
     13 OXT         0.5110    2.2090    1.8180 o         1 0A7     -0.852300
     14 H02        -1.7920   -1.0870   -2.6240 ha        1 0A7      0.022000
     15 H03        -0.6040   -2.1830   -0.9020 ha        1 0A7      0.102500
     16 H07        -1.7110    1.2670   -2.8010 ha        1 0A7      0.022000
     17 H101        1.1110   -2.1100    0.7610 hc        1 0A7      0.058200
     18 H102        1.8250   -0.7330    1.1420 hc        1 0A7      0.058200
     19 H06        -0.4320    2.5240   -1.2640 ha        1 0A7      0.056500
@<TRIPOS>BOND
     1    1   11 1   
     2    2    7 3   
     3    2   14 1   
     4    3    4 3   
     5    3   15 1   
     6    4   10 1   
     7    5    6 3   
     8    5    8 1   
     9    6   19 1   
    10    7   16 1   
    11    8    9 1   
    12    8   13 1   
    13   10   11 1   
    14   10   17 1   
    15   10   18 1   
    16   11   12 1   
@<TRIPOS>SUBSTRUCTURE
     1 0A7         1 TEMP              0 ****  ****    0 ROOT
