@<TRIPOS>MOLECULE
0A7
   19    19     1     0     0
SMALL
bcc


@<TRIPOS>ATOM
      1 O01         0.3090   -1.5010    0.4300 o         1 0A7     -0.876300
      2 C02        -0.3790   -1.1740   -3.8660 ca        1 0A7     -0.176000
      3 C03         0.1080   -0.9870   -2.5750 ca        1 0A7     -0.141000
      4 C04         0.6230    0.2540   -2.1660 ca        1 0A7     -0.000300
      5 C05         0.6240    1.3240   -3.0820 ca        1 0A7     -0.118600
      6 C06         0.1430    1.1170   -4.3800 ca        1 0A7     -0.132000
      7 C07        -0.3580   -0.1210   -4.7780 ca        1 0A7     -0.192000
      8 C08         1.1030    2.7270   -2.7510 c         1 0A7      0.912200
      9 O09         1.9910    3.2440   -3.4960 o         1 0A7     -0.852300
     10 C10         1.1460    0.4310   -0.7850 c3        1 0A7     -0.150100
     11 C11         1.3280   -0.8530    0.0350 c         1 0A7      0.903600
     12 O12         2.5050   -1.2150    0.3420 o         1 0A7     -0.876300
     13 OXT         0.5650    3.3560   -1.7950 o         1 0A7     -0.852300
     14 H07        -0.7310   -0.2650   -5.8000 ha        1 0A7      0.077000
     15 H101        2.1330    0.9630   -0.8430 hc        1 0A7      0.058200
     16 H102        0.4380    1.1050   -0.2330 hc        1 0A7      0.058200
     17 H06         0.1790    1.9550   -5.0910 ha        1 0A7      0.114000
     18 H02        -0.7780   -2.1530   -4.1640 ha        1 0A7      0.082000
     19 H03         0.0840   -1.8130   -1.8440 ha        1 0A7      0.160000
@<TRIPOS>BOND
     1    1   11 1   
     2    2    3 ar  
     3    2    7 ar  
     4    2   18 1   
     5    3    4 ar  
     6    3   19 1   
     7    4    5 ar  
     8    4   10 1   
     9    5    6 ar  
    10    5    8 1   
    11    6    7 ar  
    12    6   17 1   
    13    7   14 1   
    14    8    9 1   
    15    8   13 1   
    16   10   11 1   
    17   10   15 1   
    18   10   16 1   
    19   11   12 1   
@<TRIPOS>SUBSTRUCTURE
     1 0A7         1 TEMP              0 ****  ****    0 ROOT
