@<TRIPOS>MOLECULE
0A7
   19    19     1     0     0
SMALL
bcc


@<TRIPOS>ATOM
      1 O01        -2.1440   -2.2620   -1.0720 o         1 0A7     -0.876300
      2 C02         2.1400   -1.8430   -0.3580 ca        1 0A7     -0.176000
      3 C03         0.7570   -1.6910   -0.3010 ca        1 0A7     -0.141000
      4 C04         0.1750   -0.4730    0.0860 ca        1 0A7     -0.000300
      5 C05         1.0170    0.6110    0.4020 ca        1 0A7     -0.118600
      6 C06         2.4050    0.4400    0.3520 ca        1 0A7     -0.131000
      7 C07         2.9720   -0.7750   -0.0250 ca        1 0A7     -0.192000
      8 C08         0.5160    1.9940    0.7840 c         1 0A7      0.912200
      9 O09         0.9350    2.4990    1.8700 o         1 0A7     -0.852300
     10 C10        -1.3040   -0.3350    0.1490 c3        1 0A7     -0.150100
     11 C11        -2.1070   -1.6370    0.0340 c         1 0A7      0.903600
     12 O12        -2.7600   -2.0390    1.0450 o         1 0A7     -0.876300
     13 OXT        -0.2410    2.6200   -0.0120 o         1 0A7     -0.852300
     14 H07         4.0630   -0.8910   -0.0590 ha        1 0A7      0.077000
     15 H101       -1.5750    0.1700    1.1150 hc        1 0A7      0.058200
     16 H102       -1.6210    0.3510   -0.6820 hc        1 0A7      0.058200
     17 H06         3.0470    1.2880    0.6310 ha        1 0A7      0.114000
     18 H02         2.5730   -2.8040   -0.6650 ha        1 0A7      0.082000
     19 H03         0.0920   -2.5290   -0.5750 ha        1 0A7      0.160000
@<TRIPOS>BOND
     1    1   11 1   
     2    2    3 ar  
     3    2    7 ar  
     4    2   18 1   
     5    3    4 ar  
     6    3   19 1   
     7    4    5 ar  
     8    4   10 1   
     9    5    6 ar  
    10    5    8 1   
    11    6    7 ar  
    12    6   17 1   
    13    7   14 1   
    14    8    9 1   
    15    8   13 1   
    16   10   11 1   
    17   10   15 1   
    18   10   16 1   
    19   11   12 1   
@<TRIPOS>SUBSTRUCTURE
     1 0A7         1 TEMP              0 ****  ****    0 ROOT
