@<TRIPOS>MOLECULE
0A8
   23    22     1     0     0
SMALL
bcc


@<TRIPOS>ATOM
      1 N           3.6850    1.2630   -1.1100 n3        1 0A8     -0.886800
      2 CA          3.1450    0.6500    0.0960 c3        1 0A8      0.007500
      3 C           4.1770   -0.2420    0.8920 c         1 0A8      0.899600
      4 O           5.3630   -0.2720    0.4660 o         1 0A8     -0.825300
      5 CB          1.9030   -0.1860   -0.1510 c3        1 0A8      0.049700
      6 SG          0.5700    0.9740   -0.4320 ss        1 0A8     -0.263700
      7 C1         -0.8580   -0.0180   -0.4740 c         1 0A8      0.651700
      8 O1         -0.8900   -1.2640   -0.4290 o         1 0A8     -0.609100
      9 N1         -2.0380    0.7100   -0.6190 n         1 0A8     -0.567900
     10 C2         -3.3270    0.0960   -0.5090 c3        1 0A8      0.081000
     11 C3         -3.9010    0.0900    0.9100 c3        1 0A8      0.008000
     12 CL1        -5.5640   -0.4780    0.8970 cl        1 0A8     -0.211400
     13 OXT         3.7490   -0.8390    1.9140 o         1 0A8     -0.825300
     14 HN1         4.5980    1.6190   -0.8760 hn        1 0A8      0.336300
     15 HN2         3.8320    0.5440   -1.7980 hn        1 0A8      0.336300
     16 HA          2.8770    1.4970    0.7960 h1        1 0A8      0.059700
     17 HBC1        2.0040   -0.8670   -1.0260 h1        1 0A8      0.087700
     18 HBC2        1.6880   -0.8000    0.7590 h1        1 0A8      0.087700
     19 H1         -1.9940    1.6910   -0.4640 hn        1 0A8      0.305500
     20 H2C1       -4.0370    0.6530   -1.1870 h1        1 0A8      0.068200
     21 H2C2       -3.2490   -0.9700   -0.8720 h1        1 0A8      0.068200
     22 H3C1       -3.3270   -0.6030    1.5710 h1        1 0A8      0.070700
     23 H3C2       -3.9210    1.1120    1.3560 h1        1 0A8      0.070700
@<TRIPOS>BOND
     1    1    2 1   
     2    1   14 1   
     3    1   15 1   
     4    2    3 1   
     5    2    5 1   
     6    2   16 1   
     7    3    4 1   
     8    3   13 1   
     9    5    6 1   
    10    5   17 1   
    11    5   18 1   
    12    6    7 1   
    13    7    8 2   
    14    7    9 1   
    15    9   10 1   
    16    9   19 1   
    17   10   11 1   
    18   10   20 1   
    19   10   21 1   
    20   11   12 1   
    21   11   22 1   
    22   11   23 1   
@<TRIPOS>SUBSTRUCTURE
     1 0A8         1 TEMP              0 ****  ****    0 ROOT
