@<TRIPOS>MOLECULE
0A9
   26    26     1     0     0
SMALL
bcc


@<TRIPOS>ATOM
      1 N           0.6270    1.5770    1.0420 n3        1 0A9     -0.899800
      2 CA          0.9250    0.3030    0.4230 c3        1 0A9      0.132500
      3 C           2.3740    0.2640   -0.0390 c         1 0A9      0.631100
      4 CB          0.0610   -0.0800   -0.7980 c3        1 0A9     -0.077100
      5 CG         -1.3790   -0.1490   -0.4400 ca        1 0A9     -0.090300
      6 CD1        -2.1990    0.9760   -0.5870 ca        1 0A9     -0.127500
      7 CD2        -1.9310   -1.3420    0.0430 ca        1 0A9     -0.127500
      8 CE1        -3.5520    0.9080   -0.2550 ca        1 0A9     -0.125500
      9 CE2        -3.2830   -1.4070    0.3750 ca        1 0A9     -0.125500
     10 CZ         -4.0950   -0.2820    0.2270 ca        1 0A9     -0.126000
     11 O           3.0020    1.1180   -0.6640 o         1 0A9     -0.539000
     12 CM          4.3650   -1.0350   -0.1000 c3        1 0A9      0.124700
     13 OXT         2.9980   -0.9040    0.2930 os        1 0A9     -0.433900
     14 HN1         0.9320    2.3370    0.4640 hn        1 0A9      0.365800
     15 HN2        -0.3600    1.6510    1.2020 hn        1 0A9      0.365800
     16 HA          0.7820   -0.4920    1.2180 h1        1 0A9      0.096700
     17 HBC1        0.2220    0.6680   -1.6200 hc        1 0A9      0.065700
     18 HBC2        0.4120   -1.0780   -1.1750 hc        1 0A9      0.065700
     19 HD1        -1.7760    1.9150   -0.9750 ha        1 0A9      0.133000
     20 HD2        -1.2920   -2.2300    0.1600 ha        1 0A9      0.133000
     21 HE1        -4.1900    1.7960   -0.3750 ha        1 0A9      0.134000
     22 HE2        -3.7090   -2.3470    0.7530 ha        1 0A9      0.134000
     23 HZ         -5.1620   -0.3350    0.4880 ha        1 0A9      0.134000
     24 HMC1        4.4480   -0.9830   -1.2120 h1        1 0A9      0.052033
     25 HMC2        4.9750   -0.2250    0.3680 h1        1 0A9      0.052033
     26 HMC3        4.6560   -2.0430    0.2860 h1        1 0A9      0.052033
@<TRIPOS>BOND
     1    1    2 1   
     2    1   14 1   
     3    1   15 1   
     4    2    3 1   
     5    2    4 1   
     6    2   16 1   
     7    3   11 2   
     8    3   13 1   
     9    4    5 1   
    10    4   17 1   
    11    4   18 1   
    12    5    6 ar  
    13    5    7 ar  
    14    6    8 ar  
    15    6   19 1   
    16    7    9 ar  
    17    7   20 1   
    18    8   10 ar  
    19    8   21 1   
    20    9   10 ar  
    21    9   22 1   
    22   10   23 1   
    23   12   13 1   
    24   12   24 1   
    25   12   25 1   
    26   12   26 1   
@<TRIPOS>SUBSTRUCTURE
     1 0A9         1 TEMP              0 ****  ****    0 ROOT
