@<TRIPOS>MOLECULE
0AA
   22    21     1     0     0
SMALL
bcc


@<TRIPOS>ATOM
      1 N          -1.8480   -0.3640   -0.3610 n3        1 0AA     -0.897800
      2 CA         -0.4280   -0.3570   -0.2730 c3        1 0AA      0.140500
      3 C          -0.0130   -0.3700    1.1810 c         1 0AA      0.579100
      4 O          -0.1140    0.6380    1.8500 o         1 0AA     -0.548000
      5 CB          0.1130    0.8870   -0.9400 c3        1 0AA     -0.059700
      6 CG1         1.4580    0.5820   -1.5610 c3        1 0AA     -0.090600
      7 CG2        -0.8490    1.3410   -2.0160 c3        1 0AA     -0.090600
      8 O1          0.4760   -1.5530    1.7610 os        1 0AA     -0.434900
      9 C1          0.7770   -1.4330    3.1330 c3        1 0AA      0.122700
     10 HN1        -2.1240   -1.1290   -0.7830 hn        1 0AA      0.364300
     11 HA2        -2.2060   -0.3330    0.4810 hn        1 0AA      0.364300
     12 HB         -0.0700   -1.1490   -0.7210 h1        1 0AA      0.091700
     13 HA          0.2140    1.5940   -0.2750 hc        1 0AA      0.058700
     14 HG11        2.0810    0.2890   -0.8640 hc        1 0AA      0.041200
     15 HG12        1.3560   -0.1300   -2.2280 hc        1 0AA      0.041200
     16 HG13        1.8070    1.3880   -1.9950 hc        1 0AA      0.041200
     17 HG21       -1.6680    1.6810   -1.5990 hc        1 0AA      0.041200
     18 HG22       -0.4330    2.0510   -2.5470 hc        1 0AA      0.041200
     19 HG23       -1.0690    0.5830   -2.5980 hc        1 0AA      0.041200
     20 H1C1        1.4050   -0.6910    3.2670 h1        1 0AA      0.051033
     21 H1C2       -0.0480   -1.2580    3.6350 h1        1 0AA      0.051033
     22 H1C3        1.1840   -2.2670    3.4530 h1        1 0AA      0.051033
@<TRIPOS>BOND
     1    1    2 1   
     2    1   10 1   
     3    1   11 1   
     4    2    3 1   
     5    2    5 1   
     6    2   12 1   
     7    3    4 2   
     8    3    8 1   
     9    5    6 1   
    10    5    7 1   
    11    5   13 1   
    12    6   14 1   
    13    6   15 1   
    14    6   16 1   
    15    7   17 1   
    16    7   18 1   
    17    7   19 1   
    18    8    9 1   
    19    9   20 1   
    20    9   21 1   
    21    9   22 1   
@<TRIPOS>SUBSTRUCTURE
     1 0AA         1 TEMP              0 ****  ****    0 ROOT
