@<TRIPOS>MOLECULE
0AA
   22    21     1     0     0
SMALL
bcc


@<TRIPOS>ATOM
      1 N          -0.9520    1.7870    0.5870 n3        1 0AA     -0.901800
      2 CA         -0.5610    0.4010    0.4420 c3        1 0AA      0.130500
      3 C           0.8380    0.3390   -0.1600 c         1 0AA      0.637100
      4 O           1.2360    0.8320   -1.2160 o         1 0AA     -0.542000
      5 CB         -1.4780   -0.4900   -0.4320 c3        1 0AA     -0.105700
      6 CG1        -1.0550   -1.9380   -0.3070 c3        1 0AA     -0.094600
      7 CG2        -2.9290   -0.3320   -0.0320 c3        1 0AA     -0.094600
      8 O1          1.7140   -0.3730    0.6090 os        1 0AA     -0.432900
      9 C1          3.0560   -0.4700    0.1280 c3        1 0AA      0.123700
     10 HN1        -0.9120    2.2660   -0.2920 hn        1 0AA      0.363300
     11 HA2        -1.8790    1.8440    0.9600 hn        1 0AA      0.363300
     12 HB         -0.5220   -0.0460    1.4810 h1        1 0AA      0.091700
     13 HA         -1.3590   -0.1690   -1.5060 hc        1 0AA      0.065700
     14 HG11        0.0370   -2.0470   -0.5210 hc        1 0AA      0.040033
     15 HG12       -1.2510   -2.3170    0.7250 hc        1 0AA      0.040033
     16 HG13       -1.6250   -2.5690   -1.0310 hc        1 0AA      0.040033
     17 HG21       -3.3290    0.6600   -0.3520 hc        1 0AA      0.040033
     18 HG22       -3.5460   -1.1250   -0.5210 hc        1 0AA      0.040033
     19 HG23       -3.0470   -0.4280    1.0740 hc        1 0AA      0.040033
     20 H1C1        3.0680   -0.9970   -0.8560 h1        1 0AA      0.051367
     21 H1C2        3.4980    0.5490    0.0230 h1        1 0AA      0.051367
     22 H1C3        3.5770   -1.0640    0.9190 h1        1 0AA      0.051367
@<TRIPOS>BOND
     1    1    2 1   
     2    1   10 1   
     3    1   11 1   
     4    2    3 1   
     5    2    5 1   
     6    2   12 1   
     7    3    4 2   
     8    3    8 1   
     9    5    6 1   
    10    5    7 1   
    11    5   13 1   
    12    6   14 1   
    13    6   15 1   
    14    6   16 1   
    15    7   17 1   
    16    7   18 1   
    17    7   19 1   
    18    8    9 1   
    19    9   20 1   
    20    9   21 1   
    21    9   22 1   
@<TRIPOS>SUBSTRUCTURE
     1 0AA         1 TEMP              0 ****  ****    0 ROOT
