@<TRIPOS>MOLECULE
0AB
   18    18     1     0     0
SMALL
bcc


@<TRIPOS>ATOM
      1 N          -0.4610    1.3780   -1.2740 n3        1 0AB     -0.900800
      2 CA         -0.1720    0.9370    0.0670 c3        1 0AB      0.111500
      3 C           1.2310    0.3430    0.2030 c         1 0AB      0.658600
      4 O           2.2640    0.9450    0.4840 o         1 0AB     -0.556500
      5 CB         -1.1870   -0.0890    0.6200 c3        1 0AB     -0.024500
      6 CG1        -2.6170    0.3360    0.3780 c3        1 0AB     -0.077100
      7 CG2        -0.8990   -1.4370    0.0620 c2        1 0AB     -0.256200
      8 O1          1.4580   -0.9940   -0.0790 os        1 0AB     -0.342200
      9 C1          0.3500   -1.8090   -0.2470 c2        1 0AB      0.023100
     10 HN1         0.2510    1.9950   -1.6120 hn        1 0AB      0.367800
     11 HA2        -0.5780    0.6060   -1.8990 hn        1 0AB      0.367800
     12 HB         -0.1990    1.8560    0.7300 h1        1 0AB      0.097700
     13 HA         -1.0140   -0.1340    1.7360 hc        1 0AB      0.067700
     14 HG11       -2.8860    0.2530   -0.7020 hc        1 0AB      0.044367
     15 HG12       -3.3090   -0.3170    0.9640 hc        1 0AB      0.044367
     16 HG13       -2.7620    1.3960    0.6980 hc        1 0AB      0.044367
     17 HG2        -1.7480   -2.1230   -0.0660 ha        1 0AB      0.153000
     18 H1          0.6790   -2.7850   -0.6350 h4        1 0AB      0.176000
@<TRIPOS>BOND
     1    1    2 1   
     2    1   10 1   
     3    1   11 1   
     4    2    3 1   
     5    2    5 1   
     6    2   12 1   
     7    3    4 2   
     8    3    8 1   
     9    5    6 1   
    10    5    7 1   
    11    5   13 1   
    12    6   14 1   
    13    6   15 1   
    14    6   16 1   
    15    7    9 2   
    16    7   17 1   
    17    8    9 1   
    18    9   18 1   
@<TRIPOS>SUBSTRUCTURE
     1 0AB         1 TEMP              0 ****  ****    0 ROOT
