@<TRIPOS>MOLECULE
0AB
   18    18     1     0     0
SMALL
bcc


@<TRIPOS>ATOM
      1 N          -1.9810   -0.7970   -0.0090 n3        1 0AB     -0.888800
      2 CA         -0.4910   -0.7970   -0.0090 c3        1 0AB      0.103500
      3 C           0.0280   -0.7970    1.4010 c         1 0AB      0.667600
      4 O          -0.7430   -0.6700    2.3310 o         1 0AB     -0.571500
      5 CB          0.0380    0.3540   -0.8730 c3        1 0AB     -0.017500
      6 CG1        -0.4700    1.6160   -0.3850 c3        1 0AB     -0.096100
      7 CG2         1.6030    0.1710   -0.7180 c2        1 0AB     -0.259200
      8 O1          1.3440   -0.7850    1.6180 os        1 0AB     -0.337200
      9 C1          2.1930   -0.3470    0.6260 c2        1 0AB      0.033100
     10 HN1        -2.2850   -1.0330   -0.8360 hn        1 0AB      0.366800
     11 HA2        -2.2850   -1.3940    0.6090 hn        1 0AB      0.366800
     12 HB         -0.3070   -1.6540   -0.4380 h1        1 0AB      0.091700
     13 HA         -0.2320    0.3820   -1.8100 hc        1 0AB      0.079700
     14 HG11       -1.4340    1.6560   -0.5290 hc        1 0AB      0.045033
     15 HG12       -0.2790    1.6960    0.5690 hc        1 0AB      0.045033
     16 HG13       -0.0380    2.3480   -0.8660 hc        1 0AB      0.045033
     17 HG2         2.1900    0.3170   -1.4840 ha        1 0AB      0.151000
     18 H1          3.1500   -0.2660    0.8020 h4        1 0AB      0.176000
@<TRIPOS>BOND
     1    1    2 1   
     2    1   10 1   
     3    1   11 1   
     4    2    3 1   
     5    2    5 1   
     6    2   12 1   
     7    3    4 2   
     8    3    8 1   
     9    5    6 1   
    10    5    7 1   
    11    5   13 1   
    12    6   14 1   
    13    6   15 1   
    14    6   16 1   
    15    7    9 2   
    16    7   17 1   
    17    8    9 1   
    18    9   18 1   
@<TRIPOS>SUBSTRUCTURE
     1 0AB         1 TEMP              0 ****  ****    0 ROOT
