@<TRIPOS>MOLECULE
0AC
   32    32     1     0     0
SMALL
bcc


@<TRIPOS>ATOM
      1 N          -0.4700   -0.3270    1.5250 n3        1 0AC     -0.895800
      2 CA         -0.3400   -0.0720    0.1000 c3        1 0AC      0.156500
      3 CB         -1.4280    0.8830   -0.4210 c3        1 0AC     -0.035100
      4 CG         -2.8010    0.3290   -0.2840 ca        1 0AC     -0.048300
      5 CD1        -3.5000    0.4480    0.9240 ca        1 0AC     -0.121000
      6 CD2        -3.4200   -0.3060   -1.3680 ca        1 0AC     -0.121000
      7 CE1        -4.7930   -0.0570    1.0430 ca        1 0AC     -0.137500
      8 CE2        -4.7140   -0.8100   -1.2470 ca        1 0AC     -0.137500
      9 CZ         -5.4040   -0.6850   -0.0420 ca        1 0AC     -0.147000
     10 C2          1.0430    0.5120   -0.3180 c3        1 0AC      0.124100
     11 O           1.2320    1.7040    0.4190 oh        1 0AC     -0.658800
     12 C           4.4520    0.5270    0.1820 c         1 0AC      0.907600
     13 O1          4.0090    1.2670    1.1150 o         1 0AC     -0.846300
     14 OXT         5.6790    0.3050   -0.0080 o         1 0AC     -0.846300
     15 HN1         0.2720   -0.9400    1.8110 hn        1 0AC      0.347800
     16 HN2        -0.3600    0.5390    2.0220 hn        1 0AC      0.347800
     17 HA         -0.4610   -1.0630   -0.4280 h1        1 0AC      0.047700
     18 HBC1       -1.3460    1.8610    0.1270 hc        1 0AC      0.056200
     19 HBC2       -1.2120    1.0890   -1.5040 hc        1 0AC      0.056200
     20 H2          0.9940    0.7890   -1.4110 h1        1 0AC      0.022700
     21 HD1        -3.0130    0.9300    1.7850 ha        1 0AC      0.133500
     22 HD2        -2.8780   -0.4090   -2.3190 ha        1 0AC      0.133500
     23 HE1        -5.3310    0.0360    1.9970 ha        1 0AC      0.118500
     24 HE2        -5.1890   -1.3080   -2.1040 ha        1 0AC      0.118500
     25 HZ         -6.4240   -1.0830    0.0530 ha        1 0AC      0.116000
     26 H1C1        2.3380   -0.6270    0.9970 hc        1 0AC      0.037700
     27 H1C2        1.7960   -1.5030   -0.4990 hc        1 0AC      0.037700
     28 HA11        3.9260   -1.0350   -1.2240 hc        1 0AC      0.031200
     29 HA12        3.2570    0.5980   -1.6130 hc        1 0AC      0.031200
     30 H           2.1740    1.7550    0.6810 ho        1 0AC      0.474000
     31 C1          2.1500   -0.5150   -0.1050 c3        1 0AC     -0.096400
     32 CA1         3.4460   -0.1270   -0.7800 c3        1 0AC     -0.205400
@<TRIPOS>BOND
     1    1    2 1   
     2    1   15 1   
     3    1   16 1   
     4    2    3 1   
     5    2   10 1   
     6    2   17 1   
     7    3    4 1   
     8    3   18 1   
     9    3   19 1   
    10    4    5 ar  
    11    4    6 ar  
    12    5    7 ar  
    13    5   21 1   
    14    6    8 ar  
    15    6   22 1   
    16    7    9 ar  
    17    7   23 1   
    18    8    9 ar  
    19    8   24 1   
    20    9   25 1   
    21   10   11 1   
    22   10   20 1   
    23   10   31 1   
    24   11   30 1   
    25   12   13 1   
    26   12   14 1   
    27   12   32 1   
    28   26   31 1   
    29   27   31 1   
    30   28   32 1   
    31   29   32 1   
    32   31   32 1   
@<TRIPOS>SUBSTRUCTURE
     1 0AC         1 TEMP              0 ****  ****    0 ROOT
