@<TRIPOS>MOLECULE
0AC
   32    30     1     0     0
SMALL
bcc


@<TRIPOS>ATOM
      1 N          -1.9690   -0.3400   -0.0790 n3        1 0AC     -0.326000
      2 CA         -0.5460   -0.3540   -0.0560 c3        1 0AC     -0.028000
      3 CB         -0.0650   -0.3540    1.3770 c3        1 0AC     -0.122000
      4 CG         -0.0890    1.0590    1.9170 c2        1 0AC     -0.037000
      5 CD1        -1.1800    1.5030    2.6480 c2        1 0AC     -0.121000
      6 CD2         1.0020    1.8920    1.7260 c1        1 0AC     -0.128000
      7 CE1        -1.1790    2.7790    3.1890 c1        1 0AC     -0.135000
      8 CE2         1.0030    3.1680    2.2660 c1        1 0AC     -0.139000
      9 CZ         -0.0880    3.6120    2.9980 c1        1 0AC     -0.139000
     10 C1          0.1400   -1.3040   -2.2290 c3        1 0AC     -0.183000
     11 C2         -0.0440   -1.5950   -0.7570 c3        1 0AC     -0.016000
     12 O          -0.9790   -2.6350   -0.5970 oh        1 0AC     -0.361000
     13 CA1         1.2250   -2.1970   -2.7880 c3        1 0AC     -0.233000
     14 C           1.5610   -1.7610   -4.1980 c2        1 0AC      0.331000
     15 O1          2.4970   -0.9420   -4.3970 o         1 0AC     -0.580000
     16 OXT         0.8950   -2.2040   -5.1700 o         1 0AC     -0.580000
     17 HN1        -2.2600    0.4000   -0.5340 hn        1 0AC      0.144000
     18 HN2        -2.2750   -1.0950   -0.4970 hn        1 0AC      0.144000
     19 HA         -0.2050    0.4390   -0.5150 h1        1 0AC      0.101000
     20 HBC1       -0.6520   -0.9200    1.9170 hc        1 0AC      0.093000
     21 HBC2        0.8480   -0.7020    1.4140 hc        1 0AC      0.093000
     22 H2          0.8120   -1.8640   -0.3680 h1        1 0AC      0.074000
     23 HD1        -1.9550    0.9220    2.7690 ha        1 0AC      0.130000
     24 HD2         1.7680    1.5820    1.2050 ha        1 0AC      0.133000
     25 HE1        -1.9400    3.0850    3.7190 ha        1 0AC      0.119000
     26 HE2         1.7770    3.7500    2.1430 ha        1 0AC      0.119500
     27 HZ         -0.1740    4.5400    3.2880 ha        1 0AC      0.119500
     28 H1C1        0.3960   -0.3670   -2.3470 hc        1 0AC      0.097500
     29 H1C2       -0.6990   -1.4740   -2.7020 hc        1 0AC      0.097500
     30 HA11        0.9110   -3.1230   -2.8000 hc        1 0AC      0.060000
     31 HA12        2.0240   -2.1300   -2.2270 hc        1 0AC      0.060000
     32 H          -0.5620   -3.3680   -0.3130 ho        1 0AC      0.213000
@<TRIPOS>BOND
     1    1    2 1   
     2    1   17 1   
     3    1   18 1   
     4    2    3 1   
     5    2   11 1   
     6    2   19 1   
     7    3    4 1   
     8    3   20 1   
     9    3   21 1   
    10    4    5 1   
    11    4    6 1   
    12    5    7 1   
    13    5   23 1   
    14    6   24 1   
    15    7   25 1   
    16    8    9 1   
    17    8   26 1   
    18    9   27 1   
    19   10   11 1   
    20   10   13 1   
    21   10   28 1   
    22   10   29 1   
    23   11   12 1   
    24   11   22 1   
    25   12   32 1   
    26   13   14 1   
    27   13   30 1   
    28   13   31 1   
    29   14   15 1   
    30   14   16 1   
@<TRIPOS>SUBSTRUCTURE
     1 0AC         1 TEMP              0 ****  ****    0 ROOT
