@<TRIPOS>MOLECULE
0AD
   44    46     1     0     0
SMALL
bcc


@<TRIPOS>ATOM
      1 P           5.3400   -0.0200   -1.4310 p5        1 0AD      1.331900
      2 OP1         4.5020   -1.1730   -1.9500 o         1 0AD     -0.930167
      3 OP2         5.0260    1.3000   -2.0710 o         1 0AD     -0.930167
      4 O5'         4.5560    0.1590    0.1230 os        1 0AD     -0.553200
      5 C5'         3.2300    0.4700    0.0350 c3        1 0AD      0.229400
      6 C4'         2.3600   -0.7870    0.2800 c3        1 0AD      0.054100
      7 O4'         1.1890   -0.4330    1.0670 os        1 0AD     -0.433600
      8 C3'         1.8710   -1.4680   -1.0130 c3        1 0AD      0.158100
      9 O3'         2.4110   -2.7640   -1.1430 oh        1 0AD     -0.674800
     10 C2'         0.3470   -1.5900   -0.8610 c3        1 0AD     -0.128400
     11 C1'        -0.0060   -0.7300    0.3690 c3        1 0AD      0.251800
     12 N9         -0.6990    0.5220    0.0420 na        1 0AD     -0.181900
     13 C8         -0.1270    1.7650   -0.2920 cc        1 0AD      0.451400
     14 N7         -1.0450    2.7430   -0.4770 nd        1 0AD     -0.632000
     15 C5         -2.2740    2.1260   -0.2520 cd        1 0AD      0.195800
     16 C6         -3.6200    2.6500   -0.3100 c         1 0AD      0.645000
     17 O6         -4.0010    3.8050   -0.5740 o         1 0AD     -0.644500
     18 N1         -4.6280    1.6970   -0.0090 n         1 0AD     -0.502400
     19 C2         -4.3360    0.3480    0.2910 cd        1 0AD      0.608800
     20 N2         -5.4980   -0.4890    0.4880 nh        1 0AD     -0.784200
     21 C4A        -5.2650   -1.9220    0.4700 c3        1 0AD      0.173800
     22 C5A        -6.5670   -2.7120    0.6190 c3        1 0AD     -0.086400
     23 N3         -3.0990   -0.1620    0.3680 nc        1 0AD     -0.618100
     24 C4         -2.0770    0.7320    0.0800 cc        1 0AD      0.050800
     25 C6A        -6.2790   -4.1900    0.5530 c3        1 0AD     -0.093100
     26 OP3         6.7610   -0.3220   -1.0750 o         1 0AD     -0.930167
     27 H5'1        2.9580    1.2170    0.8410 h1        1 0AD     -0.003800
     28 H5'2        2.9830    0.9160   -0.9710 h1        1 0AD     -0.003800
     29 H4'         2.9290   -1.5150    0.9180 h1        1 0AD      0.082700
     30 H3'         2.1490   -0.8550   -1.9150 h1        1 0AD      0.105700
     31 H1'        -0.6780   -1.2790    1.0930 h2        1 0AD      0.065700
     32 HA          3.3390   -2.6250   -1.4460 ho        1 0AD      0.502000
     33 H2'1       -0.1750   -1.2580   -1.7880 hc        1 0AD      0.053700
     34 H2'2        0.0600   -2.6500   -0.6550 hc        1 0AD      0.053700
     35 H8          0.9710    1.8710   -0.3770 h5        1 0AD      0.117100
     36 H1         -5.5750    1.9860   -0.1020 hn        1 0AD      0.321500
     37 H2         -5.9820   -0.2090    1.3220 hn        1 0AD      0.376800
     38 H4A1       -4.7880   -2.1800   -0.5170 h1        1 0AD      0.059200
     39 H4A2       -4.5560   -2.2520    1.2850 h1        1 0AD      0.059200
     40 H5A1       -7.0580   -2.4670    1.5970 hc        1 0AD      0.037700
     41 H5A2       -7.2840   -2.4290   -0.1960 hc        1 0AD      0.037700
     42 H17        -5.8090   -4.4570   -0.4240 hc        1 0AD      0.035033
     43 H18        -5.5820   -4.4950    1.3710 hc        1 0AD      0.035033
     44 H19        -7.2260   -4.7720    0.6610 hc        1 0AD      0.035033
@<TRIPOS>BOND
     1    1    2 1   
     2    1    3 1   
     3    1    4 1   
     4    1   26 1   
     5    4    5 1   
     6    5    6 1   
     7    5   27 1   
     8    5   28 1   
     9    6    7 1   
    10    6    8 1   
    11    6   29 1   
    12    7   11 1   
    13    8    9 1   
    14    8   10 1   
    15    8   30 1   
    16    9   32 1   
    17   10   11 1   
    18   10   33 1   
    19   10   34 1   
    20   11   12 1   
    21   11   31 1   
    22   12   13 1   
    23   12   24 1   
    24   13   14 2   
    25   13   35 1   
    26   14   15 1   
    27   15   16 1   
    28   15   24 2   
    29   16   17 2   
    30   16   18 1   
    31   18   19 1   
    32   18   36 1   
    33   19   20 1   
    34   19   23 2   
    35   20   21 1   
    36   20   37 1   
    37   21   22 1   
    38   21   38 1   
    39   21   39 1   
    40   22   25 1   
    41   22   40 1   
    42   22   41 1   
    43   23   24 1   
    44   25   42 1   
    45   25   43 1   
    46   25   44 1   
@<TRIPOS>SUBSTRUCTURE
     1 0AD         1 TEMP              0 ****  ****    0 ROOT
