@<TRIPOS>MOLECULE
0AD
   44    42     1     0     0
SMALL
bcc


@<TRIPOS>ATOM
      1 P          -4.1650    1.6330    5.9360 p3        1 0AD      2.524000
      2 OP1        -3.7810    2.3590    7.2070 os        1 0AD     -1.276000
      3 OP2        -5.2670    0.6470    6.2320 o         1 0AD     -1.236500
      4 O5'        -2.8960    0.8560    5.3650 os        1 0AD     -0.715000
      5 C5'        -2.0770    1.5090    4.4360 c3        1 0AD      0.079000
      6 C4'        -1.1610    0.4880    3.7570 c3        1 0AD     -0.058000
      7 O4'        -1.6200    0.1860    2.6240 os        1 0AD     -0.290000
      8 C3'         0.3150    1.1430    3.4940 c3        1 0AD      0.047000
      9 O3'         1.1610    1.0290    4.7400 oh        1 0AD     -0.401000
     10 C2'         0.8110    0.5020    2.5930 c3        1 0AD     -0.208000
     11 C1'        -0.4080   -0.0520    1.7700 c3        1 0AD      0.160000
     12 N9         -0.5190    0.6000    0.6230 n3        1 0AD     -0.136000
     13 C8         -1.3840    1.6450    0.5950 c1        1 0AD     -0.035000
     14 N7         -1.6080    1.9720   -0.7040 n2        1 0AD     -0.106000
     15 C5         -0.8850    1.1330   -1.4760 c1        1 0AD     -0.217000
     16 C6         -0.6550    1.0850   -2.9600 c1        1 0AD      0.390000
     17 O6         -1.1920    1.8930   -3.6820 o         1 0AD     -0.368000
     18 N1          0.2320    0.1500   -3.4970 n3        1 0AD     -0.331000
     19 C2          0.9150   -0.7580   -2.6380 c2        1 0AD      0.150000
     20 N2          1.8850   -1.6380   -3.1710 n3        1 0AD     -0.258000
     21 C4A         1.7170   -2.1820   -4.5320 c3        1 0AD     -0.076000
     22 C5A         3.0870   -2.5440   -5.1070 c3        1 0AD     -0.165000
     23 N3          0.6900   -0.7140   -1.2180 n1        1 0AD     -0.188000
     24 C4         -0.2090    0.2810   -0.6540 c1        1 0AD     -0.004000
     25 C6A         2.9420   -2.9190   -6.5740 c3        1 0AD     -0.210000
     26 OP3        -4.6480    2.6340    4.9090 o         1 0AD     -1.236500
     27 H5'1       -2.6380    1.9500    3.7550 h1        1 0AD      0.035500
     28 H5'2       -1.5340    2.1790    4.8940 h1        1 0AD      0.035500
     29 H4'        -1.0790   -0.3180    4.3150 h1        1 0AD      0.122000
     30 H3'         0.2270    2.0610    3.2370 h1        1 0AD      0.145000
     31 H1'        -0.2960   -1.0140    1.6040 h2        1 0AD      0.106000
     32 HA          1.8140    1.6500    4.7170 ho        1 0AD      0.301000
     33 H2'1        1.3700    1.0840    2.0280 hc        1 0AD      0.093500
     34 H2'2        1.3480   -0.2460    2.9560 hc        1 0AD      0.093500
     35 H8         -1.8210    2.0350    1.3600 DU        1 0AD      0.255000
     36 H1          0.4320    0.1740   -4.3690 hn        1 0AD      0.238000
     37 H2          2.5860   -1.9160   -2.6510 hn        1 0AD      0.191000
     38 H4A1        1.1540   -2.9890   -4.4960 h1        1 0AD      0.082500
     39 H4A2        1.2870   -1.5060   -5.1050 h1        1 0AD      0.082500
     40 H5A1        3.4530   -3.2950   -4.6180 hc        1 0AD      0.085500
     41 H5A2        3.6850   -1.7830   -5.0250 hc        1 0AD      0.085500
     42 H17         2.5270   -2.1790   -7.0630 hc        1 0AD      0.072333
     43 H18         2.3770   -3.7200   -6.6520 hc        1 0AD      0.072333
     44 H19         3.8280   -3.1050   -6.9540 hc        1 0AD      0.072333
@<TRIPOS>BOND
     1    1    3 1   
     2    1    4 1   
     3    1   26 1   
     4    4    5 1   
     5    5    6 1   
     6    5   27 1   
     7    5   28 1   
     8    6    7 1   
     9    6    8 1   
    10    6   29 1   
    11    7   11 1   
    12    8    9 1   
    13    8   10 1   
    14    8   30 1   
    15    9   32 1   
    16   10   11 1   
    17   10   33 1   
    18   10   34 1   
    19   11   12 1   
    20   11   31 1   
    21   12   13 1   
    22   12   24 1   
    23   13   14 1   
    24   14   15 1   
    25   15   24 1   
    26   16   17 1   
    27   16   18 1   
    28   18   19 1   
    29   18   36 1   
    30   19   20 1   
    31   19   23 1   
    32   20   21 1   
    33   20   37 1   
    34   21   22 1   
    35   21   38 1   
    36   21   39 1   
    37   22   25 1   
    38   22   40 1   
    39   22   41 1   
    40   25   42 1   
    41   25   43 1   
    42   25   44 1   
@<TRIPOS>SUBSTRUCTURE
     1 0AD         1 TEMP              0 ****  ****    0 ROOT
