@<TRIPOS>MOLECULE
0AF
   27    28     1     0     0
SMALL
bcc


@<TRIPOS>ATOM
      1 N          -2.7780   -0.4630   -1.6700 n3        1 0AF     -0.901800
      2 CA         -2.6240   -0.4380   -0.2210 c3        1 0AF      0.017500
      3 C          -3.9020    0.0370    0.5530 c         1 0AF      0.889600
      4 O          -4.9590    0.2310   -0.1140 o         1 0AF     -0.841300
      5 CB         -1.4400    0.4040    0.2600 c3        1 0AF     -0.010200
      6 CG         -0.1190   -0.0970   -0.1430 cc        1 0AF     -0.102400
      7 CD1         0.1780   -1.1490   -1.0110 cd        1 0AF     -0.095100
      8 CD2         1.1490    0.4390    0.3140 ca        1 0AF     -0.069800
      9 NE1         1.5640   -1.3110   -1.1240 na        1 0AF     -0.191400
     10 CE2         2.1800   -0.3470   -0.3290 ca        1 0AF     -0.074200
     11 CE3         1.5110    1.4720    1.1820 ca        1 0AF     -0.101000
     12 CZ2         3.5380   -0.0630   -0.0850 ca        1 0AF      0.094100
     13 O1          4.4790   -0.8430   -0.7310 oh        1 0AF     -0.518100
     14 CZ3         2.8540    1.7290    1.4050 ca        1 0AF     -0.145000
     15 CH2         3.8650    0.9750    0.7820 ca        1 0AF     -0.212000
     16 OXT        -3.8100    0.1770    1.8030 o         1 0AF     -0.841300
     17 HN1        -3.7250   -0.7510   -1.8630 hn        1 0AF      0.334300
     18 HN2        -2.6920    0.4750   -2.0200 hn        1 0AF      0.334300
     19 HA         -2.4460   -1.5080    0.0950 h1        1 0AF      0.041700
     20 HBC1       -1.5560    1.4620   -0.1040 hc        1 0AF      0.062200
     21 HBC2       -1.5020    0.4360    1.3850 hc        1 0AF      0.062200
     22 HD1        -0.5090   -1.7970   -1.5620 h4        1 0AF      0.190000
     23 HE1         2.0380   -1.9580   -1.6920 hn        1 0AF      0.294700
     24 HE3         0.7270    2.0620    1.6770 ha        1 0AF      0.143000
     25 HZ3         3.1500    2.5390    2.0870 ha        1 0AF      0.117000
     26 H1          5.3490   -0.5350   -0.4460 ho        1 0AF      0.409000
     27 HH2         4.9190    1.2080    0.9820 ha        1 0AF      0.114000
@<TRIPOS>BOND
     1    1    2 1   
     2    1   17 1   
     3    1   18 1   
     4    2    3 1   
     5    2    5 1   
     6    2   19 1   
     7    3    4 1   
     8    3   16 1   
     9    5    6 1   
    10    5   20 1   
    11    5   21 1   
    12    6    7 2   
    13    6    8 1   
    14    7    9 1   
    15    7   22 1   
    16    8   10 ar  
    17    8   11 ar  
    18    9   10 1   
    19    9   23 1   
    20   10   12 ar  
    21   11   14 ar  
    22   11   24 1   
    23   12   13 1   
    24   12   15 ar  
    25   13   26 1   
    26   14   15 ar  
    27   14   25 1   
    28   15   27 1   
@<TRIPOS>SUBSTRUCTURE
     1 0AF         1 TEMP              0 ****  ****    0 ROOT
