@<TRIPOS>MOLECULE
0AG
   30    29     1     0     0
SMALL
bcc


@<TRIPOS>ATOM
      1 C3         -4.4170   -1.3600   -2.9280 c3        1 0AG     -0.098100
      2 C4         -2.9640   -0.9420   -2.8900 c3        1 0AG      0.153400
      3 O2         -2.4820   -1.0370   -1.5700 os        1 0AG     -0.462900
      4 C1         -1.1650   -0.5720   -1.4100 c         1 0AG      0.718100
      5 O1         -0.5530   -0.1400   -2.3660 o         1 0AG     -0.631000
      6 N          -0.5520   -0.6060   -0.1310 n         1 0AG     -0.475900
      7 CA          0.7770   -0.1340    0.0310 c3        1 0AG     -0.055300
      8 C           1.7430   -1.1260   -0.5780 c         1 0AG      0.910600
      9 O           1.7120   -2.3340   -0.2240 o         1 0AG     -0.826300
     10 CB          1.0800    0.0240    1.5050 c3        1 0AG     -0.065400
     11 CG          1.9150    1.2670    1.7180 c3        1 0AG     -0.078700
     12 CD1         1.1840    2.2130    2.6450 c3        1 0AG     -0.081100
     13 CD2         3.2430    0.8840    2.3320 c3        1 0AG     -0.081100
     14 OXT         2.5790   -0.7440   -1.4380 o         1 0AG     -0.826300
     15 H31        -4.5330   -2.1850   -2.4110 hc        1 0AG      0.037700
     16 H32        -4.6880   -1.5160   -3.8570 hc        1 0AG      0.037700
     17 H33        -4.9710   -0.6510   -2.5400 hc        1 0AG      0.037700
     18 H41        -2.8820   -0.0160   -3.2020 h1        1 0AG      0.041200
     19 H42        -2.4390   -1.5290   -3.4720 h1        1 0AG      0.041200
     20 H          -1.0120   -0.9300    0.5870 hn        1 0AG      0.337500
     21 HA          0.8730    0.7300   -0.4160 h1        1 0AG      0.059700
     22 HBC1        0.2420    0.1050    2.0030 hc        1 0AG      0.053200
     23 HBC2        1.5740   -0.7590    1.8220 hc        1 0AG      0.053200
     24 HG          2.0680    1.7070    0.8600 hc        1 0AG      0.066700
     25 HD11        0.9430    1.7400    3.4700 hc        1 0AG      0.022367
     26 HD12        1.7650    2.9720    2.8620 hc        1 0AG      0.022367
     27 HD13        0.3710    2.5380    2.2060 hc        1 0AG      0.022367
     28 HD21        3.7520    0.3380    1.6970 hc        1 0AG      0.022367
     29 HD22        3.7500    1.6950    2.5460 hc        1 0AG      0.022367
     30 HD23        3.0870    0.3700    3.1520 hc        1 0AG      0.022367
@<TRIPOS>BOND
     1    1    2 1   
     2    1   15 1   
     3    1   16 1   
     4    1   17 1   
     5    2    3 1   
     6    2   18 1   
     7    2   19 1   
     8    3    4 1   
     9    4    5 2   
    10    4    6 1   
    11    6    7 1   
    12    6   20 1   
    13    7    8 1   
    14    7   10 1   
    15    7   21 1   
    16    8    9 1   
    17    8   14 1   
    18   10   11 1   
    19   10   22 1   
    20   10   23 1   
    21   11   12 1   
    22   11   13 1   
    23   11   24 1   
    24   12   25 1   
    25   12   26 1   
    26   12   27 1   
    27   13   28 1   
    28   13   29 1   
    29   13   30 1   
@<TRIPOS>SUBSTRUCTURE
     1 0AG         1 TEMP              0 ****  ****    0 ROOT
