@<TRIPOS>MOLECULE
0AG
   30    29     1     0     0
SMALL
bcc


@<TRIPOS>ATOM
      1 C3          4.8590    0.7380   -0.3700 c3        1 0AG     -0.098100
      2 C4          3.5840    0.8650    0.4290 c3        1 0AG      0.153400
      3 O2          2.5480    0.2920   -0.3750 os        1 0AG     -0.460900
      4 C1          1.2760    0.3110    0.1970 c         1 0AG      0.718100
      5 O1          1.1920    0.7810    1.3490 o         1 0AG     -0.629000
      6 N           0.2920   -0.1000   -0.6700 n         1 0AG     -0.467900
      7 CA         -0.9730   -0.5860   -0.1320 c3        1 0AG     -0.063300
      8 C          -1.2880   -2.0580   -0.6030 c         1 0AG      0.908600
      9 O          -0.5890   -2.5550   -1.5280 o         1 0AG     -0.826800
     10 CB         -2.1620    0.2820   -0.5510 c3        1 0AG     -0.060400
     11 CG         -2.1170    1.7150   -0.0450 c3        1 0AG     -0.067700
     12 CD1        -3.3230    2.4760   -0.5630 c3        1 0AG     -0.090100
     13 CD2        -2.0660    1.7780    1.4660 c3        1 0AG     -0.090100
     14 OXT        -2.2320   -2.6380   -0.0060 o         1 0AG     -0.826800
     15 H31         4.7720    1.2900   -1.3360 hc        1 0AG      0.038033
     16 H32         5.7060    1.1620    0.2200 hc        1 0AG      0.038033
     17 H33         5.0710   -0.3340   -0.5990 hc        1 0AG      0.038033
     18 H41         3.6450    0.3070    1.4010 h1        1 0AG      0.041700
     19 H42         3.3320    1.9370    0.6440 h1        1 0AG      0.041700
     20 H           0.6090   -0.6430   -1.4580 hn        1 0AG      0.331500
     21 HA         -0.9200   -0.6010    0.9950 h1        1 0AG      0.065700
     22 HBC1       -2.2380    0.2950   -1.6700 hc        1 0AG      0.050700
     23 HBC2       -3.0790   -0.2310   -0.1530 hc        1 0AG      0.050700
     24 HG         -1.1900    2.2120   -0.4490 hc        1 0AG      0.046700
     25 HD11       -4.2660    2.0220   -0.1760 hc        1 0AG      0.026867
     26 HD12       -3.2830    3.5420   -0.2340 hc        1 0AG      0.026867
     27 HD13       -3.3510    2.4490   -1.6790 hc        1 0AG      0.026867
     28 HD21       -1.0780    1.4010    1.8310 hc        1 0AG      0.026867
     29 HD22       -2.1950    2.8310    1.8170 hc        1 0AG      0.026867
     30 HD23       -2.8760    1.1530    1.9130 hc        1 0AG      0.026867
@<TRIPOS>BOND
     1    1    2 1   
     2    1   15 1   
     3    1   16 1   
     4    1   17 1   
     5    2    3 1   
     6    2   18 1   
     7    2   19 1   
     8    3    4 1   
     9    4    5 2   
    10    4    6 1   
    11    6    7 1   
    12    6   20 1   
    13    7    8 1   
    14    7   10 1   
    15    7   21 1   
    16    8    9 1   
    17    8   14 1   
    18   10   11 1   
    19   10   22 1   
    20   10   23 1   
    21   11   12 1   
    22   11   13 1   
    23   11   24 1   
    24   12   25 1   
    25   12   26 1   
    26   12   27 1   
    27   13   28 1   
    28   13   29 1   
    29   13   30 1   
@<TRIPOS>SUBSTRUCTURE
     1 0AG         1 TEMP              0 ****  ****    0 ROOT
