@<TRIPOS>MOLECULE
0AH
   18    17     1     0     0
SMALL
bcc


@<TRIPOS>ATOM
      1 N           2.4260    1.6400   -0.3160 n3        1 0AH     -0.905800
      2 CA          2.7460    0.4150    0.3990 c3        1 0AH     -0.009500
      3 C           4.1740   -0.1700    0.1220 c         1 0AH      0.895600
      4 O           5.0010    0.5630   -0.4870 o         1 0AH     -0.835300
      5 CB          1.7400   -0.7080    0.1540 c3        1 0AH      0.150400
      6 C1         -0.3810    0.3650   -0.1780 c         1 0AH      0.650100
      7 O1         -0.1540    0.4400   -1.3880 o         1 0AH     -0.539000
      8 O2          0.4340   -0.3370    0.6470 os        1 0AH     -0.436900
      9 C2         -1.5300    0.9920    0.5530 c3        1 0AH     -0.067000
     10 BR2        -3.1740    0.0110    0.3660 br        1 0AH     -0.161400
     11 OXT         4.4110   -1.3340    0.5460 o         1 0AH     -0.835300
     12 HN1         3.2790    2.1700   -0.4020 hn        1 0AH      0.343300
     13 HN2         2.1280    1.4090   -1.2480 hn        1 0AH      0.343300
     14 HA          2.7210    0.6750    1.4980 h1        1 0AH      0.051700
     15 HBC1        1.6770   -0.9910   -0.9270 h1        1 0AH      0.076700
     16 HBC2        2.0110   -1.5980    0.7830 h1        1 0AH      0.076700
     17 H2C1       -1.3060    1.0520    1.6440 h1        1 0AH      0.100200
     18 H2C2       -1.7050    2.0120    0.1370 h1        1 0AH      0.100200
@<TRIPOS>BOND
     1    1    2 1   
     2    1   12 1   
     3    1   13 1   
     4    2    3 1   
     5    2    5 1   
     6    2   14 1   
     7    3    4 1   
     8    3   11 1   
     9    5    8 1   
    10    5   15 1   
    11    5   16 1   
    12    6    7 2   
    13    6    8 1   
    14    6    9 1   
    15    9   10 1   
    16    9   17 1   
    17    9   18 1   
@<TRIPOS>SUBSTRUCTURE
     1 0AH         1 TEMP              0 ****  ****    0 ROOT
