@<TRIPOS>MOLECULE
0AI
   31    31     1     0     0
SMALL
bcc


@<TRIPOS>ATOM
      1 O6          3.6130    0.5710    0.9790 o         1 0AI     -0.818300
      2 C6          3.2640   -0.2330    0.0720 c         1 0AI      0.936600
      3 O5          1.0470   -1.0400    0.5360 os        1 0AI     -0.402600
      4 C1         -0.3170   -1.1930    0.2410 c3        1 0AI      0.317900
      5 C5          1.7710   -0.2220   -0.3870 c3        1 0AI     -0.027900
      6 C2         -1.0690    0.1630    0.1160 c3        1 0AI      0.051700
      7 N2         -2.4540   -0.0360   -0.2340 n         1 0AI     -0.543900
      8 C7         -3.5030    0.5070    0.4710 c         1 0AI      0.659100
      9 O7         -3.3530    1.0600    1.5810 o         1 0AI     -0.623100
     10 C8         -4.8810    0.3660   -0.1400 c3        1 0AI     -0.176100
     11 C3         -0.3110    1.0700   -0.8890 c3        1 0AI      0.120100
     12 O3         -0.9180    2.3440   -0.9750 oh        1 0AI     -0.614800
     13 C4          1.1650    1.1790   -0.4530 c3        1 0AI      0.117100
     14 O4          1.1680    1.8830    0.7750 oh        1 0AI     -0.655800
     15 H1         -0.7310   -1.8190    1.0820 h2        1 0AI      0.064700
     16 H2         -1.0120    0.6580    1.1330 h1        1 0AI      0.116700
     17 H3         -0.3700    0.6430   -1.9270 h1        1 0AI      0.071700
     18 HA         -2.6190   -0.3940   -1.1450 hn        1 0AI      0.309500
     19 H4          1.7300    1.7930   -1.2100 h1        1 0AI      0.048700
     20 HB         -0.7210    2.8040   -0.1470 ho        1 0AI      0.422000
     21 H5          1.7060   -0.6900   -1.4090 h1        1 0AI      0.046700
     22 HC          1.9600    1.6020    1.2690 ho        1 0AI      0.471000
     23 H8C1       -5.1180   -0.7060   -0.3410 hc        1 0AI      0.056700
     24 H8C2       -5.6340    0.7770    0.5750 hc        1 0AI      0.056700
     25 H8C3       -4.9370    0.9380   -1.0970 hc        1 0AI      0.056700
     26 HMC1        0.1170   -3.4910   -2.0750 h1        1 0AI      0.036033
     27 HMC2        1.3110   -3.0200   -0.7540 h1        1 0AI      0.036033
     28 HMC3       -0.2700   -3.8400   -0.3120 h1        1 0AI      0.036033
     29 O71         4.0240   -1.0300   -0.5330 o         1 0AI     -0.818300
     30 O1         -0.4270   -1.8780   -1.0020 os        1 0AI     -0.471600
     31 CM          0.2310   -3.1350   -1.0210 c3        1 0AI      0.121700
@<TRIPOS>BOND
     1    1    2 1   
     2    2    5 1   
     3    2   29 1   
     4    3    4 1   
     5    3    5 1   
     6    4    6 1   
     7    4   15 1   
     8    4   30 1   
     9    5   13 1   
    10    5   21 1   
    11    6    7 1   
    12    6   11 1   
    13    6   16 1   
    14    7    8 1   
    15    7   18 1   
    16    8    9 2   
    17    8   10 1   
    18   10   23 1   
    19   10   24 1   
    20   10   25 1   
    21   11   12 1   
    22   11   13 1   
    23   11   17 1   
    24   12   20 1   
    25   13   14 1   
    26   13   19 1   
    27   14   22 1   
    28   26   31 1   
    29   27   31 1   
    30   28   31 1   
    31   30   31 1   
@<TRIPOS>SUBSTRUCTURE
     1 0AI         1 TEMP              0 ****  ****    0 ROOT
