@<TRIPOS>MOLECULE
0AI
   31    28     1     0     0
SMALL
bcc


@<TRIPOS>ATOM
      1 O6          2.5890   -1.1520   -1.9240 o         1 0AI     -0.577500
      2 C6          2.7150   -1.6360   -0.7690 c2        1 0AI      0.335000
      3 O5         -0.1760    1.2100    3.5410 o         1 0AI     -0.355000
      4 C1          0.9690    1.2480    3.9740 c2        1 0AI      0.116000
      5 C5          1.6830   -1.2170    0.2910 c3        1 0AI     -0.266000
      6 C2          2.8740   -0.7940    3.7590 c1        1 0AI     -0.061000
      7 N2          3.3500   -1.5370    4.7450 n         1 0AI     -0.226000
      8 C7          3.0530   -1.3100    6.1190 c2        1 0AI      0.303000
      9 O7          2.3330   -0.3770    6.4890 o         1 0AI     -0.271000
     10 C8          3.6750   -2.2810    7.0890 c3        1 0AI     -0.254000
     11 C3          3.1920   -1.1000    2.3250 c3        1 0AI     -0.029000
     12 O3          4.3530   -1.9100    2.2280 oh        1 0AI     -0.404000
     13 C4          1.9750   -1.7980    1.6610 c3        1 0AI      0.026000
     14 O4          0.8410   -1.7550    2.5140 oh        1 0AI     -0.354000
     15 H1          0.6800   -1.5810   -0.0470 hc        1 0AI      0.085500
     16 H2          1.8320    0.4520    3.9940 h5        1 0AI      0.318000
     17 H3          3.3960   -0.1110    1.8190 h1        1 0AI      0.118000
     18 HA          3.9530   -2.3220    4.5620 hn        1 0AI      0.214000
     19 H4          0.4670   -0.8650    2.4640 ho        1 0AI      0.211000
     20 HB          4.4200   -2.2090    1.2990 ho        1 0AI      0.284000
     21 H5          1.6430   -0.1010    0.3340 hc        1 0AI      0.085500
     22 HC          2.2140   -2.8980    1.5630 h1        1 0AI      0.137000
     23 H8C1        4.7890   -2.2610    7.0040 hc        1 0AI      0.111000
     24 H8C2        3.3830   -1.9910    8.1280 hc        1 0AI      0.111000
     25 H8C3        3.3130   -3.3180    6.8860 hc        1 0AI      0.111000
     26 HMC1        2.2950    2.0140    6.6640 ha        1 0AI      0.001000
     27 HMC2       -0.4950    3.3860    4.2950 ha        1 0AI      0.008000
     28 HMC3        2.5840    1.9570    7.2740 ha        1 0AI      0.001000
     29 O71         3.6350   -2.4510   -0.4450 o         1 0AI     -0.577500
     30 O1          1.3340    2.4900    4.5640 os        1 0AI     -0.177000
     31 CM          0.5480    3.5030    4.6860 c1        1 0AI     -0.025000
@<TRIPOS>BOND
     1    1    2 1   
     2    2    5 1   
     3    2   29 1   
     4    3    4 1   
     5    4   16 1   
     6    4   30 1   
     7    5   13 1   
     8    5   15 1   
     9    5   21 1   
    10    6    7 1   
    11    6   11 1   
    12    7    8 1   
    13    7   18 1   
    14    8    9 1   
    15    8   10 1   
    16   10   23 1   
    17   10   24 1   
    18   10   25 1   
    19   11   12 1   
    20   11   13 1   
    21   11   17 1   
    22   12   20 1   
    23   13   14 1   
    24   13   22 1   
    25   14   19 1   
    26   26   28 1   
    27   27   31 1   
    28   30   31 1   
@<TRIPOS>SUBSTRUCTURE
     1 0AI         1 TEMP              0 ****  ****    0 ROOT
