@<TRIPOS>MOLECULE
0AI
   31    29     1     0     0
SMALL
bcc


@<TRIPOS>ATOM
      1 O6         -0.1660   -0.6910   -3.9340 o         1 0AI     -0.558500
      2 C6         -0.7990    0.0290   -3.1180 c1        1 0AI      0.310000
      3 O5         -0.9260    1.2170   -0.9640 os        1 0AI     -0.294000
      4 C1         -1.2210    0.0890   -0.0660 c3        1 0AI      0.119000
      5 C5         -0.0620    0.8450   -2.1310 c2        1 0AI     -0.082000
      6 O1         -1.9170    0.5800    1.0700 os        1 0AI     -0.289000
      7 CM         -3.3570    0.5510    0.9340 c3        1 0AI     -0.072000
      8 C2          0.0040   -0.6260    0.3940 c3        1 0AI     -0.035000
      9 N2          0.7720    0.2810    1.3170 n3        1 0AI     -0.335000
     10 C7          1.2340   -0.2090    2.5960 c1        1 0AI      0.297000
     11 O7          1.0030   -1.3540    2.9270 o         1 0AI     -0.385000
     12 C8          1.9780    0.7520    3.5790 c2        1 0AI     -0.244000
     13 C3          0.8790   -1.0220   -0.7040 c3        1 0AI      0.009000
     14 O3          0.2080   -2.0880   -1.4860 oh        1 0AI     -0.349000
     15 C4          1.2010    0.1070   -1.6140 c3        1 0AI      0.003000
     16 O4          1.9270   -0.4000   -2.7360 oh        1 0AI     -0.352000
     17 H1         -1.7940   -0.5430   -0.5360 h2        1 0AI      0.124000
     18 H2         -0.2660   -1.4340    0.8930 h1        1 0AI      0.140000
     19 H3          1.7090   -1.3780   -0.3350 h1        1 0AI      0.107000
     20 HA          0.9680    1.1390    1.0580 hn        1 0AI      0.223000
     21 H4          1.7640    0.7450   -1.1380 h1        1 0AI      0.088000
     22 HB          0.6720   -2.8550   -1.4090 ho        1 0AI      0.245000
     23 H5          0.1730    1.6300   -2.6690 h4        1 0AI      0.113000
     24 HC          2.7230    0.0100   -2.7870 ho        1 0AI      0.251000
     25 H8C1        1.4240    1.5500    3.7390 ha        1 0AI      0.096000
     26 H8C2        2.1400    0.2870    4.4350 ha        1 0AI      0.096000
     27 H8C3        2.8380    1.0240    3.1840 ha        1 0AI      0.096000
     28 HMC1       -3.6190    1.0290    0.1130 h1        1 0AI      0.079000
     29 HMC2       -3.7690    0.9890    1.7140 h1        1 0AI      0.079000
     30 HMC3       -3.6620   -0.3800    0.8810 h1        1 0AI      0.079000
     31 O71        -2.0580    0.1260   -3.2060 o         1 0AI     -0.558500
@<TRIPOS>BOND
     1    1    2 1   
     2    2   31 1   
     3    3    4 1   
     4    3    5 1   
     5    4    6 1   
     6    4    8 1   
     7    4   17 1   
     8    5   15 1   
     9    5   23 1   
    10    6    7 1   
    11    7   28 1   
    12    7   29 1   
    13    7   30 1   
    14    8    9 1   
    15    8   13 1   
    16    8   18 1   
    17    9   10 1   
    18    9   20 1   
    19   10   11 1   
    20   12   25 1   
    21   12   26 1   
    22   12   27 1   
    23   13   14 1   
    24   13   15 1   
    25   13   19 1   
    26   14   22 1   
    27   15   16 1   
    28   15   21 1   
    29   16   24 1   
@<TRIPOS>SUBSTRUCTURE
     1 0AI         1 TEMP              0 ****  ****    0 ROOT
