@<TRIPOS>MOLECULE
0AI
   32    30     1     0     0
SMALL
bcc


@<TRIPOS>ATOM
      1 O6          0.2780   -0.9400   -1.3690 o         1 0AI     -0.217000
      2 C6          1.2900   -0.6420   -0.7870 cu        1 0AI      0.303000
      3 O5          0.3630    0.3910    4.3320 oh        1 0AI     -0.286000
      4 C1          1.4540    0.1760    3.5510 c2        1 0AI      0.076000
      5 C5          2.2510   -0.3660    0.2710 cx        1 0AI     -0.085000
      6 C2          2.0640   -0.9820    3.2600 c2        1 0AI     -0.327000
      7 N2          3.7240   -0.8810    5.9240 n3        1 0AI     -0.335000
      8 C7          1.8670   -2.2950    6.8990 c2        1 0AI      0.162000
      9 O7          1.0550   -1.9890    6.0210 o         1 0AI     -0.344000
     10 C8          3.2520   -1.6980    7.0040 c3        1 0AI     -0.143000
     11 C3          3.3050   -1.0840    2.4410 c3        1 0AI      0.058000
     12 O3          4.1750   -2.0520    3.0060 oh        1 0AI     -0.320000
     13 C4          3.0080   -1.4640    0.9740 c3        1 0AI      0.003000
     14 O4          2.3490   -2.7150    0.9150 oh        1 0AI     -0.315000
     15 H1          0.1460   -0.4300    4.8080 ho        1 0AI      0.274000
     16 H2          1.6810   -1.9200    3.6930 ha        1 0AI      0.158000
     17 H3          3.8920   -0.1210    2.4700 h1        1 0AI      0.140000
     18 HA          3.0240   -0.2230    5.6350 hn        1 0AI      0.160500
     19 H4          1.4850   -2.6120    1.3350 ho        1 0AI      0.209000
     20 HB          3.8110   -2.9240    2.7970 ho        1 0AI      0.213000
     21 H5          2.2430    0.6130    0.7970 h1        1 0AI      0.176000
     22 HC          3.9870   -1.6470    0.4370 h1        1 0AI      0.158000
     23 H8C1        3.9800   -2.5430    7.1690 h1        1 0AI      0.119500
     24 H8C2        3.2500   -1.0660    7.9430 h1        1 0AI      0.119500
     25 H8C3        1.6090   -3.0350    7.6890 h4        1 0AI      0.098000
     26 HMC1        0.9330    2.6780    4.4170 ha        1 0AI      0.061000
     27 HMC2        3.5290    2.7290    4.8940 ha        1 0AI      0.004000
     28 HMC3        3.2270    2.2300    5.2410 ha        1 0AI      0.004000
     29 O71         2.5400   -0.2460   -1.1840 os        1 0AI     -0.249000
     30 O1          1.8510    1.4230    3.0180 os        1 0AI     -0.059000
     31 CM          1.5550    2.5670    3.5070 c1        1 0AI      0.021000
     32 H22         3.9940   -1.4330    5.1290 hn        1 0AI      0.160500
@<TRIPOS>BOND
     1    1    2 1   
     2    2    5 1   
     3    2   29 1   
     4    3    4 1   
     5    3   15 1   
     6    4    6 1   
     7    4   30 1   
     8    5   13 1   
     9    5   21 1   
    10    5   29 1   
    11    6   11 1   
    12    6   16 1   
    13    7   10 1   
    14    7   18 1   
    15    7   32 1   
    16    8    9 1   
    17    8   10 1   
    18    8   25 1   
    19   10   23 1   
    20   10   24 1   
    21   11   12 1   
    22   11   13 1   
    23   11   17 1   
    24   12   20 1   
    25   13   14 1   
    26   13   22 1   
    27   14   19 1   
    28   26   31 1   
    29   27   28 1   
    30   30   31 1   
@<TRIPOS>SUBSTRUCTURE
     1 0AI         1 TEMP              0 ****  ****    0 ROOT
