@<TRIPOS>MOLECULE
0AI
   32    29     1     0     0
SMALL
bcc


@<TRIPOS>ATOM
      1 O6         -0.0660    0.8310   -2.4020 o         1 0AI     -0.228000
      2 C6          0.6550    0.3200   -1.5830 cv        1 0AI      0.364000
      3 O5          0.8400   -0.3260    4.1920 oh        1 0AI     -0.272000
      4 C1          1.6330   -0.8600    5.1670 c2        1 0AI     -0.001000
      5 C5          1.1700    0.2400   -0.2050 cv        1 0AI     -0.417000
      6 C2          2.8940   -1.3310    4.9620 c2        1 0AI     -0.177000
      7 N2          3.6820   -1.8750    5.9930 ns        1 0AI     -0.314000
      8 C7          3.5450   -1.5910    7.3440 c2        1 0AI      0.301000
      9 O7          2.5990   -0.9110    7.7870 o         1 0AI     -0.364000
     10 C8          4.5870   -2.1810    8.2650 c3        1 0AI     -0.244000
     11 C3          3.5100   -1.2880    3.5840 c3        1 0AI     -0.003000
     12 O3          2.7040   -1.9700    2.6350 oh        1 0AI     -0.366000
     13 C4          1.9620   -0.8020   -0.6490 cv        1 0AI      0.259000
     14 O4          2.8760   -1.7030   -0.3180 oh        1 0AI     -0.189000
     15 H1          1.2240   -0.4870    3.3130 ho        1 0AI      0.238000
     16 H2          0.8880    2.0910    3.2710 ho        1 0AI      0.174000
     17 H3          4.5480   -1.7150    3.5630 h1        1 0AI      0.113000
     18 HA          1.1190   -0.8110    6.1450 h4        1 0AI      0.203000
     19 H4          3.5390   -0.2210    3.2070 h1        1 0AI      0.113000
     20 HB          2.5590   -2.8680    2.9550 ho        1 0AI      0.219000
     21 H5          0.9890    0.7840    0.7050 ha        1 0AI      0.200000
     22 HC          3.0660   -1.5970    0.6370 ho        1 0AI      0.276000
     23 H8C1        4.5880   -3.2950    8.1950 hc        1 0AI      0.108333
     24 H8C2        5.6030   -1.7960    8.0070 hc        1 0AI      0.108333
     25 H8C3        4.3420   -1.8840    9.3140 hc        1 0AI      0.108333
     26 HMC1       -0.5430    0.5560    2.3110 ha        1 0AI      0.003000
     27 HMC2        2.9600    2.8700    3.8180 ha        1 0AI      0.017000
     28 HMC3       -0.8420    0.7560    2.8860 ha        1 0AI      0.003000
     29 O71         1.5460   -0.8210   -1.9860 os        1 0AI     -0.272000
     30 O1          1.6400    1.6320    2.8310 oh        1 0AI     -0.156000
     31 CM          2.8290    2.0160    3.1150 c1        1 0AI     -0.033000
     32 H22         4.4970   -2.3630    5.7030 hn        1 0AI      0.226000
@<TRIPOS>BOND
     1    1    2 1   
     2    2    5 1   
     3    2   29 1   
     4    3    4 1   
     5    3   15 1   
     6    4    6 1   
     7    4   18 1   
     8    5   13 1   
     9    5   21 1   
    10    6    7 1   
    11    6   11 1   
    12    7    8 1   
    13    7   32 1   
    14    8    9 1   
    15    8   10 1   
    16   10   23 1   
    17   10   24 1   
    18   10   25 1   
    19   11   12 1   
    20   11   17 1   
    21   11   19 1   
    22   12   20 1   
    23   13   14 1   
    24   13   29 1   
    25   14   22 1   
    26   16   30 1   
    27   26   28 1   
    28   27   31 1   
    29   30   31 1   
@<TRIPOS>SUBSTRUCTURE
     1 0AI         1 TEMP              0 ****  ****    0 ROOT
