@<TRIPOS>MOLECULE
0AJ
   19    18     1     0     0
SMALL
bcc


@<TRIPOS>ATOM
      1 CA          0.1240   -0.0010    0.0370 c3        1 0AJ     -0.086100
      2 CB          1.6220    0.0530    0.1400 c3        1 0AJ      0.074500
      3 SG          2.2090    0.2440    1.7950 ss        1 0AJ     -0.292200
      4 CD          1.4550    1.7150    2.3780 c3        1 0AJ     -0.041000
      5 S           2.1370    1.2930   -1.0120 ss        1 0AJ     -0.302200
      6 C1          3.8960    1.0790   -1.0640 c3        1 0AJ     -0.012300
      7 C2          4.4810    2.2740   -1.7560 c3        1 0AJ     -0.084100
      8 HAC1       -0.1900   -0.2060   -1.0170 hc        1 0AJ      0.053700
      9 HAC2       -0.3300    0.9690    0.3580 hc        1 0AJ      0.053700
     10 HAC3       -0.2800   -0.8140    0.6900 hc        1 0AJ      0.053700
     11 HB          2.0640   -0.9350   -0.1540 h2        1 0AJ      0.100700
     12 HDC1        1.5370    2.5390    1.6340 h1        1 0AJ      0.068700
     13 HDC2        0.3810    1.5590    2.6240 h1        1 0AJ      0.068700
     14 HDC3        2.0050    1.9970    3.3060 h1        1 0AJ      0.068700
     15 H1C1        4.2930    0.9800   -0.0230 h1        1 0AJ      0.068200
     16 H1C2        4.1450    0.1410   -1.6170 h1        1 0AJ      0.068200
     17 H2C1        4.2730    3.2090   -1.1810 hc        1 0AJ      0.045700
     18 H2C2        5.5900    2.1560   -1.8460 hc        1 0AJ      0.045700
     19 H2C3        4.0560    2.3890   -2.7830 hc        1 0AJ      0.045700
@<TRIPOS>BOND
     1    1    2 1   
     2    1    8 1   
     3    1    9 1   
     4    1   10 1   
     5    2    3 1   
     6    2    5 1   
     7    2   11 1   
     8    3    4 1   
     9    4   12 1   
    10    4   13 1   
    11    4   14 1   
    12    5    6 1   
    13    6    7 1   
    14    6   15 1   
    15    6   16 1   
    16    7   17 1   
    17    7   18 1   
    18    7   19 1   
@<TRIPOS>SUBSTRUCTURE
     1 0AJ         1 TEMP              0 ****  ****    0 ROOT
