@<TRIPOS>MOLECULE
0AJ
   19    18     1     0     0
SMALL
bcc


@<TRIPOS>ATOM
      1 CA          1.4830    1.7620   -0.0580 c3        1 0AJ     -0.086100
      2 CB          0.6330    0.6650    0.5200 c3        1 0AJ      0.074500
      3 SG          1.4000   -0.9250    0.4620 ss        1 0AJ     -0.292200
      4 CD          1.7610   -1.1960   -1.2320 c3        1 0AJ     -0.041000
      5 S          -0.9350    0.7980   -0.2880 ss        1 0AJ     -0.302200
      6 C1         -1.9600   -0.2980    0.6540 c3        1 0AJ     -0.012300
      7 C2         -3.2240   -0.5220   -0.1220 c3        1 0AJ     -0.084100
      8 HAC1        1.6500    1.5990   -1.1510 hc        1 0AJ      0.053700
      9 HAC2        0.9880    2.7560    0.0800 hc        1 0AJ      0.053700
     10 HAC3        2.4780    1.7900    0.4520 hc        1 0AJ      0.053700
     11 HB          0.4990    0.8220    1.6230 h2        1 0AJ      0.100700
     12 HDC1        1.9960   -2.2800   -1.3290 h1        1 0AJ      0.068700
     13 HDC2        0.8910   -0.9450   -1.8800 h1        1 0AJ      0.068700
     14 HDC3        2.6400   -0.6010   -1.5660 h1        1 0AJ      0.068700
     15 H1C1       -1.4190   -1.2620    0.8290 h1        1 0AJ      0.068200
     16 H1C2       -2.1830    0.1560    1.6500 h1        1 0AJ      0.068200
     17 H2C1       -3.9170   -1.1770    0.4610 hc        1 0AJ      0.045700
     18 H2C2       -3.7450    0.4470   -0.3240 hc        1 0AJ      0.045700
     19 H2C3       -3.0100   -1.0180   -1.0990 hc        1 0AJ      0.045700
@<TRIPOS>BOND
     1    1    2 1   
     2    1    8 1   
     3    1    9 1   
     4    1   10 1   
     5    2    3 1   
     6    2    5 1   
     7    2   11 1   
     8    3    4 1   
     9    4   12 1   
    10    4   13 1   
    11    4   14 1   
    12    5    6 1   
    13    6    7 1   
    14    6   15 1   
    15    6   16 1   
    16    7   17 1   
    17    7   18 1   
    18    7   19 1   
@<TRIPOS>SUBSTRUCTURE
     1 0AJ         1 TEMP              0 ****  ****    0 ROOT
