@<TRIPOS>MOLECULE
0AJ
   19    18     1     0     0
SMALL
bcc


@<TRIPOS>ATOM
      1 CA         -2.2350   -0.3420    0.4300 c3        1 0AJ     -0.080100
      2 CB         -0.7250   -0.2690    0.5020 c3        1 0AJ      0.063500
      3 SG         -0.2170   -0.1920    2.1980 ss        1 0AJ     -0.277200
      4 CD          0.4470   -1.7620    2.6880 c3        1 0AJ     -0.063000
      5 S          -0.1630    1.1820   -0.3500 ss        1 0AJ     -0.230200
      6 C1          0.9580    0.7120   -1.6400 c3        1 0AJ     -0.020300
      7 C2          1.4280    1.9490   -2.3740 c3        1 0AJ     -0.087100
      8 HAC1       -2.5210   -0.2850   -0.5050 hc        1 0AJ      0.051367
      9 HAC2       -2.5390   -1.1910    0.8140 hc        1 0AJ      0.051367
     10 HAC3       -2.6220    0.4020    0.9360 hc        1 0AJ      0.051367
     11 HB         -0.3410   -1.0620    0.0820 h2        1 0AJ      0.082700
     12 HDC1       -0.2400   -2.4540    2.5830 h1        1 0AJ      0.060033
     13 HDC2        0.7280   -1.7200    3.6250 h1        1 0AJ      0.060033
     14 HDC3        1.2190   -1.9800    2.1240 h1        1 0AJ      0.060033
     15 H1C1        0.5030    0.1150   -2.2660 h1        1 0AJ      0.065700
     16 H1C2        1.7290    0.2520   -1.2510 h1        1 0AJ      0.065700
     17 H2C1        2.0560    1.6900   -3.0810 hc        1 0AJ      0.048367
     18 H2C2        1.8760    2.5520   -1.7440 hc        1 0AJ      0.048367
     19 H2C3        0.6580    2.4050   -2.7720 hc        1 0AJ      0.048367
@<TRIPOS>BOND
     1    1    2 1   
     2    1    8 1   
     3    1    9 1   
     4    1   10 1   
     5    2    3 1   
     6    2    5 1   
     7    2   11 1   
     8    3    4 1   
     9    4   12 1   
    10    4   13 1   
    11    4   14 1   
    12    5    6 1   
    13    6    7 1   
    14    6   15 1   
    15    6   16 1   
    16    7   17 1   
    17    7   18 1   
    18    7   19 1   
@<TRIPOS>SUBSTRUCTURE
     1 0AJ         1 TEMP              0 ****  ****    0 ROOT
