@<TRIPOS>MOLECULE
0AJ
   19    18     1     0     0
SMALL
bcc


@<TRIPOS>ATOM
      1 CA          0.1130    0.0210    0.0080 c3        1 0AJ     -0.086100
      2 CB          1.6110    0.0570    0.1120 c3        1 0AJ      0.074500
      3 SG          2.2000    0.1980    1.7720 ss        1 0AJ     -0.292200
      4 CD          1.4610    1.6620    2.3930 c3        1 0AJ     -0.041000
      5 S           2.1390    1.3210   -1.0060 ss        1 0AJ     -0.302200
      6 C1          3.8960    1.0910   -1.0640 c3        1 0AJ     -0.012300
      7 C2          4.4940    2.2990   -1.7220 c3        1 0AJ     -0.084100
      8 HAC1       -0.2030   -0.1540   -1.0510 hc        1 0AJ      0.053700
      9 HAC2       -0.3320    0.9870    0.3540 hc        1 0AJ      0.053700
     10 HAC3       -0.3000   -0.8050    0.6390 hc        1 0AJ      0.053700
     11 HB          2.0440   -0.9280   -0.2070 h2        1 0AJ      0.100700
     12 HDC1        1.5510    2.5040    1.6700 h1        1 0AJ      0.068700
     13 HDC2        0.3850    1.5110    2.6340 h1        1 0AJ      0.068700
     14 HDC3        2.0130    1.9150    3.3270 h1        1 0AJ      0.068700
     15 H1C1        4.2920    0.9590   -0.0260 h1        1 0AJ      0.068200
     16 H1C2        4.1360    0.1660   -1.6430 h1        1 0AJ      0.068200
     17 H2C1        4.2950    3.2200   -1.1210 hc        1 0AJ      0.045700
     18 H2C2        5.6010    2.1720   -1.8150 hc        1 0AJ      0.045700
     19 H2C3        4.0710    2.4460   -2.7460 hc        1 0AJ      0.045700
@<TRIPOS>BOND
     1    1    2 1   
     2    1    8 1   
     3    1    9 1   
     4    1   10 1   
     5    2    3 1   
     6    2    5 1   
     7    2   11 1   
     8    3    4 1   
     9    4   12 1   
    10    4   13 1   
    11    4   14 1   
    12    5    6 1   
    13    6    7 1   
    14    6   15 1   
    15    6   16 1   
    16    7   17 1   
    17    7   18 1   
    18    7   19 1   
@<TRIPOS>SUBSTRUCTURE
     1 0AJ         1 TEMP              0 ****  ****    0 ROOT
