@<TRIPOS>MOLECULE
0AJ
   19    18     1     0     0
SMALL
bcc


@<TRIPOS>ATOM
      1 CA          0.1200    0.0070    0.0360 c3        1 0AJ     -0.086100
      2 CB          1.6180    0.0560    0.1400 c3        1 0AJ      0.074500
      3 SG          2.2050    0.2450    1.7960 ss        1 0AJ     -0.292200
      4 CD          1.4560    1.7190    2.3780 c3        1 0AJ     -0.041000
      5 S           2.1390    1.2940   -1.0110 ss        1 0AJ     -0.302200
      6 C1          3.8960    1.0730   -1.0630 c3        1 0AJ     -0.012300
      7 C2          4.4870    2.2650   -1.7560 c3        1 0AJ     -0.084100
      8 HAC1       -0.2870   -0.8040    0.6900 hc        1 0AJ      0.053700
      9 HAC2       -0.1940   -0.1970   -1.0180 hc        1 0AJ      0.053700
     10 HAC3       -0.3310    0.9790    0.3570 hc        1 0AJ      0.053700
     11 HB          2.0570   -0.9340   -0.1540 h2        1 0AJ      0.100700
     12 HDC1        2.0060    1.9990    3.3060 h1        1 0AJ      0.068700
     13 HDC2        0.3820    1.5670    2.6230 h1        1 0AJ      0.068700
     14 HDC3        1.5420    2.5430    1.6330 h1        1 0AJ      0.068700
     15 H1C1        4.2930    0.9740   -0.0220 h1        1 0AJ      0.068200
     16 H1C2        4.1420    0.1330   -1.6150 h1        1 0AJ      0.068200
     17 H2C1        5.5950    2.1430   -1.8450 hc        1 0AJ      0.045700
     18 H2C2        4.2810    3.2020   -1.1830 hc        1 0AJ      0.045700
     19 H2C3        4.0630    2.3800   -2.7840 hc        1 0AJ      0.045700
@<TRIPOS>BOND
     1    1    2 1   
     2    1    8 1   
     3    1    9 1   
     4    1   10 1   
     5    2    3 1   
     6    2    5 1   
     7    2   11 1   
     8    3    4 1   
     9    4   12 1   
    10    4   13 1   
    11    4   14 1   
    12    5    6 1   
    13    6    7 1   
    14    6   15 1   
    15    6   16 1   
    16    7   17 1   
    17    7   18 1   
    18    7   19 1   
@<TRIPOS>SUBSTRUCTURE
     1 0AJ         1 TEMP              0 ****  ****    0 ROOT
