@<TRIPOS>MOLECULE
0AK
   21    20     1     0     0
SMALL
bcc


@<TRIPOS>ATOM
      1 N           1.4220    0.9570   -1.4470 n3        1 0AK     -0.895800
      2 CA          2.0250    0.5650   -0.1820 c3        1 0AK      0.017500
      3 C           3.4530   -0.0760   -0.3050 c         1 0AK      0.892600
      4 O           4.0570    0.0610   -1.4040 o         1 0AK     -0.833300
      5 CB          1.1510   -0.4070    0.6150 c3        1 0AK     -0.109400
      6 CG         -0.1810    0.1890    0.9250 c         1 0AK      0.653100
      7 OD1        -0.4940    1.0930    1.7030 o         1 0AK     -0.573000
      8 OD2        -1.2070   -0.4100    0.2230 os        1 0AK     -0.448900
      9 C1         -2.5210    0.1180    0.3760 c3        1 0AK      0.133400
     10 C2         -2.6630    1.3860   -0.4450 c3        1 0AK      0.015000
     11 CL         -4.3430    1.9100   -0.4970 cl        1 0AK     -0.226400
     12 OXT         3.9090   -0.6710    0.7080 o         1 0AK     -0.833300
     13 HN1         2.1200    1.4700   -1.9610 hn        1 0AK      0.337300
     14 HN2         1.2300    0.1270   -1.9820 hn        1 0AK      0.337300
     15 HA          2.1490    1.5080    0.4260 h1        1 0AK      0.057700
     16 HBC1        1.0200   -1.3660    0.0500 hc        1 0AK      0.088700
     17 HBC2        1.6870   -0.6300    1.5780 hc        1 0AK      0.088700
     18 H1C1       -3.1840   -0.7010   -0.0130 h1        1 0AK      0.060700
     19 H1C2       -2.7400    0.3170    1.4570 h1        1 0AK      0.060700
     20 H2C1       -2.0680    2.2140    0.0110 h1        1 0AK      0.087700
     21 H2C2       -2.3380    1.2200   -1.4990 h1        1 0AK      0.087700
@<TRIPOS>BOND
     1    1    2 1   
     2    1   13 1   
     3    1   14 1   
     4    2    3 1   
     5    2    5 1   
     6    2   15 1   
     7    3    4 1   
     8    3   12 1   
     9    5    6 1   
    10    5   16 1   
    11    5   17 1   
    12    6    7 2   
    13    6    8 1   
    14    8    9 1   
    15    9   10 1   
    16    9   18 1   
    17    9   19 1   
    18   10   11 1   
    19   10   20 1   
    20   10   21 1   
@<TRIPOS>SUBSTRUCTURE
     1 0AK         1 TEMP              0 ****  ****    0 ROOT
