@<TRIPOS>MOLECULE
0AL
   31    31     1     0     0
SMALL
bcc


@<TRIPOS>ATOM
      1 C1         -0.7110    0.4580   -1.9390 c3        1 0AL      0.329900
      2 C2          0.8010    0.4820   -2.0010 c3        1 0AL      0.080100
      3 C3          1.4230    0.4850   -0.6540 c3        1 0AL      0.109100
      4 C4          0.8950   -0.6180    0.2210 c3        1 0AL      0.173100
      5 C5         -0.6260   -0.6410    0.2760 c3        1 0AL      0.084100
      6 C6         -1.1030    0.5580    1.0200 c3        1 0AL      0.107100
      7 C7         -2.5950    0.3510    1.4410 c3        1 0AL      0.140400
      8 O2          1.2190    1.6710   -2.7060 oh        1 0AL     -0.626800
      9 O3          1.1650    1.7540   -0.0200 oh        1 0AL     -0.669800
     10 O4          1.3560   -1.8670   -0.2830 os        1 0AL     -0.556200
     11 O5         -1.2340   -0.6440   -1.0550 os        1 0AL     -0.471600
     12 O6         -0.3350    0.7390    2.1360 oh        1 0AL     -0.676800
     13 O7         -2.6530   -0.1250    2.8040 oh        1 0AL     -0.657800
     14 P           2.3170   -2.7340    0.6280 p5        1 0AL      1.330900
     15 O2P         3.4400   -1.8810    1.1190 o         1 0AL     -0.909500
     16 O3P         2.8660   -3.8690   -0.1640 o         1 0AL     -0.909500
     17 O4P         1.5350   -3.2760    1.8180 o         1 0AL     -0.909500
     18 OXT        -1.1640    1.6730   -1.4630 oh        1 0AL     -0.637800
     19 H1         -1.0510    0.3280   -2.8220 h2        1 0AL      0.052700
     20 H2          1.1150   -0.3160   -2.4990 h1        1 0AL      0.025700
     21 HOT        -1.6970    2.0660   -2.0900 ho        1 0AL      0.444000
     22 H3          2.3610    0.3750   -0.7510 h1        1 0AL      0.037700
     23 HA          1.6700    1.4440   -3.4230 ho        1 0AL      0.444000
     24 H4          1.2360   -0.4970    1.1150 h1        1 0AL      0.058700
     25 HB          1.9840    2.2070    0.1220 ho        1 0AL      0.491000
     26 H5         -0.9160   -1.4600    0.7640 h1        1 0AL      0.087700
     27 H6         -1.0360    1.3130    0.4690 h1        1 0AL      0.042700
     28 H7C1       -3.0600    1.1790    1.3730 h1        1 0AL      0.001700
     29 H7C2       -2.9800   -0.2570    0.8930 h1        1 0AL      0.001700
     30 HC         -0.6810    1.3850    2.6290 ho        1 0AL      0.493000
     31 H7         -3.5410   -0.2820    3.0420 ho        1 0AL      0.491000
@<TRIPOS>BOND
     1    1    2 1   
     2    1   11 1   
     3    1   18 1   
     4    1   19 1   
     5    2    3 1   
     6    2    8 1   
     7    2   20 1   
     8    3    4 1   
     9    3    9 1   
    10    3   22 1   
    11    4    5 1   
    12    4   10 1   
    13    4   24 1   
    14    5    6 1   
    15    5   11 1   
    16    5   26 1   
    17    6    7 1   
    18    6   12 1   
    19    6   27 1   
    20    7   13 1   
    21    7   28 1   
    22    7   29 1   
    23    8   23 1   
    24    9   25 1   
    25   10   14 1   
    26   12   30 1   
    27   13   31 1   
    28   14   15 1   
    29   14   16 1   
    30   14   17 1   
    31   18   21 1   
@<TRIPOS>SUBSTRUCTURE
     1 0AL         1 TEMP              0 ****  ****    0 ROOT
