@<TRIPOS>MOLECULE
0AL
   31    31     1     0     0
SMALL
bcc


@<TRIPOS>ATOM
      1 C1         -0.0800   -0.2170    0.1350 c3        1 0AL      0.330900
      2 C2          1.4570   -0.2260    0.0900 c3        1 0AL      0.084100
      3 C3          2.0280   -0.0730    1.5080 c3        1 0AL      0.103100
      4 C4          1.3830    1.1230    2.2600 c3        1 0AL      0.182100
      5 C5         -0.1580    1.0180    2.1820 c3        1 0AL      0.096100
      6 C6         -0.8250    2.2980    2.7250 c3        1 0AL      0.143100
      7 C7         -2.3040    2.3590    2.3280 c3        1 0AL      0.136400
      8 O2          1.8940    0.7900   -0.7980 oh        1 0AL     -0.634800
      9 O3          3.4220    0.0850    1.3660 oh        1 0AL     -0.679800
     10 O4          1.7980    1.1000    3.5670 os        1 0AL     -0.556200
     11 O5         -0.6150    0.8970    0.8230 os        1 0AL     -0.469600
     12 O6         -0.7970    2.2990    4.1360 oh        1 0AL     -0.673800
     13 O7         -2.9850    3.4270    2.9650 oh        1 0AL     -0.650800
     14 P           2.7890    2.4650    4.0100 p5        1 0AL      1.321900
     15 O2P         3.7280    2.4600    2.8270 o         1 0AL     -0.910500
     16 O3P         1.6950    3.5020    3.9740 o         1 0AL     -0.910500
     17 O4P         3.3600    2.1070    5.3420 o         1 0AL     -0.910500
     18 OXT        -0.6450   -0.0660   -1.1460 oh        1 0AL     -0.622800
     19 H1         -0.4810   -1.1810    0.5520 h2        1 0AL      0.043700
     20 H2          1.7980   -1.1980   -0.3640 h1        1 0AL      0.032700
     21 HOT        -0.3020    0.7660   -1.4990 ho        1 0AL      0.421000
     22 H3          1.8370   -1.0220    2.0800 h1        1 0AL      0.028700
     23 HA          2.4650    1.3860   -0.2890 ho        1 0AL      0.441000
     24 H4          1.7060    2.0790    1.7450 h1        1 0AL      0.059700
     25 HB          3.7030    0.8370    1.9540 ho        1 0AL      0.500000
     26 H5         -0.5120    0.1260    2.7650 h1        1 0AL      0.034700
     27 H6         -0.2750    3.1990    2.3310 h1        1 0AL      0.081700
     28 H7C1       -2.8180    1.3990    2.6020 h1        1 0AL      0.026200
     29 H7C2       -2.4050    2.5370    1.2260 h1        1 0AL      0.026200
     30 HC          0.1360    2.5340    4.3850 ho        1 0AL      0.502000
     31 H7         -2.5270    3.5930    3.8020 ho        1 0AL      0.425000
@<TRIPOS>BOND
     1    1    2 1   
     2    1   11 1   
     3    1   18 1   
     4    1   19 1   
     5    2    3 1   
     6    2    8 1   
     7    2   20 1   
     8    3    4 1   
     9    3    9 1   
    10    3   22 1   
    11    4    5 1   
    12    4   10 1   
    13    4   24 1   
    14    5    6 1   
    15    5   11 1   
    16    5   26 1   
    17    6    7 1   
    18    6   12 1   
    19    6   27 1   
    20    7   13 1   
    21    7   28 1   
    22    7   29 1   
    23    8   23 1   
    24    9   25 1   
    25   10   14 1   
    26   12   30 1   
    27   13   31 1   
    28   14   15 1   
    29   14   16 1   
    30   14   17 1   
    31   18   21 1   
@<TRIPOS>SUBSTRUCTURE
     1 0AL         1 TEMP              0 ****  ****    0 ROOT
