@<TRIPOS>MOLECULE
0AL
   31    31     1     0     0
SMALL
bcc


@<TRIPOS>ATOM
      1 C1         -0.0930   -0.1760    0.1070 c3        1 0AL      0.330900
      2 C2          1.4440   -0.1860    0.0600 c3        1 0AL      0.084100
      3 C3          2.0170   -0.0640    1.4800 c3        1 0AL      0.103100
      4 C4          1.3750    1.1160    2.2580 c3        1 0AL      0.182100
      5 C5         -0.1660    1.0160    2.1800 c3        1 0AL      0.096100
      6 C6         -0.8300    2.2850    2.7510 c3        1 0AL      0.143100
      7 C7         -2.3090    2.3580    2.3570 c3        1 0AL      0.136400
      8 O2          1.8810    0.8480   -0.8070 oh        1 0AL     -0.634800
      9 O3          3.4120    0.0940    1.3390 oh        1 0AL     -0.679800
     10 O4          1.7920    1.0650    3.5640 os        1 0AL     -0.556200
     11 O5         -0.6250    0.9240    0.8200 os        1 0AL     -0.469600
     12 O6         -0.8000    2.2560    4.1610 oh        1 0AL     -0.673800
     13 O7         -2.9880    3.4130    3.0180 oh        1 0AL     -0.650800
     14 P           2.7870    2.4180    4.0340 p5        1 0AL      1.321900
     15 O2P         3.7230    2.4370    2.8500 o         1 0AL     -0.910500
     16 O3P         1.6940    3.4580    4.0210 o         1 0AL     -0.910500
     17 O4P         3.3580    2.0310    5.3570 o         1 0AL     -0.910500
     18 OXT        -0.6600    0.0030   -1.1690 oh        1 0AL     -0.622800
     19 H1         -0.4950   -1.1480    0.5050 h2        1 0AL      0.043700
     20 H2          1.7820   -1.1500   -0.4150 h1        1 0AL      0.032700
     21 HOT        -0.3160    0.8420   -1.5050 ho        1 0AL      0.421000
     22 H3          1.8250   -1.0250    2.0330 h1        1 0AL      0.028700
     23 HA          2.4540    1.4310   -0.2860 ho        1 0AL      0.441000
     24 H4          1.6990    2.0820    1.7630 h1        1 0AL      0.059700
     25 HB          3.6950    0.8320    1.9430 ho        1 0AL      0.500000
     26 H5         -0.5210    0.1120    2.7450 h1        1 0AL      0.034700
     27 H6         -0.2780    3.1930    2.3750 h1        1 0AL      0.081700
     28 H7C1       -2.8240    1.3930    2.6110 h1        1 0AL      0.026200
     29 H7C2       -2.4110    2.5590    1.2600 h1        1 0AL      0.026200
     30 HC          0.1330    2.4850    4.4150 ho        1 0AL      0.502000
     31 H7         -2.5280    3.5600    3.8570 ho        1 0AL      0.425000
@<TRIPOS>BOND
     1    1    2 1   
     2    1   11 1   
     3    1   18 1   
     4    1   19 1   
     5    2    3 1   
     6    2    8 1   
     7    2   20 1   
     8    3    4 1   
     9    3    9 1   
    10    3   22 1   
    11    4    5 1   
    12    4   10 1   
    13    4   24 1   
    14    5    6 1   
    15    5   11 1   
    16    5   26 1   
    17    6    7 1   
    18    6   12 1   
    19    6   27 1   
    20    7   13 1   
    21    7   28 1   
    22    7   29 1   
    23    8   23 1   
    24    9   25 1   
    25   10   14 1   
    26   12   30 1   
    27   13   31 1   
    28   14   15 1   
    29   14   16 1   
    30   14   17 1   
    31   18   21 1   
@<TRIPOS>SUBSTRUCTURE
     1 0AL         1 TEMP              0 ****  ****    0 ROOT
