@<TRIPOS>MOLECULE
0AL
   31    31     1     0     0
SMALL
bcc


@<TRIPOS>ATOM
      1 C1         -3.0650   -0.3440    0.5910 c3        1 0AL      0.330900
      2 C2         -2.4410   -1.6840    0.1700 c3        1 0AL      0.084100
      3 C3         -0.9860   -1.7660    0.6550 c3        1 0AL      0.103100
      4 C4         -0.1810   -0.4960    0.2670 c3        1 0AL      0.182100
      5 C5         -0.9510    0.7680    0.7150 c3        1 0AL      0.096100
      6 C6         -0.2900    2.0430    0.1530 c3        1 0AL      0.143100
      7 C7         -1.2260    3.2500    0.2800 c3        1 0AL      0.136400
      8 O2         -2.5670   -1.8250   -1.2360 oh        1 0AL     -0.634800
      9 O3         -0.4360   -2.9330    0.0860 oh        1 0AL     -0.679800
     10 O4          1.0480   -0.5480    0.8760 os        1 0AL     -0.556200
     11 O5         -2.2960    0.7790    0.2050 os        1 0AL     -0.469600
     12 O6          0.8640    2.3610    0.9000 oh        1 0AL     -0.673800
     13 O7         -0.5800    4.4660   -0.0570 oh        1 0AL     -0.650800
     14 P           2.3770   -0.6900   -0.2430 p5        1 0AL      1.321900
     15 O2P         3.5590   -1.0180    0.6070 o         1 0AL     -0.910500
     16 O3P         1.8240   -1.7880   -1.1190 o         1 0AL     -0.910500
     17 O4P         2.2880    0.7060   -0.8070 o         1 0AL     -0.910500
     18 OXT        -4.2870   -0.0990   -0.0670 oh        1 0AL     -0.622800
     19 H1         -3.2850   -0.3250    1.6940 h2        1 0AL      0.043700
     20 H2         -3.0490   -2.5200    0.6180 h1        1 0AL      0.032700
     21 HOT        -4.0930   -0.1110   -1.0140 ho        1 0AL      0.421000
     22 H3         -0.9830   -1.8840    1.7740 h1        1 0AL      0.028700
     23 HA         -1.6710   -1.9300   -1.5930 ho        1 0AL      0.441000
     24 H4         -0.0780   -0.4750   -0.8600 h1        1 0AL      0.059700
     25 HB          0.4600   -2.6990   -0.2770 ho        1 0AL      0.500000
     26 H5         -0.9870    0.8180    1.8360 h1        1 0AL      0.034700
     27 H6         -0.0130    1.8720   -0.9250 h1        1 0AL      0.081700
     28 H7C1       -2.0910    3.1490   -0.4260 h1        1 0AL      0.026200
     29 H7C2       -1.6090    3.3330    1.3320 h1        1 0AL      0.026200
     30 HC          1.5620    1.7210    0.6000 ho        1 0AL      0.502000
     31 H7          0.3610    4.3470    0.1380 ho        1 0AL      0.425000
@<TRIPOS>BOND
     1    1    2 1   
     2    1   11 1   
     3    1   18 1   
     4    1   19 1   
     5    2    3 1   
     6    2    8 1   
     7    2   20 1   
     8    3    4 1   
     9    3    9 1   
    10    3   22 1   
    11    4    5 1   
    12    4   10 1   
    13    4   24 1   
    14    5    6 1   
    15    5   11 1   
    16    5   26 1   
    17    6    7 1   
    18    6   12 1   
    19    6   27 1   
    20    7   13 1   
    21    7   28 1   
    22    7   29 1   
    23    8   23 1   
    24    9   25 1   
    25   10   14 1   
    26   12   30 1   
    27   13   31 1   
    28   14   15 1   
    29   14   16 1   
    30   14   17 1   
    31   18   21 1   
@<TRIPOS>SUBSTRUCTURE
     1 0AL         1 TEMP              0 ****  ****    0 ROOT
