@<TRIPOS>MOLECULE
0AL
   31    31     1     0     0
SMALL
bcc


@<TRIPOS>ATOM
      1 C1         -0.0970   -0.1680    0.1030 c3        1 0AL      0.330900
      2 C2          1.4400   -0.1830    0.0560 c3        1 0AL      0.084100
      3 C3          2.0130   -0.0670    1.4760 c3        1 0AL      0.103100
      4 C4          1.3750    1.1130    2.2580 c3        1 0AL      0.182100
      5 C5         -0.1670    1.0180    2.1790 c3        1 0AL      0.096100
      6 C6         -0.8270    2.2870    2.7530 c3        1 0AL      0.143100
      7 C7         -2.3060    2.3660    2.3590 c3        1 0AL      0.136400
      8 O2          1.8810    0.8520   -0.8080 oh        1 0AL     -0.634800
      9 O3          3.4080    0.0870    1.3370 oh        1 0AL     -0.679800
     10 O4          1.7910    1.0560    3.5630 os        1 0AL     -0.556200
     11 O5         -0.6260    0.9310    0.8180 os        1 0AL     -0.469600
     12 O6         -0.7980    2.2540    4.1630 oh        1 0AL     -0.673800
     13 O7         -2.9810    3.4210    3.0230 oh        1 0AL     -0.650800
     14 P           2.7890    2.4060    4.0380 p5        1 0AL      1.321900
     15 O2P         3.7270    2.4250    2.8540 o         1 0AL     -0.910500
     16 O3P         1.7000    3.4480    4.0280 o         1 0AL     -0.910500
     17 O4P         3.3590    2.0130    5.3610 o         1 0AL     -0.910500
     18 OXT        -0.6630    0.0150   -1.1730 oh        1 0AL     -0.622800
     19 H1         -0.5020   -1.1410    0.4970 h2        1 0AL      0.043700
     20 H2          1.7760   -1.1460   -0.4210 h1        1 0AL      0.032700
     21 HOT        -0.3160    0.8550   -1.5070 ho        1 0AL      0.421000
     22 H3          1.8190   -1.0290    2.0260 h1        1 0AL      0.028700
     23 HA          2.4560    1.4320   -0.2850 ho        1 0AL      0.441000
     24 H4          1.7010    2.0790    1.7660 h1        1 0AL      0.059700
     25 HB          3.6930    0.8230    1.9420 ho        1 0AL      0.500000
     26 H5         -0.5240    0.1140    2.7410 h1        1 0AL      0.034700
     27 H6         -0.2720    3.1950    2.3800 h1        1 0AL      0.081700
     28 H7C1       -2.8240    1.4020    2.6100 h1        1 0AL      0.026200
     29 H7C2       -2.4070    2.5710    1.2620 h1        1 0AL      0.026200
     30 HC          0.1360    2.4790    4.4180 ho        1 0AL      0.502000
     31 H7         -2.5220    3.5640    3.8620 ho        1 0AL      0.425000
@<TRIPOS>BOND
     1    1    2 1   
     2    1   11 1   
     3    1   18 1   
     4    1   19 1   
     5    2    3 1   
     6    2    8 1   
     7    2   20 1   
     8    3    4 1   
     9    3    9 1   
    10    3   22 1   
    11    4    5 1   
    12    4   10 1   
    13    4   24 1   
    14    5    6 1   
    15    5   11 1   
    16    5   26 1   
    17    6    7 1   
    18    6   12 1   
    19    6   27 1   
    20    7   13 1   
    21    7   28 1   
    22    7   29 1   
    23    8   23 1   
    24    9   25 1   
    25   10   14 1   
    26   12   30 1   
    27   13   31 1   
    28   14   15 1   
    29   14   16 1   
    30   14   17 1   
    31   18   21 1   
@<TRIPOS>SUBSTRUCTURE
     1 0AL         1 TEMP              0 ****  ****    0 ROOT
