@<TRIPOS>MOLECULE
0AO
   29    30     1     0     0
SMALL
bcc


@<TRIPOS>ATOM
      1 N1          0.5040   -0.1720    0.8450 n8        1 0AO     -0.352000
      2 C1          1.8430    0.0500    0.3320 c3        1 0AO     -0.104000
      3 C2          2.8200    0.7080    1.3080 c2        1 0AO      0.145000
      4 C3          1.8300    0.9180   -0.9400 c3        1 0AO     -0.154000
      5 C4          1.1250    0.2300   -2.1000 c3        1 0AO     -0.022000
      6 C5          2.0400   -0.1290   -3.2600 c2        1 0AO     -0.102000
      7 C6          2.0950    0.8660   -4.1200 c1        1 0AO      0.049000
      8 C7          1.3130    1.8800   -4.5210 c2        1 0AO     -0.189000
      9 C8          0.0430    1.8140   -3.8440 c2        1 0AO      0.154000
     10 C9         -1.0830    2.6420   -4.3020 c3        1 0AO     -0.192000
     11 C10        -2.2680    2.6420   -3.4270 c2        1 0AO     -0.023000
     12 C11        -2.3150    1.9050   -2.2860 c2        1 0AO     -0.192000
     13 C12        -1.1970    1.1250   -1.8760 c2        1 0AO      0.096000
     14 C13        -0.0350    1.0670   -2.6340 c2        1 0AO     -0.192000
     15 HN1         0.2040    0.6220    1.3820 hn        1 0AO      0.167500
     16 HN2         0.4930   -0.9790    1.4390 hn        1 0AO      0.167500
     17 HXT         0.6960   -0.7620   -1.7620 hc        1 0AO      0.166000
     18 H2          2.4650   -1.1360   -3.3430 ha        1 0AO      0.208000
     19 H3         -0.7380    3.7110   -4.4650 hc        1 0AO      0.198500
     20 H5         -1.3900    2.2740   -5.3350 hc        1 0AO      0.198500
     21 H6         -3.1180    3.2730   -3.7450 ha        1 0AO      0.180000
     22 H7         -3.2150    1.9040   -1.6450 ha        1 0AO      0.186000
     23 O1          2.4540    1.1980    2.3720 o         1 0AO     -0.252000
     24 H8          2.2850   -0.9580    0.0630 h1        1 0AO      0.120000
     25 H10         3.8810    0.7050    0.9790 h4        1 0AO      0.113000
     26 H11         1.3360    1.9000   -0.7150 hc        1 0AO      0.109000
     27 H12         2.8940    1.1360   -1.2240 hc        1 0AO      0.109000
     28 H13         1.5900    2.7200   -5.1680 ha        1 0AO      0.207000
     29 H131       -1.2650    0.5590   -0.9240 ha        1 0AO      0.200000
@<TRIPOS>BOND
     1    1    2 1   
     2    1   15 1   
     3    1   16 1   
     4    2    3 1   
     5    2    4 1   
     6    2   24 1   
     7    3   23 1   
     8    3   25 1   
     9    4    5 1   
    10    4   26 1   
    11    4   27 1   
    12    5    6 1   
    13    5   14 1   
    14    5   17 1   
    15    6    7 1   
    16    6   18 1   
    17    7    8 1   
    18    8    9 1   
    19    8   28 1   
    20    9   10 1   
    21    9   14 1   
    22   10   11 1   
    23   10   19 1   
    24   10   20 1   
    25   11   12 1   
    26   11   21 1   
    27   12   13 1   
    28   12   22 1   
    29   13   14 1   
    30   13   29 1   
@<TRIPOS>SUBSTRUCTURE
     1 0AO         1 TEMP              0 ****  ****    0 ROOT
