@<TRIPOS>MOLECULE
0AO
   29    30     1     0     0
SMALL
bcc


@<TRIPOS>ATOM
      1 N1          1.7580   -1.2700    0.2570 n3        1 0AO     -0.349000
      2 C1          2.2300    0.0930    0.1210 c3        1 0AO     -0.111000
      3 C2          2.6270    0.7960    1.4210 c2        1 0AO      0.142000
      4 C3          1.2200    1.0080   -0.5890 c3        1 0AO     -0.163000
      5 C4          0.5310    0.3790   -1.7900 c3        1 0AO      0.023000
      6 C5          1.5990   -0.2570   -2.7250 c2        1 0AO     -0.117000
      7 C6          1.5660    0.3520   -3.8540 c1        1 0AO      0.227000
      8 C7          0.9800    1.3100   -4.7160 c3        1 0AO     -0.106000
      9 C8         -0.1630    1.8190   -3.8250 ca        1 0AO     -0.091000
     10 C9         -1.0310    2.7430   -4.4070 ca        1 0AO     -0.092000
     11 C10        -2.1050    3.2410   -3.6690 ca        1 0AO     -0.090000
     12 C11        -2.3120    2.8060   -2.3610 ca        1 0AO     -0.089000
     13 C12        -1.4430    1.8800   -1.7830 ca        1 0AO     -0.095000
     14 C13        -0.3490    1.3770   -2.5000 ca        1 0AO     -0.130000
     15 HN1         0.9510   -1.3050    0.8520 hn        1 0AO      0.171500
     16 HN2        -1.6260    1.5370   -0.7510 ha        1 0AO      0.156000
     17 HXT        -0.1010   -0.5040   -1.4690 hc        1 0AO      0.178000
     18 H2          2.1860   -1.0980   -2.3180 ha        1 0AO      0.272000
     19 H3          1.6680    2.1560   -4.9970 hc        1 0AO      0.180000
     20 H5         -0.8700    3.0780   -5.4450 ha        1 0AO      0.162000
     21 H6         -2.7900    3.9750   -4.1270 ha        1 0AO      0.171000
     22 H7         -3.1670    3.1900   -1.7790 ha        1 0AO      0.170000
     23 O1          2.5280    0.2500    2.5150 o         1 0AO     -0.240000
     24 H8          3.1740    0.0510   -0.5070 h1        1 0AO      0.113000
     25 H10         3.0190    1.8280    1.2930 h4        1 0AO      0.114000
     26 H11         1.7540    1.9450   -0.8980 hc        1 0AO      0.121500
     27 H12         0.4110    1.3030    0.1370 hc        1 0AO      0.121500
     28 H13         0.5520    0.8690   -5.6630 hc        1 0AO      0.180000
     29 H131        2.4760   -1.8390    0.6670 hn        1 0AO      0.171500
@<TRIPOS>BOND
     1    1    2 1   
     2    1   15 1   
     3    1   29 1   
     4    2    3 1   
     5    2    4 1   
     6    2   24 1   
     7    3   23 1   
     8    3   25 1   
     9    4    5 1   
    10    4   26 1   
    11    4   27 1   
    12    5    6 1   
    13    5   14 1   
    14    5   17 1   
    15    6    7 1   
    16    6   18 1   
    17    7    8 1   
    18    8    9 1   
    19    8   19 1   
    20    8   28 1   
    21    9   10 1   
    22    9   14 1   
    23   10   11 1   
    24   10   20 1   
    25   11   12 1   
    26   11   21 1   
    27   12   13 1   
    28   12   22 1   
    29   13   14 1   
    30   13   16 1   
@<TRIPOS>SUBSTRUCTURE
     1 0AO         1 TEMP              0 ****  ****    0 ROOT
