@<TRIPOS>MOLECULE
0AO
   28    29     1     0     0
SMALL
bcc


@<TRIPOS>ATOM
      1 N1          2.0250    0.6880    1.2570 n3        1 0AO     -0.897800
      2 C1          2.3730   -0.4210    0.3980 c3        1 0AO      0.058500
      3 C2          3.7910   -0.3150   -0.1510 c         1 0AO      0.568900
      4 C3          1.4540   -0.6590   -0.8220 c3        1 0AO     -0.075100
      5 C4          0.0480   -0.9210   -0.4110 ca        1 0AO     -0.074300
      6 C5         -0.3370   -2.2200   -0.1460 ca        1 0AO     -0.121000
      7 C6         -1.6600   -2.5270    0.2410 ca        1 0AO     -0.126000
      8 C7         -2.5930   -1.5280    0.3580 ca        1 0AO     -0.114000
      9 C8         -2.2370   -0.1790    0.0920 ca        1 0AO     -0.036000
     10 C9         -3.2000    0.8620    0.2100 ca        1 0AO     -0.115000
     11 C10        -2.8590    2.1650   -0.0470 ca        1 0AO     -0.127000
     12 C11        -1.5360    2.4860   -0.4350 ca        1 0AO     -0.120000
     13 C12        -0.5870    1.5000   -0.5540 ca        1 0AO     -0.133000
     14 C13        -0.9060    0.1370   -0.2950 ca        1 0AO     -0.030000
     15 HN1         2.3070    1.5580    0.8460 hn        1 0AO      0.362300
     16 HN2         1.0360    0.7030    1.4190 hn        1 0AO      0.362300
     17 HXT         0.3920   -3.0410   -0.2350 ha        1 0AO      0.131000
     18 H2         -1.9270   -3.5750    0.4450 ha        1 0AO      0.135000
     19 H3         -4.2250    0.5960    0.5120 ha        1 0AO      0.134000
     20 H5         -3.6020    2.9710    0.0430 ha        1 0AO      0.135000
     21 H6         -1.2790    3.5360   -0.6390 ha        1 0AO      0.135000
     22 H7          0.4360    1.7680   -0.8600 ha        1 0AO      0.133000
     23 O1          4.3150    0.7470   -0.4820 o         1 0AO     -0.518100
     24 H8          2.3210   -1.3480    1.0460 h1        1 0AO      0.075700
     25 H10         4.3150   -1.2900   -0.2510 h4        1 0AO      0.001200
     26 H11         1.5140    0.2160   -1.5190 hc        1 0AO      0.058700
     27 H12         1.8490   -1.5500   -1.3830 hc        1 0AO      0.058700
     28 H13        -3.6280   -1.7530    0.6580 ha        1 0AO      0.135000
@<TRIPOS>BOND
     1    1    2 1   
     2    1   15 1   
     3    1   16 1   
     4    2    3 1   
     5    2    4 1   
     6    2   24 1   
     7    3   23 2   
     8    3   25 1   
     9    4    5 1   
    10    4   26 1   
    11    4   27 1   
    12    5    6 ar  
    13    5   14 ar  
    14    6    7 ar  
    15    6   17 1   
    16    7    8 ar  
    17    7   18 1   
    18    8    9 ar  
    19    8   28 1   
    20    9   10 ar  
    21    9   14 ar  
    22   10   11 ar  
    23   10   19 1   
    24   11   12 ar  
    25   11   20 1   
    26   12   13 ar  
    27   12   21 1   
    28   13   14 ar  
    29   13   22 1   
@<TRIPOS>SUBSTRUCTURE
     1 0AO         1 TEMP              0 ****  ****    0 ROOT
