@<TRIPOS>MOLECULE
0AO
   29    30     1     0     0
SMALL
bcc


@<TRIPOS>ATOM
      1 N1          1.8320   -1.2840    0.1960 n3        1 0AO     -0.349000
      2 C1          2.2820    0.0880    0.0720 c3        1 0AO     -0.111000
      3 C2          2.6940    0.7770    1.3750 c2        1 0AO      0.142000
      4 C3          1.2460    0.9990   -0.6050 c3        1 0AO     -0.163000
      5 C4          0.5430    0.3790   -1.8010 c3        1 0AO      0.023000
      6 C5          1.6020   -0.2270   -2.7670 c2        1 0AO     -0.117000
      7 C6          1.5390    0.3980   -3.8850 c1        1 0AO      0.227000
      8 C7          0.9220    1.3600   -4.7210 c3        1 0AO     -0.106000
      9 C8         -0.2110    1.8390   -3.8000 ca        1 0AO     -0.091000
     10 C9         -1.1030    2.7590   -4.3510 ca        1 0AO     -0.092000
     11 C10        -2.1700    3.2300   -3.5850 ca        1 0AO     -0.090000
     12 C11        -2.3450    2.7720   -2.2800 ca        1 0AO     -0.089000
     13 C12        -1.4520    1.8500   -1.7330 ca        1 0AO     -0.095000
     14 C13        -0.3640    1.3740   -2.4790 ca        1 0AO     -0.130000
     15 HN1         1.0380   -1.3390    0.8060 hn        1 0AO      0.171500
     16 HN2        -1.6100    1.4890   -0.7040 ha        1 0AO      0.156000
     17 HXT        -0.0700   -0.5190   -1.4830 hc        1 0AO      0.178000
     18 H2          2.2080   -1.0650   -2.3840 ha        1 0AO      0.272000
     19 H3          1.5930    2.2210   -5.0020 hc        1 0AO      0.180000
     20 H5         -0.9670    3.1120   -5.3860 ha        1 0AO      0.162000
     21 H6         -2.8740    3.9610   -4.0190 ha        1 0AO      0.171000
     22 H7         -3.1930    3.1340   -1.6760 ha        1 0AO      0.170000
     23 O1          2.6220    0.2140    2.4630 o         1 0AO     -0.240000
     24 H8          3.2140    0.0700   -0.5740 h1        1 0AO      0.113000
     25 H10         3.0700    1.8160    1.2550 h4        1 0AO      0.114000
     26 H11         1.7600    1.9480   -0.9090 hc        1 0AO      0.121500
     27 H12         0.4480    1.2720    0.1410 hc        1 0AO      0.121500
     28 H13         0.4830    0.9280   -5.6660 hc        1 0AO      0.180000
     29 H131        2.5660   -1.8480    0.5840 hn        1 0AO      0.171500
@<TRIPOS>BOND
     1    1    2 1   
     2    1   15 1   
     3    1   29 1   
     4    2    3 1   
     5    2    4 1   
     6    2   24 1   
     7    3   23 1   
     8    3   25 1   
     9    4    5 1   
    10    4   26 1   
    11    4   27 1   
    12    5    6 1   
    13    5   14 1   
    14    5   17 1   
    15    6    7 1   
    16    6   18 1   
    17    7    8 1   
    18    8    9 1   
    19    8   19 1   
    20    8   28 1   
    21    9   10 1   
    22    9   14 1   
    23   10   11 1   
    24   10   20 1   
    25   11   12 1   
    26   11   21 1   
    27   12   13 1   
    28   12   22 1   
    29   13   14 1   
    30   13   16 1   
@<TRIPOS>SUBSTRUCTURE
     1 0AO         1 TEMP              0 ****  ****    0 ROOT
