@<TRIPOS>MOLECULE
0AO
   28    25     1     0     0
SMALL
bcc


@<TRIPOS>ATOM
      1 N1          2.6580    0.1260    2.1980 n3        1 0AO     -0.332000
      2 C1          1.3330    0.5720    1.9330 c3        1 0AO     -0.093000
      3 C2          0.7960    1.3010    3.1430 c2        1 0AO      0.141000
      4 C3          0.4520   -0.6180    1.6300 c3        1 0AO     -0.111000
      5 C4          0.1870   -0.6840    0.1400 c2        1 0AO     -0.058000
      6 C5          1.1170   -1.5860   -0.3600 c1        1 0AO     -0.112000
      7 C6          1.0950   -1.9340   -1.7070 c1        1 0AO     -0.124750
      8 C7          0.1430   -1.3790   -2.5530 c1        1 0AO     -0.124750
      9 C8         -0.8000   -0.4640   -2.0480 c1        1 0AO     -0.038000
     10 C9         -1.7590    0.1070   -2.9060 c1        1 0AO     -0.119000
     11 C10        -2.6830    1.0170   -2.4080 c1        1 0AO     -0.124750
     12 C11        -2.6610    1.3650   -1.0600 c1        1 0AO     -0.124750
     13 C12        -1.7150    0.8020   -0.2130 c1        1 0AO     -0.128000
     14 C13        -0.7780   -0.1200   -0.7160 c2        1 0AO     -0.029000
     15 HN1         3.2550    0.6580    1.7500 hn        1 0AO      0.148500
     16 HN2         2.8230    0.1730    3.0970 hn        1 0AO      0.148500
     17 HXT         1.7860   -1.9770    0.2330 ha        1 0AO      0.132000
     18 H2          1.7490   -2.5690   -2.0580 ha        1 0AO      0.132250
     19 H3         -1.7750   -0.1370   -3.8510 ha        1 0AO      0.131000
     20 H5         -3.3480    1.4120   -3.0030 ha        1 0AO      0.132250
     21 H6         -3.3110    2.0040   -0.7110 ha        1 0AO      0.132250
     22 H7         -1.7000    1.0460    0.7320 ha        1 0AO      0.148000
     23 O1          0.5040    2.4790    3.0630 o         1 0AO     -0.282000
     24 H8          1.3400    1.1760    1.1650 h1        1 0AO      0.140000
     25 H10         0.6560    0.8180    3.9820 h4        1 0AO      0.082000
     26 H11        -0.3950   -0.5260    2.1080 hc        1 0AO      0.100000
     27 H12         0.9020   -1.4380    1.9170 hc        1 0AO      0.100000
     28 H13         0.1280   -1.6230   -3.4980 ha        1 0AO      0.132250
@<TRIPOS>BOND
     1    1    2 1   
     2    1   15 1   
     3    1   16 1   
     4    2    3 1   
     5    2    4 1   
     6    2   24 1   
     7    3   23 1   
     8    3   25 1   
     9    4    5 1   
    10    4   26 1   
    11    4   27 1   
    12    5    6 1   
    13    5   14 1   
    14    6   17 1   
    15    7    8 1   
    16    7   18 1   
    17    8   28 1   
    18    9   10 1   
    19    9   14 1   
    20   10   19 1   
    21   11   12 1   
    22   11   20 1   
    23   12   21 1   
    24   13   14 1   
    25   13   22 1   
@<TRIPOS>SUBSTRUCTURE
     1 0AO         1 TEMP              0 ****  ****    0 ROOT
