@<TRIPOS>MOLECULE
0AP
   35    36     1     0     0
SMALL
bcc


@<TRIPOS>ATOM
      1 P           0.7550    3.4310    0.8190 p5        1 0AP      1.340900
      2 OP1        -0.5520    3.1810    0.0820 o         1 0AP     -0.935833
      3 OP2         0.6170    4.2680    2.0630 o         1 0AP     -0.935833
      4 O5'         1.1310    1.8790    1.4220 os        1 0AP     -0.587200
      5 C5'         1.1270    0.8260    0.5270 c3        1 0AP      0.198400
      6 C4'         0.6790   -0.4870    1.1950 c3        1 0AP      0.088100
      7 O4'        -0.6620   -0.3600    1.7300 os        1 0AP     -0.422600
      8 C3'         0.6770   -1.7140    0.2300 c3        1 0AP      0.210100
      9 O3'         1.1100   -2.8450    0.8750 os        1 0AP     -0.568200
     10 P1          1.9980   -4.0280   -0.0320 p5        1 0AP      1.322900
     11 O11         2.7010   -3.2280   -1.0990 o         1 0AP     -0.942167
     12 O21         2.8900   -4.6470    1.0150 o         1 0AP     -0.942167
     13 O31         0.9090   -4.9370   -0.5480 o         1 0AP     -0.942167
     14 C2'        -0.8220   -1.8100   -0.1760 c3        1 0AP     -0.146400
     15 C1'        -1.5960   -1.0750    0.9330 c3        1 0AP      0.296500
     16 N1         -2.6550   -0.1460    0.4570 n         1 0AP     -0.341000
     17 C2         -3.9920   -0.6400    0.2660 c         1 0AP      0.801900
     18 O2         -4.2720   -1.8260    0.5880 o         1 0AP     -0.712500
     19 N3         -4.9940    0.1810   -0.2710 nc        1 0AP     -0.800100
     20 C4         -4.6860    1.4780   -0.5100 cd        1 0AP      0.651500
     21 N4         -5.7030    2.3450   -1.0120 nh        1 0AP     -0.879800
     22 C5         -3.3970    2.0190   -0.2530 cd        1 0AP     -0.466600
     23 C6         -2.3960    1.1670    0.2270 cc        1 0AP      0.101600
     24 OP3         1.9010    3.8060   -0.0820 o         1 0AP     -0.935833
     25 H5'1        0.4650    1.0600   -0.3540 h1        1 0AP      0.002200
     26 H5'2        2.1740    0.6310    0.1450 h1        1 0AP      0.002200
     27 H4'         1.3070   -0.6910    2.1010 h1        1 0AP      0.068700
     28 H3'         1.3150   -1.5170   -0.6790 h1        1 0AP      0.072700
     29 H1'        -2.1240   -1.8010    1.6210 h2        1 0AP      0.067700
     30 H2'1       -0.9700   -1.3340   -1.1740 hc        1 0AP      0.055200
     31 H2'2       -1.1510   -2.8750   -0.2260 hc        1 0AP      0.055200
     32 H4N1       -6.4090    1.8630   -1.5290 hn        1 0AP      0.353300
     33 H4N2       -5.2920    3.0700   -1.5630 hn        1 0AP      0.353300
     34 H13        -3.1170    3.0680   -0.4120 ha        1 0AP      0.184000
     35 H14        -1.3450    1.6400    0.4150 h4        1 0AP      0.332000
@<TRIPOS>BOND
     1    1    2 1   
     2    1    3 1   
     3    1    4 1   
     4    1   24 1   
     5    4    5 1   
     6    5    6 1   
     7    5   25 1   
     8    5   26 1   
     9    6    7 1   
    10    6    8 1   
    11    6   27 1   
    12    7   15 1   
    13    8    9 1   
    14    8   14 1   
    15    8   28 1   
    16    9   10 1   
    17   10   11 1   
    18   10   12 1   
    19   10   13 1   
    20   14   15 1   
    21   14   30 1   
    22   14   31 1   
    23   15   16 1   
    24   15   29 1   
    25   16   17 1   
    26   16   23 1   
    27   17   18 2   
    28   17   19 1   
    29   19   20 2   
    30   20   21 1   
    31   20   22 1   
    32   21   32 1   
    33   21   33 1   
    34   22   23 2   
    35   22   34 1   
    36   23   35 1   
@<TRIPOS>SUBSTRUCTURE
     1 0AP         1 TEMP              0 ****  ****    0 ROOT
