@<TRIPOS>MOLECULE
0AP
   35    34     1     0     0
SMALL
bcc


@<TRIPOS>ATOM
      1 P           3.2060   -1.9230    0.7520 p3        1 0AP      2.553000
      2 OP1         3.2230   -2.9140   -0.3850 o         1 0AP     -1.017500
      3 OP2         4.6150   -1.7010    1.2480 os        1 0AP     -1.186000
      4 O5'         2.6050   -0.5540    0.2480 os        1 0AP     -0.770000
      5 C5'         1.2700   -0.5310   -0.1920 c3        1 0AP      0.028000
      6 C4'         1.0890    0.5880   -1.1950 c3        1 0AP     -0.019000
      7 O4'        -0.3030    0.3980   -1.9910 os        1 0AP     -0.319000
      8 C3'         1.0080    1.7190   -0.5850 c3        1 0AP      0.102000
      9 O3'         1.5610    2.8020   -1.4360 os        1 0AP     -0.731000
     10 P1          2.4540    3.9140   -0.7540 p5        1 0AP      1.557500
     11 O11         3.0800    4.7800   -1.8200 o         1 0AP     -0.943167
     12 O21         3.5400    3.2560    0.0630 o         1 0AP     -0.943167
     13 O31         1.5930    4.7690    0.1470 o         1 0AP     -0.943167
     14 C2'        -0.5240    1.9430   -0.3490 c3        1 0AP     -0.218000
     15 C1'        -1.2340    0.8810   -1.2150 c3        1 0AP      0.167000
     16 N1         -1.7780   -0.1600   -0.3820 n         1 0AP     -0.194000
     17 C2         -2.4050    0.1790    0.8960 c2        1 0AP      0.296000
     18 O2         -2.5940    1.3450    1.1890 o         1 0AP     -0.474000
     19 N3         -2.8680   -0.8820    1.7880 n2        1 0AP     -0.412000
     20 C4         -2.8630   -2.2320    1.3480 c1        1 0AP      0.102000
     21 N4         -3.4620   -3.2440    2.1480 n2        1 0AP     -0.314000
     22 C5         -2.3220   -2.5670    0.0220 c2        1 0AP     -0.437000
     23 C6         -1.7680   -1.5050   -0.8320 c2        1 0AP     -0.122000
     24 OP3         2.3550   -2.4630    1.8780 o         1 0AP     -1.017500
     25 H5'1        1.0500   -1.3880   -0.6150 h1        1 0AP      0.078500
     26 H5'2        0.6770   -0.3830    0.5720 h1        1 0AP      0.078500
     27 H4'         1.8390    0.5980   -1.8270 h1        1 0AP      0.101000
     28 H3'         1.4820    1.6800    0.2690 h1        1 0AP      0.105000
     29 H1'        -1.9390    1.2940   -1.7480 h2        1 0AP      0.100000
     30 H2'1       -0.7830    2.8420   -0.6360 hc        1 0AP      0.098500
     31 H2'2       -0.7430    1.8130    0.5920 hc        1 0AP      0.098500
     32 H4N1       -3.8300   -3.0280    2.9580 hn        1 0AP      0.121500
     33 H4N2       -3.5080   -4.1070    1.8380 hn        1 0AP      0.121500
     34 H13        -2.3160   -3.4930   -0.2840 ha        1 0AP      0.096000
     35 H14        -1.4080   -1.7240   -1.7120 h4        1 0AP      0.256000
@<TRIPOS>BOND
     1    1    2 1   
     2    1    4 1   
     3    1   24 1   
     4    4    5 1   
     5    5    6 1   
     6    5   25 1   
     7    5   26 1   
     8    6    7 1   
     9    6    8 1   
    10    6   27 1   
    11    7   15 1   
    12    8    9 1   
    13    8   14 1   
    14    8   28 1   
    15    9   10 1   
    16   10   11 1   
    17   10   12 1   
    18   10   13 1   
    19   14   15 1   
    20   14   30 1   
    21   14   31 1   
    22   15   16 1   
    23   15   29 1   
    24   16   17 1   
    25   16   23 1   
    26   17   18 1   
    27   17   19 1   
    28   19   20 1   
    29   20   22 1   
    30   21   32 1   
    31   21   33 1   
    32   22   23 1   
    33   22   34 1   
    34   23   35 1   
@<TRIPOS>SUBSTRUCTURE
     1 0AP         1 TEMP              0 ****  ****    0 ROOT
