@<TRIPOS>MOLECULE
0AR
   30    29     1     0     0
SMALL
bcc


@<TRIPOS>ATOM
      1 C           4.6000    0.1800   -0.1990 c         1 0AR      0.887600
      2 N           3.2730   -1.7260    0.8360 n3        1 0AR     -0.892800
      3 O           5.5630   -0.1980    0.5290 o         1 0AR     -0.843800
      4 CA          3.2580   -0.6230   -0.1180 c3        1 0AR      0.018500
      5 CB          2.1210    0.3700    0.1230 c3        1 0AR     -0.062400
      6 CD         -0.3300    0.8050    0.0670 c3        1 0AR      0.187800
      7 NE         -1.6550    0.2810   -0.2120 nh        1 0AR     -0.799200
      8 CG          0.7610   -0.2510   -0.1140 c3        1 0AR     -0.086400
      9 CZ         -2.7720    1.1130    0.0450 c2        1 0AR      0.661800
     10 C0B        -4.4120   -0.8020    0.1980 c         1 0AR      0.666100
     11 O0C        -3.6470   -1.5410    0.8460 o         1 0AR     -0.596100
     12 C1B        -5.7880   -1.2770   -0.2110 c3        1 0AR     -0.179100
     13 NH1        -2.6470    2.3820    0.3430 n2        1 0AR     -0.862100
     14 NH2        -4.0750    0.4940   -0.1500 n         1 0AR     -0.557400
     15 HN          4.1680   -2.1810    0.7470 hn        1 0AR      0.330300
     16 HNA         3.2470   -1.3430    1.7650 hn        1 0AR      0.330300
     17 HA          3.1090   -1.0870   -1.1370 h1        1 0AR      0.040700
     18 HB          2.1760    0.7740    1.1670 hc        1 0AR      0.049700
     19 HBA         2.2810    1.2310   -0.5800 hc        1 0AR      0.049700
     20 HD         -0.1440    1.6600   -0.6440 h1        1 0AR      0.050700
     21 HDA        -0.2640    1.2180    1.1160 h1        1 0AR      0.050700
     22 HNE        -1.7750   -0.6700    0.0830 hn        1 0AR      0.426800
     23 HG          0.7210   -0.6740   -1.1520 hc        1 0AR      0.044700
     24 HGA         0.5980   -1.0990    0.6010 hc        1 0AR      0.044700
     25 H1B        -6.5780   -0.6150    0.2170 hc        1 0AR      0.063700
     26 H1BA       -5.8800   -1.2870   -1.3240 hc        1 0AR      0.063700
     27 H1BB       -5.9360   -2.3150    0.1750 hc        1 0AR      0.063700
     28 HNH1       -3.4940    2.9040    0.3940 hn        1 0AR      0.382400
     29 HNH2       -4.7100    1.0020   -0.7200 hn        1 0AR      0.310500
     30 OXT         4.6510    1.1490   -1.0050 o         1 0AR     -0.843800
@<TRIPOS>BOND
     1    1    3 1   
     2    1    4 1   
     3    1   30 1   
     4    2    4 1   
     5    2   15 1   
     6    2   16 1   
     7    4    5 1   
     8    4   17 1   
     9    5    8 1   
    10    5   18 1   
    11    5   19 1   
    12    6    7 1   
    13    6    8 1   
    14    6   20 1   
    15    6   21 1   
    16    7    9 1   
    17    7   22 1   
    18    8   23 1   
    19    8   24 1   
    20    9   13 2   
    21    9   14 1   
    22   10   11 2   
    23   10   12 1   
    24   10   14 1   
    25   12   25 1   
    26   12   26 1   
    27   12   27 1   
    28   13   28 1   
    29   14   29 1   
@<TRIPOS>SUBSTRUCTURE
     1 0AR         1 TEMP              0 ****  ****    0 ROOT
