@<TRIPOS>MOLECULE
0AT
   33    33     1     0     0
SMALL
bcc


@<TRIPOS>ATOM
      1 C1          1.5910    1.3870   -0.0240 c3        1 0AT      0.343900
      2 C2          2.4930    0.1350    0.1930 c3        1 0AT      0.042700
      3 C3          1.7520   -1.0750   -0.3960 c3        1 0AT      0.030100
      4 C4          0.3650   -1.2410    0.3500 c3        1 0AT      0.370800
      5 C5         -0.4330    0.0480    0.0150 c3        1 0AT      0.040100
      6 C6         -1.7750    0.0910    0.7640 c3        1 0AT      0.199400
      7 C7          4.9310    0.6220    0.3590 c         1 0AT      0.649100
      8 C8          6.2640    0.5410   -0.3610 c3        1 0AT     -0.177100
      9 N2          3.8160    0.3160   -0.3720 n         1 0AT     -0.516900
     10 O1          1.5240    1.7880   -1.3780 oh        1 0AT     -0.655800
     11 O3          2.5230   -2.2530   -0.2520 oh        1 0AT     -0.656800
     12 O4         -0.2080   -2.3690   -0.0050 o         1 0AT     -0.863500
     13 O5          0.2800    1.2330    0.4390 os        1 0AT     -0.449600
     14 O6         -2.8140    0.4000   -0.1140 os        1 0AT     -0.592200
     15 O71         4.8950    0.9970    1.5540 o         1 0AT     -0.653100
     16 P          -4.0070   -0.7370   -0.2880 p5        1 0AT      1.437800
     17 O1P        -3.1450   -1.8520   -1.0890 oh        1 0AT     -0.811400
     18 O2P        -4.3130   -1.2510    1.0670 o         1 0AT     -0.856000
     19 O3P        -5.0360   -0.1750   -1.1920 o         1 0AT     -0.856000
     20 H1          2.0100    2.2760    0.5300 h2        1 0AT      0.068700
     21 H2          2.6000   -0.0040    1.3090 h1        1 0AT      0.086700
     22 HA          0.9190    1.1900   -1.8340 ho        1 0AT      0.416000
     23 H3          1.5780   -0.9180   -1.4970 h1        1 0AT      0.011700
     24 HB          3.9400   -0.0720   -1.2780 hn        1 0AT      0.302500
     25 H4          0.6190   -1.1830    1.4620 h1        1 0AT     -0.072300
     26 HC          1.8770   -2.9490   -0.0350 ho        1 0AT      0.436000
     27 H5         -0.6200    0.1150   -1.0890 h1        1 0AT      0.036700
     28 HD         -2.2960   -2.0770   -0.7030 ho        1 0AT      0.472000
     29 H6C1       -1.9580   -0.9070    1.2530 h1        1 0AT      0.037700
     30 H6C2       -1.7260    0.8930    1.5550 h1        1 0AT      0.037700
     31 H8C1        6.4660   -0.5100   -0.6800 hc        1 0AT      0.047033
     32 H8C2        6.2680    1.2020   -1.2600 hc        1 0AT      0.047033
     33 H8C3        7.0710    0.8700    0.3360 hc        1 0AT      0.047033
@<TRIPOS>BOND
     1    1    2 1   
     2    1   10 1   
     3    1   13 1   
     4    1   20 1   
     5    2    3 1   
     6    2    9 1   
     7    2   21 1   
     8    3    4 1   
     9    3   11 1   
    10    3   23 1   
    11    4    5 1   
    12    4   12 1   
    13    4   25 1   
    14    5    6 1   
    15    5   13 1   
    16    5   27 1   
    17    6   14 1   
    18    6   29 1   
    19    6   30 1   
    20    7    8 1   
    21    7    9 1   
    22    7   15 2   
    23    8   31 1   
    24    8   32 1   
    25    8   33 1   
    26    9   24 1   
    27   10   22 1   
    28   11   26 1   
    29   14   16 1   
    30   16   17 1   
    31   16   18 1   
    32   16   19 1   
    33   17   28 1   
@<TRIPOS>SUBSTRUCTURE
     1 0AT         1 TEMP              0 ****  ****    0 ROOT
