@<TRIPOS>MOLECULE
0AT
   33    32     1     0     0
SMALL
bcc


@<TRIPOS>ATOM
      1 C1         -0.8920    0.4520   -1.0490 c3        1 0AT      0.158000
      2 C2          0.6180    0.4700   -1.0910 c3        1 0AT     -0.059000
      3 C3          1.2190    0.4940    0.2650 c3        1 0AT      0.048000
      4 C4          0.6750   -0.5930    1.1460 c3        1 0AT     -0.081000
      5 C5         -0.8530   -0.6100    1.1730 c3        1 0AT     -0.025000
      6 C6         -1.3290    0.5950    1.8840 c3        1 0AT      0.054000
      7 C7          2.1000   -0.5880   -2.8040 c1        1 0AT      0.292000
      8 C8          2.5770   -1.8410   -3.5780 c2        1 0AT     -0.245000
      9 N2          1.0810   -0.7120   -1.7940 n3        1 0AT     -0.330000
     10 O1         -1.3690    0.2650   -2.3230 oh        1 0AT     -0.344000
     11 O3          0.9470    1.7490    0.8610 oh        1 0AT     -0.394000
     12 O4          1.1370   -1.8380    0.6720 oh        1 0AT     -0.391000
     13 O5         -1.4330   -0.6300   -0.1610 os        1 0AT     -0.339000
     14 O6         -2.7360    0.4590    2.1870 os        1 0AT     -0.730000
     15 O71         2.5620    0.4890   -3.0600 o         1 0AT     -0.412000
     16 P          -3.3290    1.2660    3.4580 p5        1 0AT      1.563500
     17 O1P        -2.8000    0.6690    4.7130 o         1 0AT     -0.924500
     18 O2P        -4.8440    1.1780    3.4570 o         1 0AT     -0.924500
     19 O3P        -2.9110    2.7100    3.3740 o         1 0AT     -0.924500
     20 H1         -1.2010    1.3020   -0.7220 h2        1 0AT      0.141000
     21 H2          0.9050    1.2490   -1.5710 h1        1 0AT      0.129000
     22 HA         -2.0470    0.8300   -2.4730 ho        1 0AT      0.201000
     23 H3          2.2140    0.3810    0.1840 h1        1 0AT      0.065000
     24 HB          0.6480   -1.4790   -1.6980 hn        1 0AT      0.242000
     25 H4          1.0150   -0.4550    2.0810 h1        1 0AT      0.226000
     26 HC          1.7110    2.1500    1.0700 ho        1 0AT      0.309000
     27 H5         -1.1520   -1.4030    1.6610 h1        1 0AT      0.109000
     28 HD          1.4690   -2.3090    1.3520 ho        1 0AT      0.228000
     29 H6C1       -0.8330    0.6980    2.7050 h1        1 0AT      0.045500
     30 H6C2       -1.1920    1.3790    1.3200 h1        1 0AT      0.045500
     31 H8C1        3.1620   -1.5600   -4.3450 ha        1 0AT      0.089667
     32 H8C2        3.0930   -2.4300   -2.9670 ha        1 0AT      0.089667
     33 H8C3        1.7870   -2.3370   -3.9280 ha        1 0AT      0.089667
@<TRIPOS>BOND
     1    1    2 1   
     2    1   10 1   
     3    1   13 1   
     4    1   20 1   
     5    2    3 1   
     6    2    9 1   
     7    2   21 1   
     8    3    4 1   
     9    3   11 1   
    10    3   23 1   
    11    4    5 1   
    12    4   12 1   
    13    4   25 1   
    14    5    6 1   
    15    5   13 1   
    16    5   27 1   
    17    6   14 1   
    18    6   29 1   
    19    6   30 1   
    20    7    9 1   
    21    7   15 1   
    22    8   31 1   
    23    8   32 1   
    24    8   33 1   
    25    9   24 1   
    26   10   22 1   
    27   11   26 1   
    28   12   28 1   
    29   14   16 1   
    30   16   17 1   
    31   16   18 1   
    32   16   19 1   
@<TRIPOS>SUBSTRUCTURE
     1 0AT         1 TEMP              0 ****  ****    0 ROOT
