@<TRIPOS>MOLECULE
0AU
   32    33     1     0     0
SMALL
bcc


@<TRIPOS>ATOM
      1 P           4.4630   -1.1290    1.0540 p5        1 0AU      1.333900
      2 OP1         3.4890   -2.2620    1.1870 o         1 0AU     -0.927833
      3 OP2         5.9110   -1.4380    0.8500 o         1 0AU     -0.927833
      4 O5'         3.9680   -0.4330   -0.4730 os        1 0AU     -0.551200
      5 C5'         2.6460   -0.0970   -0.5190 c3        1 0AU      0.230400
      6 C4'         2.4700    1.4310   -0.3330 c3        1 0AU      0.047100
      7 O4'         1.3810    1.9120   -1.1640 os        1 0AU     -0.434600
      8 C3'         2.1880    1.8510    1.1210 c3        1 0AU      0.128100
      9 O3'         3.2540    2.6080    1.6420 oh        1 0AU     -0.682800
     10 C2'         0.9270    2.7410    1.0650 c3        1 0AU      0.101100
     11 O2'         1.1470    4.1150    1.2950 oh        1 0AU     -0.612800
     12 C1'         0.3940    2.5720   -0.3970 c3        1 0AU      0.263500
     13 N1         -0.8730    1.8080   -0.4660 n         1 0AU     -0.361000
     14 C2         -2.0560    2.4840   -0.8540 c         1 0AU      0.803500
     15 O2         -2.0900    3.7090   -1.1110 o         1 0AU     -0.662500
     16 N3         -3.2440    1.7390   -0.9410 n         1 0AU     -0.595500
     17 C4         -3.3090    0.3510   -0.7090 c         1 0AU      0.736700
     18 O4         -4.4280   -0.1860   -0.8230 o         1 0AU     -0.655500
     19 C5         -2.0480   -0.2970   -0.3620 cc        1 0AU     -0.244400
     20 C6         -0.8980    0.4470   -0.2720 cd        1 0AU      0.135600
     21 I          -1.9880   -2.2750   -0.0240 i         1 0AU     -0.078800
     22 OXT         4.1300    0.0670    1.9270 o         1 0AU     -0.927833
     23 H5'1        2.2180   -0.3530   -1.5330 h1        1 0AU     -0.002300
     24 H5'2        2.0620   -0.6490    0.2750 h1        1 0AU     -0.002300
     25 H4'         3.3860    1.9540   -0.7200 h1        1 0AU      0.083700
     26 H3'         2.0110    0.9490    1.7730 h1        1 0AU      0.118700
     27 H1'         0.2020    3.5750   -0.8800 h2        1 0AU      0.104700
     28 HA          3.9410    1.9450    1.9030 ho        1 0AU      0.517000
     29 H2'         0.1700    2.4270    1.8310 h1        1 0AU      0.063700
     30 HB          2.0940    4.2850    1.1920 ho        1 0AU      0.432000
     31 H6          0.1000   -0.0070   -0.0360 h4        1 0AU      0.232000
     32 H3         -4.0690    2.2310   -1.2010 hn        1 0AU      0.333500
@<TRIPOS>BOND
     1    1    2 1   
     2    1    3 1   
     3    1    4 1   
     4    1   22 1   
     5    4    5 1   
     6    5    6 1   
     7    5   23 1   
     8    5   24 1   
     9    6    7 1   
    10    6    8 1   
    11    6   25 1   
    12    7   12 1   
    13    8    9 1   
    14    8   10 1   
    15    8   26 1   
    16    9   28 1   
    17   10   11 1   
    18   10   12 1   
    19   10   29 1   
    20   11   30 1   
    21   12   13 1   
    22   12   27 1   
    23   13   14 1   
    24   13   20 1   
    25   14   15 2   
    26   14   16 1   
    27   16   17 1   
    28   16   32 1   
    29   17   18 2   
    30   17   19 1   
    31   19   20 2   
    32   19   21 1   
    33   20   31 1   
@<TRIPOS>SUBSTRUCTURE
     1 0AU         1 TEMP              0 ****  ****    0 ROOT
