@<TRIPOS>MOLECULE
0AU
   32    32     1     0     0
SMALL
bcc


@<TRIPOS>ATOM
      1 P          -0.2530   -3.9640    0.3170 p4        1 0AU      1.711200
      2 OP1        -0.6320   -5.2460   -0.3930 o         1 0AU     -0.670000
      3 OP2         1.2440   -3.8230    0.3320 os        1 0AU     -1.161000
      4 O5'        -0.8810   -2.7480   -0.4340 os        1 0AU     -0.598200
      5 C5'        -0.5590   -1.4280    0.0170 c3        1 0AU      0.174400
      6 C4'        -1.7600   -0.5280   -0.1620 c3        1 0AU      0.050100
      7 O4'        -1.6430    0.7430    0.8070 os        1 0AU     -0.442600
      8 C3'        -1.7900   -0.0650   -1.3690 c3        1 0AU      0.280100
      9 O3'        -3.2070    0.1600   -1.8070 oh        1 0AU     -0.986800
     10 C2'        -1.0260    1.2890   -1.3010 c3        1 0AU      0.036100
     11 O2'        -1.7330    2.2480   -1.8880 oh        1 0AU     -0.643800
     12 C1'        -0.8600    1.5940    0.1980 c3        1 0AU      0.279500
     13 N1          0.5120    1.3940    0.6040 n         1 0AU     -0.344000
     14 C2          0.8160    1.0640    2.0020 c         1 0AU      0.801500
     15 O2         -0.0890    0.9610    2.8130 o         1 0AU     -0.670500
     16 N3          2.1970    0.9050    2.4310 n         1 0AU     -0.598500
     17 C4          3.2560    1.1130    1.5100 c         1 0AU      0.736700
     18 O4          4.4290    0.9140    1.8570 o         1 0AU     -0.676500
     19 C5          2.9570    1.5290    0.1380 cc        1 0AU     -0.262400
     20 C6          1.5550    1.7080   -0.2840 cd        1 0AU      0.142600
     21 I           4.5190    1.7790   -1.2500 i         1 0AU     -0.089800
     22 OXT        -0.7690   -4.0010    1.7310 o         1 0AU     -0.718800
     23 H5'1       -0.3110   -1.4580    0.9640 h1        1 0AU      0.021200
     24 H5'2        0.1930   -1.0780   -0.5070 h1        1 0AU      0.021200
     25 H4'        -2.5710   -1.0140    0.0280 h1        1 0AU      0.050700
     26 H3'        -1.3420   -0.6750   -1.9760 h1        1 0AU     -0.033300
     27 H1'        -1.1410    2.5090    0.3900 h2        1 0AU      0.094700
     28 HA         -3.3850   -0.3560   -2.5400 ho        1 0AU      0.434000
     29 H2'        -0.1410    1.2030   -1.7320 h1        1 0AU      0.044700
     30 HB         -1.3160    2.5210   -2.6020 ho        1 0AU      0.437000
     31 H6          1.3440    2.0530   -1.2100 h4        1 0AU      0.257000
     32 H3          2.3870    0.6960    3.3170 hn        1 0AU      0.326500
@<TRIPOS>BOND
     1    1    2 1   
     2    1    4 1   
     3    1   22 2   
     4    4    5 1   
     5    5    6 1   
     6    5   23 1   
     7    5   24 1   
     8    6    7 1   
     9    6    8 1   
    10    6   25 1   
    11    7   12 1   
    12    8    9 1   
    13    8   10 1   
    14    8   26 1   
    15    9   28 1   
    16   10   11 1   
    17   10   12 1   
    18   10   29 1   
    19   11   30 1   
    20   12   13 1   
    21   12   27 1   
    22   13   14 1   
    23   13   20 1   
    24   14   15 2   
    25   14   16 1   
    26   16   17 1   
    27   16   32 1   
    28   17   18 2   
    29   17   19 1   
    30   19   20 2   
    31   19   21 1   
    32   20   31 1   
@<TRIPOS>SUBSTRUCTURE
     1 0AU         1 TEMP              0 ****  ****    0 ROOT
