@<TRIPOS>MOLECULE
0AV
   38    33     1     0     0
SMALL
bcc


@<TRIPOS>ATOM
      1 P           3.3600   -4.7880    0.0880 p3        1 0AV      2.539000
      2 OP1         4.7730   -4.4400   -0.1240 o         1 0AV     -1.233000
      3 OP2         3.1150   -4.9920    1.5330 os        1 0AV     -1.265000
      4 O5'         2.4440   -3.6160   -0.4440 os        1 0AV     -0.731000
      5 C5'         2.3690   -2.3910    0.3240 c3        1 0AV      0.071000
      6 C4'         1.7340   -1.2660   -0.5520 c3        1 0AV     -0.044000
      7 O4'         0.4520   -1.2130   -0.3570 os        1 0AV     -0.287000
      8 C3'         2.2620    0.1140   -0.1230 c3        1 0AV     -0.023000
      9 O3'         3.0850    0.6250   -1.0790 oh        1 0AV     -0.379000
     10 C2'         1.0060    1.0060    0.0380 c3        1 0AV     -0.007000
     11 O2'         1.1910    2.2990   -0.6980 os        1 0AV     -0.281000
     12 C1'         0.0460    0.3290   -0.4900 c3        1 0AV      0.161000
     13 N9         -1.1880    0.5820    0.2190 n3        1 0AV     -0.195000
     14 C8         -1.4510    0.3800    1.5340 c2        1 0AV      0.013000
     15 N7         -2.7880    0.5760    1.7320 n1        1 0AV     -0.179000
     16 C5         -3.3520    0.9020    0.5280 c1        1 0AV     -0.198000
     17 C6         -4.6610    1.2310    0.1650 c1        1 0AV      0.152000
     18 N6         -5.6620    1.1110    1.0670 n1        1 0AV     -0.320000
     19 N1         -4.9460    1.5540   -1.1160 n1        1 0AV     -0.275000
     20 C2         -3.9560    1.5590   -2.0610 c1        1 0AV     -0.036000
     21 N3         -2.6640    1.2350   -1.7060 n1        1 0AV     -0.188000
     22 C4         -2.3700    0.9060   -0.4060 c1        1 0AV      0.032000
     23 CM          1.6040    3.3380    0.1000 c3        1 0AV     -0.065000
     24 OXT         3.0370   -6.0560   -0.6600 o         1 0AV     -1.233000
     25 H5'1        1.8180   -2.5370    1.1160 h1        1 0AV      0.038000
     26 HA2         3.2760   -2.1200    0.6000 h1        1 0AV      0.038000
     27 HA          1.9270   -1.4250   -1.5080 h1        1 0AV      0.093000
     28 HB          2.7290    0.0430    0.7170 h1        1 0AV      0.193000
     29 HC         -0.0550    0.5690   -1.4360 h2        1 0AV      0.136000
     30 H3'         3.9490    0.6130   -0.7760 ho        1 0AV      0.286000
     31 HD          0.8200    1.1790    1.0160 h1        1 0AV      0.094000
     32 HMC1        2.4680    3.7040   -0.2480 h1        1 0AV      0.067000
     33 HMC2        1.7290    3.0230    0.9950 h1        1 0AV      0.067000
     34 HMC3        0.9210    4.0480    0.0940 h1        1 0AV      0.067000
     35 H8         -0.7990    0.1130    2.2190 h5        1 0AV      0.347000
     36 H6N1       -5.4670    0.9560    1.9560 hn        1 0AV      0.212000
     37 H6N2       -6.5620    1.1630    0.7830 DU        1 0AV      0.168000
     38 H2         -4.1940    1.6840   -3.0390 DU        1 0AV      0.168000
@<TRIPOS>BOND
     1    1    2 1   
     2    1    4 1   
     3    1   24 1   
     4    4    5 1   
     5    5    6 1   
     6    5   25 1   
     7    5   26 1   
     8    6    7 1   
     9    6    8 1   
    10    6   27 1   
    11    7   12 1   
    12    8    9 1   
    13    8   10 1   
    14    8   28 1   
    15    9   30 1   
    16   10   11 1   
    17   10   12 1   
    18   10   31 1   
    19   11   23 1   
    20   12   13 1   
    21   12   29 1   
    22   13   14 1   
    23   13   22 1   
    24   14   15 1   
    25   14   35 1   
    26   16   17 1   
    27   16   22 1   
    28   17   19 1   
    29   18   36 1   
    30   20   21 1   
    31   23   32 1   
    32   23   33 1   
    33   23   34 1   
@<TRIPOS>SUBSTRUCTURE
     1 0AV         1 TEMP              0 ****  ****    0 ROOT
