@<TRIPOS>MOLECULE
0AV
   38    40     1     0     0
SMALL
bcc


@<TRIPOS>ATOM
      1 P           3.3100    0.4970   -1.1300 p5        1 0AV      1.346900
      2 OP1         3.5420   -0.9440   -1.5180 o         1 0AV     -0.924167
      3 OP2         1.9050    0.9330   -1.5040 o         1 0AV     -0.924167
      4 O5'         3.1360    0.2400    0.5760 os        1 0AV     -0.569200
      5 C5'         1.8830    0.3120    1.1150 c3        1 0AV      0.221400
      6 C4'         1.1850   -1.0670    1.2170 c3        1 0AV      0.067100
      7 O4'        -0.1720   -0.8540    1.6810 os        1 0AV     -0.430600
      8 C3'         1.1000   -1.8170   -0.1280 c3        1 0AV      0.088100
      9 O3'         1.9660   -2.9240   -0.1640 oh        1 0AV     -0.651800
     10 C2'        -0.3760   -2.2060   -0.3000 c3        1 0AV      0.104100
     11 O2'        -0.7350   -3.5180    0.1330 os        1 0AV     -0.424600
     12 C1'        -1.1150   -1.2470    0.6920 c3        1 0AV      0.252800
     13 N9         -1.6990   -0.0960    0.0180 na        1 0AV     -0.278000
     14 C8         -1.0750    0.8550   -0.8380 cc        1 0AV      0.468700
     15 N7         -1.9150    1.8260   -1.2420 nd        1 0AV     -0.606100
     16 C5         -3.1430    1.5460   -0.6280 ca        1 0AV     -0.189200
     17 C6         -4.4070    2.2030   -0.6460 ca        1 0AV      0.673200
     18 N6         -4.6060    3.3090   -1.4840 nh        1 0AV     -0.922500
     19 N1         -5.4360    1.7050    0.1120 nb        1 0AV     -0.801000
     20 C2         -5.1890    0.5650    0.8150 ca        1 0AV      0.626900
     21 N3         -4.0630   -0.1750    0.9150 nb        1 0AV     -0.714000
     22 C4         -3.0220    0.3340    0.1880 ca        1 0AV      0.423800
     23 CM         -0.3730   -4.5270   -0.7940 c3        1 0AV      0.124700
     24 OXT         4.4120    1.4940   -1.2660 o         1 0AV     -0.924167
     25 H5'1        1.9620    0.7030    2.1740 h1        1 0AV     -0.001300
     26 HA2         1.2190    1.0080    0.5290 h1        1 0AV     -0.001300
     27 HA          1.6710   -1.7050    1.9990 h1        1 0AV      0.053700
     28 HB          1.3870   -1.0860   -0.9610 h1        1 0AV      0.153700
     29 HC         -1.9390   -1.7840    1.2470 h2        1 0AV      0.096700
     30 H3'         2.7940   -2.5780   -0.5720 ho        1 0AV      0.487000
     31 HD         -0.7000   -2.0680   -1.3650 h1        1 0AV      0.054700
     32 HMC1        0.7170   -4.4780   -1.0400 h1        1 0AV      0.027700
     33 HMC2       -0.6210   -5.4850   -0.2730 h1        1 0AV      0.027700
     34 HMC3       -0.9840   -4.4280   -1.7280 h1        1 0AV      0.027700
     35 H8          0.0290    0.7930   -1.1310 h5        1 0AV      0.217800
     36 H6N1       -3.7550    3.7490   -1.7610 hn        1 0AV      0.399800
     37 H6N2       -5.3150    3.9430   -1.1920 hn        1 0AV      0.399800
     38 H2         -6.0520    0.1910    1.4020 h5        1 0AV      0.021100
@<TRIPOS>BOND
     1    1    2 1   
     2    1    3 1   
     3    1    4 1   
     4    1   24 1   
     5    4    5 1   
     6    5    6 1   
     7    5   25 1   
     8    5   26 1   
     9    6    7 1   
    10    6    8 1   
    11    6   27 1   
    12    7   12 1   
    13    8    9 1   
    14    8   10 1   
    15    8   28 1   
    16    9   30 1   
    17   10   11 1   
    18   10   12 1   
    19   10   31 1   
    20   11   23 1   
    21   12   13 1   
    22   12   29 1   
    23   13   14 1   
    24   13   22 1   
    25   14   15 2   
    26   14   35 1   
    27   15   16 1   
    28   16   17 ar  
    29   16   22 ar  
    30   17   18 1   
    31   17   19 ar  
    32   18   36 1   
    33   18   37 1   
    34   19   20 ar  
    35   20   21 ar  
    36   20   38 1   
    37   21   22 ar  
    38   23   32 1   
    39   23   33 1   
    40   23   34 1   
@<TRIPOS>SUBSTRUCTURE
     1 0AV         1 TEMP              0 ****  ****    0 ROOT
