@<TRIPOS>MOLECULE
0AZ
   17    17     1     0     0
SMALL
bcc


@<TRIPOS>ATOM
      1 N           0.1620    1.3830    0.6730 n3        1 0AZ     -0.793200
      2 CA         -0.4630    0.0470    0.6580 c3        1 0AZ      0.016500
      3 C          -1.3370   -0.2120   -0.6090 c         1 0AZ      0.899600
      4 O          -0.8360    0.1040   -1.7300 o         1 0AZ     -0.839800
      5 CB          0.6570   -1.0130    0.6880 c3        1 0AZ     -0.108400
      6 CG          1.8990   -0.2750    0.1710 c3        1 0AZ      0.132100
      7 CD          1.6010    1.2140    0.4910 c3        1 0AZ      0.115800
      8 OD1         2.0860   -0.4630   -1.2160 oh        1 0AZ     -0.641800
      9 OXT        -2.4720   -0.7290   -0.4480 o         1 0AZ     -0.839800
     10 H          -0.2100    1.9110   -0.0990 hn        1 0AZ      0.357800
     11 HA         -1.1100   -0.0310    1.5710 h1        1 0AZ      0.057700
     12 HB2         0.8290   -1.3820    1.7270 hc        1 0AZ      0.043700
     13 HB3         0.4000   -1.8800    0.0340 hc        1 0AZ      0.043700
     14 HG          2.8490   -0.6230    0.6470 h1        1 0AZ      0.043700
     15 HD22        2.0100    1.8690   -0.3230 h1        1 0AZ      0.028700
     16 HD23        2.1040    1.4940    1.4550 h1        1 0AZ      0.028700
     17 HD1         1.2270   -0.2850   -1.6450 ho        1 0AZ      0.456000
@<TRIPOS>BOND
     1    1    2 1   
     2    1    7 1   
     3    1   10 1   
     4    2    3 1   
     5    2    5 1   
     6    2   11 1   
     7    3    4 1   
     8    3    9 1   
     9    5    6 1   
    10    5   12 1   
    11    5   13 1   
    12    6    7 1   
    13    6    8 1   
    14    6   14 1   
    15    7   15 1   
    16    7   16 1   
    17    8   17 1   
@<TRIPOS>SUBSTRUCTURE
     1 0AZ         1 TEMP              0 ****  ****    0 ROOT
