@<TRIPOS>MOLECULE
0B1
   48    51     1     0     0
SMALL
bcc


@<TRIPOS>ATOM
      1 O1         -0.0700   -1.6900   -1.3030 o         1 0B1     -0.541500
      2 C1          1.0420   -1.5400   -0.7890 c         1 0B1      0.701700
      3 N2          1.3380   -2.2750    0.4150 n         1 0B1     -0.381300
      4 C5          0.4040   -3.2370    0.9380 c3        1 0B1      0.023300
      5 C4          2.5910   -2.0690    0.9940 cc        1 0B1      0.541800
      6 N3          2.9190   -2.8550    2.2320 nz        1 0B1     -0.812600
      7 N1          3.5470   -1.2490    0.5680 nd        1 0B1     -0.589300
      8 C3          3.3100   -0.5630   -0.6290 cd        1 0B1      0.230400
      9 C2          2.1120   -0.6780   -1.2880 cc        1 0B1     -0.238200
     10 C6          4.3610    0.3190   -1.1760 cx        1 0B1     -0.108500
     11 C21         5.7040    0.5360   -0.5360 cx        1 0B1     -0.090400
     12 C7          5.6300   -0.1470   -1.8750 cx        1 0B1     -0.042400
     13 C8          6.1040   -1.5310   -2.0300 ca        1 0B1     -0.061300
     14 C13         7.4490   -1.7250   -2.3930 ca        1 0B1     -0.105000
     15 C12         7.9630   -3.0110   -2.5310 ca        1 0B1     -0.118000
     16 C11         7.1620   -4.1260   -2.2750 ca        1 0B1     -0.100000
     17 C10         5.8280   -3.9460   -1.9030 cp        1 0B1     -0.056000
     18 C9          5.2950   -2.6480   -1.8340 ca        1 0B1     -0.118000
     19 C14         4.9810   -5.0700   -1.5050 cp        1 0B1      0.012000
     20 C20         4.8750   -6.2430   -2.2620 ca        1 0B1     -0.126000
     21 C19         4.0410   -7.2760   -1.8340 ca        1 0B1     -0.080000
     22 C18         3.3000   -7.1630   -0.6570 ca        1 0B1     -0.172000
     23 C16         3.4150   -5.9920    0.0990 ca        1 0B1      0.100100
     24 C15         4.2580   -4.9520   -0.3110 ca        1 0B1     -0.177000
     25 O2          2.7030   -5.7430    1.2700 os        1 0B1     -0.425900
     26 C17         2.1230   -6.8890    1.8950 c3        1 0B1      0.118700
     27 H1          0.0650   -2.9370    1.9660 h1        1 0B1      0.082700
     28 H2          0.8600   -4.2660    0.9620 h1        1 0B1      0.082700
     29 H3         -0.5020   -3.2680    0.2660 h1        1 0B1      0.082700
     30 H5          2.1960   -2.7000    2.9410 hn        1 0B1      0.487133
     31 H6          3.8340   -2.5570    2.5990 hn        1 0B1      0.487133
     32 H8          1.8950   -0.1430   -2.2270 ha        1 0B1      0.205000
     33 H10         3.8800    1.2140   -1.6390 hc        1 0B1      0.110700
     34 H11         5.9920   -0.0580    0.3490 hc        1 0B1      0.090200
     35 H12         6.0910    1.5710   -0.4810 hc        1 0B1      0.090200
     36 H13         5.8950    0.4620   -2.7720 hc        1 0B1      0.104700
     37 H14         8.0970   -0.8530   -2.5720 ha        1 0B1      0.146000
     38 H15         9.0130   -3.1510   -2.8330 ha        1 0B1      0.150000
     39 H16         7.5810   -5.1410   -2.3570 ha        1 0B1      0.147000
     40 H17         4.2200   -2.5340   -1.6450 ha        1 0B1      0.119000
     41 H18         5.4490   -6.3450   -3.1960 ha        1 0B1      0.157000
     42 H19         3.9600   -8.1960   -2.4360 ha        1 0B1      0.155000
     43 H20         2.6430   -7.9840   -0.3390 ha        1 0B1      0.151000
     44 H21         4.3710   -4.0460    0.2970 ha        1 0B1      0.107000
     45 H22         1.7730   -6.5070    2.8860 h1        1 0B1      0.057033
     46 H23         2.8840   -7.6950    2.0260 h1        1 0B1      0.057033
     47 H24         1.2600   -7.2550    1.2860 h1        1 0B1      0.057033
     48 H33         2.9600   -3.8620    1.9830 hn        1 0B1      0.487133
@<TRIPOS>BOND
     1    1    2 2   
     2    2    3 1   
     3    2    9 1   
     4    3    4 1   
     5    3    5 1   
     6    4   27 1   
     7    4   28 1   
     8    4   29 1   
     9    5    6 1   
    10    5    7 2   
    11    6   30 1   
    12    6   31 1   
    13    6   48 1   
    14    7    8 1   
    15    8    9 2   
    16    8   10 1   
    17    9   32 1   
    18   10   11 1   
    19   10   12 1   
    20   10   33 1   
    21   11   12 1   
    22   11   34 1   
    23   11   35 1   
    24   12   13 1   
    25   12   36 1   
    26   13   14 ar  
    27   13   18 ar  
    28   14   15 ar  
    29   14   37 1   
    30   15   16 ar  
    31   15   38 1   
    32   16   17 ar  
    33   16   39 1   
    34   17   18 ar  
    35   17   19 1   
    36   18   40 1   
    37   19   20 ar  
    38   19   24 ar  
    39   20   21 ar  
    40   20   41 1   
    41   21   22 ar  
    42   21   42 1   
    43   22   23 ar  
    44   22   43 1   
    45   23   24 ar  
    46   23   25 1   
    47   24   44 1   
    48   25   26 1   
    49   26   45 1   
    50   26   46 1   
    51   26   47 1   
@<TRIPOS>SUBSTRUCTURE
     1 0B1         1 TEMP              0 ****  ****    0 ROOT
