@<TRIPOS>MOLECULE
0B1
   47    50     1     0     0
SMALL
bcc


@<TRIPOS>ATOM
      1 O1          2.7640    2.1080   -2.9610 o         1 0B1     -0.637500
      2 C1          2.8090    1.4250   -1.9210 c         1 0B1      0.708700
      3 N2          2.8380    2.0940   -0.6620 n         1 0B1     -0.395300
      4 C5          2.8470    3.5320   -0.6140 c3        1 0B1      0.057300
      5 C4          2.9040    1.3240    0.5200 cc        1 0B1      0.678800
      6 N3          3.0450    1.9950    1.7550 nh        1 0B1     -0.888800
      7 N1          2.9020   -0.0290    0.5340 nd        1 0B1     -0.695300
      8 C3          2.8690   -0.6910   -0.6770 cd        1 0B1      0.251400
      9 C2          2.8280   -0.0280   -1.8820 cc        1 0B1     -0.336200
     10 C6          2.8720   -2.1720   -0.6770 cx        1 0B1     -0.082500
     11 C21         3.2320   -2.9820    0.5400 cx        1 0B1     -0.099400
     12 C7          1.8130   -2.9860    0.0470 cx        1 0B1     -0.062400
     13 C8          0.7210   -2.3740    0.8180 ca        1 0B1     -0.046300
     14 C13         0.7370   -2.3850    2.2180 ca        1 0B1     -0.108000
     15 C12        -0.3300   -1.8450    2.9340 ca        1 0B1     -0.136000
     16 C11        -1.4170   -1.2880    2.2650 ca        1 0B1     -0.119000
     17 C10        -1.4470   -1.2710    0.8630 cp        1 0B1     -0.042000
     18 C9         -0.3760   -1.8210    0.1470 ca        1 0B1     -0.107000
     19 C14        -2.5850   -0.6850    0.1550 cp        1 0B1     -0.004000
     20 C20        -3.0950   -1.2990   -1.0010 ca        1 0B1     -0.152000
     21 C19        -4.1760   -0.7400   -1.6730 ca        1 0B1     -0.095000
     22 C18        -4.7720    0.4360   -1.2160 ca        1 0B1     -0.201000
     23 C16        -4.2640    1.0470   -0.0640 ca        1 0B1      0.122100
     24 C15        -3.1720    0.4920    0.6270 ca        1 0B1     -0.149000
     25 O2         -4.7640    2.2110    0.4900 os        1 0B1     -0.329900
     26 C17        -5.8590    2.8090   -0.1930 c3        1 0B1      0.113700
     27 H1          2.8380    3.9400   -1.6620 h1        1 0B1      0.060033
     28 H2          1.9350    3.9090   -0.0760 h1        1 0B1      0.060033
     29 H3          3.7680    3.9040   -0.0900 h1        1 0B1      0.060033
     30 H5          2.5600    2.8620    1.8310 hn        1 0B1      0.418800
     31 H6          2.9560    1.4070    2.5570 hn        1 0B1      0.418800
     32 H8          2.8050   -0.5390   -2.8510 ha        1 0B1      0.167000
     33 H10         3.1990   -2.5650   -1.6650 hc        1 0B1      0.089700
     34 H11         3.8460   -3.8900    0.3970 hc        1 0B1      0.082700
     35 H12         3.4760   -2.4620    1.4840 hc        1 0B1      0.082700
     36 H13         1.4610   -3.8950   -0.4900 hc        1 0B1      0.086700
     37 H14         1.5950   -2.8210    2.7520 ha        1 0B1      0.135000
     38 H15        -0.3150   -1.8610    4.0330 ha        1 0B1      0.131000
     39 H16        -2.2600   -0.8670    2.8340 ha        1 0B1      0.136000
     40 H17        -0.3920   -1.8090   -0.9540 ha        1 0B1      0.140000
     41 H18        -2.6380   -2.2290   -1.3700 ha        1 0B1      0.137000
     42 H19        -4.5700   -1.2280   -2.5780 ha        1 0B1      0.133000
     43 H20        -5.6240    0.8650   -1.7590 ha        1 0B1      0.137000
     44 H21        -2.7900    0.9960    1.5260 ha        1 0B1      0.149000
     45 H22        -5.5680    3.0950   -1.2330 h1        1 0B1      0.044033
     46 H23        -6.7380    2.1210   -0.2080 h1        1 0B1      0.044033
     47 H24        -6.0810    3.7200    0.4190 h1        1 0B1      0.044033
@<TRIPOS>BOND
     1    1    2 2   
     2    2    3 1   
     3    2    9 1   
     4    3    4 1   
     5    3    5 1   
     6    4   27 1   
     7    4   28 1   
     8    4   29 1   
     9    5    6 1   
    10    5    7 2   
    11    6   30 1   
    12    6   31 1   
    13    7    8 1   
    14    8    9 2   
    15    8   10 1   
    16    9   32 1   
    17   10   11 1   
    18   10   12 1   
    19   10   33 1   
    20   11   12 1   
    21   11   34 1   
    22   11   35 1   
    23   12   13 1   
    24   12   36 1   
    25   13   14 ar  
    26   13   18 ar  
    27   14   15 ar  
    28   14   37 1   
    29   15   16 ar  
    30   15   38 1   
    31   16   17 ar  
    32   16   39 1   
    33   17   18 ar  
    34   17   19 1   
    35   18   40 1   
    36   19   20 ar  
    37   19   24 ar  
    38   20   21 ar  
    39   20   41 1   
    40   21   22 ar  
    41   21   42 1   
    42   22   23 ar  
    43   22   43 1   
    44   23   24 ar  
    45   23   25 1   
    46   24   44 1   
    47   25   26 1   
    48   26   45 1   
    49   26   46 1   
    50   26   47 1   
@<TRIPOS>SUBSTRUCTURE
     1 0B1         1 TEMP              0 ****  ****    0 ROOT
