@<TRIPOS>MOLECULE
0B1
   48    51     1     0     0
SMALL
bcc


@<TRIPOS>ATOM
      1 O1         -0.0460   -1.6070   -1.2470 o         1 0B1     -0.541500
      2 C1          1.0760   -1.4800   -0.7490 c         1 0B1      0.701700
      3 N2          1.3730   -2.2220    0.4510 n         1 0B1     -0.381300
      4 C5          0.4260   -3.1640    0.9870 c3        1 0B1      0.023300
      5 C4          2.6390   -2.0420    1.0120 cc        1 0B1      0.541800
      6 N3          2.9670   -2.8340    2.2450 n4        1 0B1     -0.812600
      7 N1          3.6050   -1.2420    0.5720 nd        1 0B1     -0.589300
      8 C3          3.3660   -0.5510   -0.6210 cd        1 0B1      0.230400
      9 C2          2.1560   -0.6410   -1.2630 cc        1 0B1     -0.238200
     10 C6          4.4270    0.3090   -1.1830 cx        1 0B1     -0.108500
     11 C21         5.7830    0.4970   -0.5630 cx        1 0B1     -0.090400
     12 C7          5.6750   -0.1840   -1.9010 cx        1 0B1     -0.042400
     13 C8          6.1170   -1.5770   -2.0630 ca        1 0B1     -0.061300
     14 C13         7.4520   -1.8000   -2.4460 ca        1 0B1     -0.105000
     15 C12         7.9370   -3.0970   -2.5900 ca        1 0B1     -0.118000
     16 C11         7.1170   -4.1950   -2.3230 ca        1 0B1     -0.100000
     17 C10         5.7920   -3.9860   -1.9310 cp        1 0B1     -0.056000
     18 C9          5.2890   -2.6780   -1.8550 ca        1 0B1     -0.118000
     19 C14         4.9280   -5.0930   -1.5210 cp        1 0B1      0.012000
     20 C20         4.7860   -6.2630   -2.2750 ca        1 0B1     -0.126000
     21 C19         3.9360   -7.2780   -1.8350 ca        1 0B1     -0.080000
     22 C18         3.2160   -7.1490   -0.6470 ca        1 0B1     -0.172000
     23 C16         3.3670   -5.9810    0.1070 ca        1 0B1      0.100100
     24 C15         4.2250   -4.9590   -0.3160 ca        1 0B1     -0.177000
     25 O2          2.6780   -5.7180    1.2890 os        1 0B1     -0.425900
     26 C17         2.0860   -6.8520    1.9240 c3        1 0B1      0.118700
     27 H1          0.1090   -2.8580    2.0190 h1        1 0B1      0.082700
     28 H2         -0.4890   -3.1760    0.3270 h1        1 0B1      0.082700
     29 H3          0.8620   -4.2020    1.0050 h1        1 0B1      0.082700
     30 H5          2.2570   -2.6640    2.9640 hn        1 0B1      0.487133
     31 H6          3.8930   -2.5550    2.6000 hn        1 0B1      0.487133
     32 H8          1.9370   -0.1010   -2.1990 ha        1 0B1      0.205000
     33 H10         3.9580    1.2140   -1.6400 hc        1 0B1      0.110700
     34 H11         6.0720   -0.1030    0.3180 hc        1 0B1      0.090200
     35 H12         6.1940    1.5230   -0.5130 hc        1 0B1      0.090200
     36 H13         5.9410    0.4190   -2.8020 hc        1 0B1      0.104700
     37 H14         8.1160   -0.9420   -2.6340 ha        1 0B1      0.146000
     38 H15         8.9790   -3.2590   -2.9080 ha        1 0B1      0.150000
     39 H16         7.5130   -5.2180   -2.4110 ha        1 0B1      0.147000
     40 H17         4.2180   -2.5400   -1.6490 ha        1 0B1      0.119000
     41 H18         5.3430   -6.3760   -3.2190 ha        1 0B1      0.157000
     42 H19         3.8270   -8.1960   -2.4350 ha        1 0B1      0.155000
     43 H20         2.5460   -7.9570   -0.3190 ha        1 0B1      0.151000
     44 H21         4.3670   -4.0560    0.2910 ha        1 0B1      0.107000
     45 H22         2.8340   -7.6730    2.0430 h1        1 0B1      0.057033
     46 H23         1.2060   -7.2010    1.3300 h1        1 0B1      0.057033
     47 H24         1.7610   -6.4630    2.9210 h1        1 0B1      0.057033
     48 H33         2.9850   -3.8420    1.9960 hn        1 0B1      0.487133
@<TRIPOS>BOND
     1    1    2 2   
     2    2    3 1   
     3    2    9 1   
     4    3    4 1   
     5    3    5 1   
     6    4   27 1   
     7    4   28 1   
     8    4   29 1   
     9    5    6 1   
    10    5    7 2   
    11    6   30 1   
    12    6   31 1   
    13    6   48 1   
    14    7    8 1   
    15    8    9 2   
    16    8   10 1   
    17    9   32 1   
    18   10   11 1   
    19   10   12 1   
    20   10   33 1   
    21   11   12 1   
    22   11   34 1   
    23   11   35 1   
    24   12   13 1   
    25   12   36 1   
    26   13   14 ar  
    27   13   18 ar  
    28   14   15 ar  
    29   14   37 1   
    30   15   16 ar  
    31   15   38 1   
    32   16   17 ar  
    33   16   39 1   
    34   17   18 ar  
    35   17   19 1   
    36   18   40 1   
    37   19   20 ar  
    38   19   24 ar  
    39   20   21 ar  
    40   20   41 1   
    41   21   22 ar  
    42   21   42 1   
    43   22   23 ar  
    44   22   43 1   
    45   23   24 ar  
    46   23   25 1   
    47   24   44 1   
    48   25   26 1   
    49   26   45 1   
    50   26   46 1   
    51   26   47 1   
@<TRIPOS>SUBSTRUCTURE
     1 0B1         1 TEMP              0 ****  ****    0 ROOT
