@<TRIPOS>MOLECULE
0B1
   47    42     1     0     0
SMALL
bcc


@<TRIPOS>ATOM
      1 O1         -2.5010    3.7280    3.9480 o         1 0B1     -0.364000
      2 C1         -2.3010    3.4560    2.7780 c1        1 0B1      0.347000
      3 N2         -1.5990    4.3730    1.9440 n3        1 0B1     -0.286000
      4 C5         -1.2870    5.6910    2.4310 c3        1 0B1     -0.098000
      5 C4         -1.3260    4.0280    0.5430 c2        1 0B1      0.238000
      6 N3         -0.5900    4.9340   -0.2870 n3        1 0B1     -0.334000
      7 N1         -1.8740    2.7910   -0.0290 n1        1 0B1     -0.269000
      8 C3         -2.7460    1.9750    0.7470 c1        1 0B1      0.117000
      9 C2         -2.8960    2.2380    2.1920 c1        1 0B1     -0.321000
     10 C6         -3.8210    0.9340   -0.0270 cu        1 0B1     -0.127000
     11 C21        -3.0870    0.3360   -0.9370 cx        1 0B1     -0.179000
     12 C7         -3.2490   -0.3290    0.1360 cx        1 0B1     -0.107000
     13 C8         -1.1600   -0.7050    0.6800 c1        1 0B1     -0.044000
     14 C13        -0.6940   -0.3210    1.9330 c1        1 0B1     -0.123500
     15 C12         0.5700   -0.7220    2.3590 c1        1 0B1     -0.123500
     16 C11         1.3670   -1.5070    1.5300 c1        1 0B1     -0.115000
     17 C10         0.9030   -1.8910    0.2770 c1        1 0B1     -0.045000
     18 C9         -0.3610   -1.4900   -0.1490 c1        1 0B1     -0.096000
     19 C14         1.7130   -2.8790   -0.5660 c2        1 0B1     -0.002000
     20 C20         1.3620   -4.2260   -0.5880 c2        1 0B1     -0.155000
     21 C19         2.1170   -5.1290   -1.3290 c1        1 0B1     -0.097000
     22 C18         3.2230   -4.6860   -2.0480 c1        1 0B1     -0.203000
     23 C16         3.5740   -3.3400   -2.0270 c1        1 0B1      0.076000
     24 C15         2.8180   -2.4370   -1.2850 c1        1 0B1     -0.148000
     25 O2          4.7570   -2.9080   -2.6740 os        1 0B1     -0.212000
     26 C17         4.6870   -2.9540   -4.0900 c3        1 0B1     -0.076000
     27 H1         -1.6320    5.7920    3.3460 h1        1 0B1      0.099000
     28 H2         -0.3130    5.8180    2.4320 h1        1 0B1      0.099000
     29 H3         -1.7050    6.3640    1.8470 h1        1 0B1      0.099000
     30 H5         -0.2990    5.7340    0.0530 hn        1 0B1      0.218500
     31 H6         -0.4160    4.7170   -1.1610 hn        1 0B1      0.218500
     32 H8         -3.4950    1.6790    2.7300 ha        1 0B1      0.167000
     33 H10        -4.6580    1.4320    0.0950 ha        1 0B1      0.129000
     34 H11        -3.5780   -0.0010   -1.7200 hc        1 0B1      0.121500
     35 H12        -2.1910    0.7120   -1.0670 hc        1 0B1      0.121500
     36 H13        -3.8130   -1.1110   -0.0550 hc        1 0B1      0.125000
     37 H14        -1.2540    0.2300    2.5160 ha        1 0B1      0.134000
     38 H15         0.8990   -0.4520    3.2440 ha        1 0B1      0.134000
     39 H16         2.2590   -1.7900    1.8300 ha        1 0B1      0.136000
     40 H17        -0.6900   -1.7610   -1.0340 ha        1 0B1      0.138000
     41 H18         0.5830   -4.5380   -0.0810 ha        1 0B1      0.137000
     42 H19         1.8690   -6.0780   -1.3440 ha        1 0B1      0.132000
     43 H20         3.7550   -5.3240   -2.5710 ha        1 0B1      0.136000
     44 H21         3.0650   -1.4870   -1.2700 ha        1 0B1      0.153000
     45 H22         3.8880   -2.4720   -4.3940 h1        1 0B1      0.083000
     46 H23         4.6370   -3.8900   -4.3850 h1        1 0B1      0.083000
     47 H24         5.4890   -2.5330   -4.4710 h1        1 0B1      0.083000
@<TRIPOS>BOND
     1    1    2 1   
     2    2    3 1   
     3    3    4 1   
     4    3    5 1   
     5    4   27 1   
     6    4   28 1   
     7    4   29 1   
     8    5    6 1   
     9    5    7 1   
    10    6   30 1   
    11    6   31 1   
    12    8    9 1   
    13    9   32 1   
    14   10   11 1   
    15   10   12 1   
    16   10   33 1   
    17   11   12 1   
    18   11   34 1   
    19   11   35 1   
    20   12   13 1   
    21   12   36 1   
    22   13   18 1   
    23   14   15 1   
    24   14   37 1   
    25   15   38 1   
    26   16   17 1   
    27   16   39 1   
    28   17   19 1   
    29   18   40 1   
    30   19   20 1   
    31   19   24 1   
    32   20   21 1   
    33   20   41 1   
    34   21   42 1   
    35   22   23 1   
    36   22   43 1   
    37   23   25 1   
    38   24   44 1   
    39   25   26 1   
    40   26   45 1   
    41   26   46 1   
    42   26   47 1   
@<TRIPOS>SUBSTRUCTURE
     1 0B1         1 TEMP              0 ****  ****    0 ROOT
