@<TRIPOS>MOLECULE
0B1
   48    51     1     0     0
SMALL
bcc


@<TRIPOS>ATOM
      1 O1         -0.0780   -1.6540   -1.2250 o         1 0B1     -0.541500
      2 C1          1.0480   -1.5080   -0.7390 c         1 0B1      0.701700
      3 N2          1.3650   -2.2290    0.4680 n         1 0B1     -0.381300
      4 C5          0.4330   -3.1730    1.0270 c3        1 0B1      0.023300
      5 C4          2.6340   -2.0280    1.0140 cc        1 0B1      0.541800
      6 N3          2.9820   -2.7990    2.2550 n4        1 0B1     -0.812600
      7 N1          3.5870   -1.2250    0.5530 nd        1 0B1     -0.589300
      8 C3          3.3290   -0.5540   -0.6480 cd        1 0B1      0.230400
      9 C2          2.1140   -0.6650   -1.2770 cc        1 0B1     -0.238200
     10 C6          4.3750    0.3080   -1.2330 cx        1 0B1     -0.108500
     11 C21         5.7360    0.5200   -0.6290 cx        1 0B1     -0.090400
     12 C7          5.6220   -0.1820   -1.9550 cx        1 0B1     -0.042400
     13 C8          6.0780   -1.5730   -2.1010 ca        1 0B1     -0.061300
     14 C13         7.4120   -1.7870   -2.4930 ca        1 0B1     -0.105000
     15 C12         7.9090   -3.0800   -2.6230 ca        1 0B1     -0.118000
     16 C11         7.1030   -4.1830   -2.3320 ca        1 0B1     -0.100000
     17 C10         5.7790   -3.9820   -1.9310 cp        1 0B1     -0.056000
     18 C9          5.2630   -2.6790   -1.8690 ca        1 0B1     -0.118000
     19 C14         4.9310   -5.0920   -1.4960 cp        1 0B1      0.012000
     20 C20         4.7950   -6.2750   -2.2320 ca        1 0B1     -0.126000
     21 C19         3.9600   -7.2920   -1.7700 ca        1 0B1     -0.080000
     22 C18         3.2490   -7.1530   -0.5770 ca        1 0B1     -0.172000
     23 C16         3.3940   -5.9720    0.1580 ca        1 0B1      0.100100
     24 C15         4.2370   -4.9480   -0.2870 ca        1 0B1     -0.177000
     25 O2          2.7120   -5.6990    1.3420 os        1 0B1     -0.425900
     26 C17         2.1350   -6.8290    1.9980 c3        1 0B1      0.118700
     27 H1          0.1230   -2.8540    2.0590 h1        1 0B1      0.082700
     28 H2          0.8790   -4.2060    1.0560 h1        1 0B1      0.082700
     29 H3         -0.4890   -3.2040    0.3780 h1        1 0B1      0.082700
     30 H5          3.0070   -3.8100    2.0210 hn        1 0B1      0.487133
     31 H6          2.2780   -2.6250    2.9790 hn        1 0B1      0.487133
     32 H8          1.8800   -0.1420   -2.2180 ha        1 0B1      0.205000
     33 H10         3.8930    1.2020   -1.6980 hc        1 0B1      0.110700
     34 H11         6.0390   -0.0640    0.2580 hc        1 0B1      0.090200
     35 H12         6.1360    1.5510   -0.5990 hc        1 0B1      0.090200
     36 H13         5.8720    0.4100   -2.8680 hc        1 0B1      0.104700
     37 H14         8.0640   -0.9250   -2.7000 ha        1 0B1      0.146000
     38 H15         8.9490   -3.2370   -2.9480 ha        1 0B1      0.150000
     39 H16         7.5090   -5.2030   -2.4090 ha        1 0B1      0.147000
     40 H17         4.1930   -2.5490   -1.6560 ha        1 0B1      0.119000
     41 H18         5.3450   -6.3960   -3.1790 ha        1 0B1      0.157000
     42 H19         3.8560   -8.2200   -2.3550 ha        1 0B1      0.155000
     43 H20         2.5910   -7.9630   -0.2310 ha        1 0B1      0.151000
     44 H21         4.3750   -4.0350    0.3040 ha        1 0B1      0.107000
     45 H22         1.2550   -7.1940    1.4150 h1        1 0B1      0.057033
     46 H23         2.8920   -7.6410    2.1230 h1        1 0B1      0.057033
     47 H24         1.8140   -6.4280    2.9910 h1        1 0B1      0.057033
     48 H33         3.9090   -2.5060    2.5950 hn        1 0B1      0.487133
@<TRIPOS>BOND
     1    1    2 2   
     2    2    3 1   
     3    2    9 1   
     4    3    4 1   
     5    3    5 1   
     6    4   27 1   
     7    4   28 1   
     8    4   29 1   
     9    5    6 1   
    10    5    7 2   
    11    6   30 1   
    12    6   31 1   
    13    6   48 1   
    14    7    8 1   
    15    8    9 2   
    16    8   10 1   
    17    9   32 1   
    18   10   11 1   
    19   10   12 1   
    20   10   33 1   
    21   11   12 1   
    22   11   34 1   
    23   11   35 1   
    24   12   13 1   
    25   12   36 1   
    26   13   14 ar  
    27   13   18 ar  
    28   14   15 ar  
    29   14   37 1   
    30   15   16 ar  
    31   15   38 1   
    32   16   17 ar  
    33   16   39 1   
    34   17   18 ar  
    35   17   19 1   
    36   18   40 1   
    37   19   20 ar  
    38   19   24 ar  
    39   20   21 ar  
    40   20   41 1   
    41   21   22 ar  
    42   21   42 1   
    43   22   23 ar  
    44   22   43 1   
    45   23   24 ar  
    46   23   25 1   
    47   24   44 1   
    48   25   26 1   
    49   26   45 1   
    50   26   46 1   
    51   26   47 1   
@<TRIPOS>SUBSTRUCTURE
     1 0B1         1 TEMP              0 ****  ****    0 ROOT
