@<TRIPOS>MOLECULE
0B2
   39    39     1     0     0
SMALL
bcc


@<TRIPOS>ATOM
      1 N28        -0.0650   -0.3030   -0.1710 n4        1 0B2     -0.832600
      2 C29         1.4310   -0.2990   -0.0060 c3        1 0B2      0.010500
      3 C30         2.0600    0.9420   -0.6430 c3        1 0B2     -0.109400
      4 C41         1.6980    1.1590   -2.1030 c3        1 0B2     -0.079700
      5 C42         2.4690    2.3720   -2.6200 c3        1 0B2     -0.074900
      6 C43         2.1480    2.6420   -4.0750 c3        1 0B2     -0.079400
      7 C44         2.4290    1.4280   -4.9350 c3        1 0B2     -0.082400
      8 C45         1.6870    0.2110   -4.4240 c3        1 0B2     -0.079400
      9 C46         2.0010   -0.0570   -2.9660 c3        1 0B2     -0.074900
     10 C31         1.8190   -0.3720    1.4820 c         1 0B2      0.578100
     11 O32         0.9570   -0.2140    2.3460 o         1 0B2     -0.506100
     12 C37         3.2700   -0.6540    1.7590 c3        1 0B2     -0.149700
     13 C38         3.4010   -1.8790    2.6420 c3        1 0B2     -0.100100
     14 C39         3.9030    0.5570    2.4550 c3        1 0B2      0.134400
     15 O40         3.8550    1.6360    1.5350 oh        1 0B2     -0.633800
     16 H28        -0.4530    0.5380    0.2720 hn        1 0B2      0.464800
     17 H29         1.8170   -1.2300   -0.5220 hx        1 0B2      0.124700
     18 H30         1.7890    1.8540   -0.0450 hc        1 0B2      0.103700
     19 H31         3.1770    0.8270   -0.5460 hc        1 0B2      0.103700
     20 H32         0.6000    1.4000   -2.1920 hc        1 0B2      0.028700
     21 H33         3.5690    2.1880   -2.5050 hc        1 0B2      0.042700
     22 H34         2.2080    3.2710   -2.0020 hc        1 0B2      0.042700
     23 H35         2.7650    3.5080   -4.4330 hc        1 0B2      0.052450
     24 H36         1.0700    2.9350   -4.1760 hc        1 0B2      0.052450
     25 H37         2.1190    1.6370   -5.9930 hc        1 0B2      0.057700
     26 H38         3.5310    1.2200   -4.9430 hc        1 0B2      0.057700
     27 H39         0.5830    0.3670   -4.5490 hc        1 0B2      0.052450
     28 H40         1.9720   -0.6860   -5.0340 hc        1 0B2      0.052450
     29 H41         3.0840   -0.3280   -2.8590 hc        1 0B2      0.042700
     30 H42         1.3970   -0.9380   -2.6200 hc        1 0B2      0.042700
     31 H45         3.8150   -0.8290    0.7890 hc        1 0B2      0.082700
     32 H46         3.0030   -2.7820    2.1200 hc        1 0B2      0.063033
     33 H47         4.4780   -2.0570    2.8830 hc        1 0B2      0.063033
     34 H48         2.8380   -1.7370    3.5970 hc        1 0B2      0.063033
     35 H49         3.3260    0.8180    3.3830 h1        1 0B2      0.060200
     36 H50         4.9660    0.3150    2.7240 h1        1 0B2      0.060200
     37 H51         4.3850    2.3510    1.9090 ho        1 0B2      0.432000
     38 H2         -0.4630   -1.1250    0.2920 hn        1 0B2      0.464800
     39 H283       -0.3000   -0.3070   -1.1680 hn        1 0B2      0.464800
@<TRIPOS>BOND
     1    1    2 1   
     2    1   16 1   
     3    1   38 1   
     4    1   39 1   
     5    2    3 1   
     6    2   10 1   
     7    2   17 1   
     8    3    4 1   
     9    3   18 1   
    10    3   19 1   
    11    4    5 1   
    12    4    9 1   
    13    4   20 1   
    14    5    6 1   
    15    5   21 1   
    16    5   22 1   
    17    6    7 1   
    18    6   23 1   
    19    6   24 1   
    20    7    8 1   
    21    7   25 1   
    22    7   26 1   
    23    8    9 1   
    24    8   27 1   
    25    8   28 1   
    26    9   29 1   
    27    9   30 1   
    28   10   11 2   
    29   10   12 1   
    30   12   13 1   
    31   12   14 1   
    32   12   31 1   
    33   13   32 1   
    34   13   33 1   
    35   13   34 1   
    36   14   15 1   
    37   14   35 1   
    38   14   36 1   
    39   15   37 1   
@<TRIPOS>SUBSTRUCTURE
     1 0B2         1 TEMP              0 ****  ****    0 ROOT
