@<TRIPOS>MOLECULE
0B2
   39    39     1     0     0
SMALL
bcc


@<TRIPOS>ATOM
      1 N28        -0.0730   -0.2880   -0.1870 nz        1 0B2     -0.832600
      2 C29         1.4200   -0.2850   -0.0060 c3        1 0B2      0.010500
      3 C30         2.0580    0.9460   -0.6530 c3        1 0B2     -0.109400
      4 C41         1.7120    1.1460   -2.1190 c3        1 0B2     -0.079700
      5 C42         2.4920    2.3500   -2.6430 c3        1 0B2     -0.074900
      6 C43         2.1880    2.6020   -4.1050 c3        1 0B2     -0.079400
      7 C44         2.4740    1.3760   -4.9460 c3        1 0B2     -0.082400
      8 C45         1.7240    0.1680   -4.4280 c3        1 0B2     -0.079400
      9 C46         2.0220   -0.0830   -2.9620 c3        1 0B2     -0.074900
     10 C31         1.7920   -0.3400    1.4870 c         1 0B2      0.578100
     11 O32         0.9200   -0.1690    2.3400 o         1 0B2     -0.506100
     12 C37         3.2400   -0.6200    1.7830 c3        1 0B2     -0.149700
     13 C38         3.3590   -1.8340    2.6830 c3        1 0B2     -0.100100
     14 C39         3.8670    0.5990    2.4710 c3        1 0B2      0.134400
     15 O40         3.8300    1.6660    1.5360 oh        1 0B2     -0.633800
     16 H28        -0.4650    0.5600    0.2390 hn        1 0B2      0.464800
     17 H29         1.8100   -1.2240   -0.5060 hx        1 0B2      0.124700
     18 H30         3.1750    0.8300   -0.5420 hc        1 0B2      0.103700
     19 H31         1.7840    1.8670   -0.0690 hc        1 0B2      0.103700
     20 H32         0.6170    1.3880   -2.2230 hc        1 0B2      0.028700
     21 H33         3.5910    2.1640   -2.5140 hc        1 0B2      0.042700
     22 H34         2.2270    3.2570   -2.0390 hc        1 0B2      0.042700
     23 H35         1.1110    2.8960   -4.2210 hc        1 0B2      0.052450
     24 H36         2.8110    3.4610   -4.4680 hc        1 0B2      0.052450
     25 H37         2.1760    1.5720   -6.0100 hc        1 0B2      0.057700
     26 H38         3.5760    1.1650   -4.9400 hc        1 0B2      0.057700
     27 H39         0.6220    0.3240   -4.5660 hc        1 0B2      0.052450
     28 H40         2.0130   -0.7380   -5.0230 hc        1 0B2      0.052450
     29 H41         1.4120   -0.9570   -2.6120 hc        1 0B2      0.042700
     30 H42         3.1030   -0.3550   -2.8410 hc        1 0B2      0.042700
     31 H45         3.7950   -0.8080    0.8220 hc        1 0B2      0.082700
     32 H46         2.7850   -1.6780    3.6300 hc        1 0B2      0.063033
     33 H47         4.4330   -2.0100    2.9390 hc        1 0B2      0.063033
     34 H48         2.9650   -2.7430    2.1700 hc        1 0B2      0.063033
     35 H49         3.2800    0.8730    3.3880 h1        1 0B2      0.060200
     36 H50         4.9260    0.3580    2.7550 h1        1 0B2      0.060200
     37 H51         4.3570    2.3850    1.9060 ho        1 0B2      0.432000
     38 H2         -0.4780   -1.1030    0.2830 hn        1 0B2      0.464800
     39 H283       -0.2980   -0.3050   -1.1870 hn        1 0B2      0.464800
@<TRIPOS>BOND
     1    1    2 1   
     2    1   16 1   
     3    1   38 1   
     4    1   39 1   
     5    2    3 1   
     6    2   10 1   
     7    2   17 1   
     8    3    4 1   
     9    3   18 1   
    10    3   19 1   
    11    4    5 1   
    12    4    9 1   
    13    4   20 1   
    14    5    6 1   
    15    5   21 1   
    16    5   22 1   
    17    6    7 1   
    18    6   23 1   
    19    6   24 1   
    20    7    8 1   
    21    7   25 1   
    22    7   26 1   
    23    8    9 1   
    24    8   27 1   
    25    8   28 1   
    26    9   29 1   
    27    9   30 1   
    28   10   11 2   
    29   10   12 1   
    30   12   13 1   
    31   12   14 1   
    32   12   31 1   
    33   13   32 1   
    34   13   33 1   
    35   13   34 1   
    36   14   15 1   
    37   14   35 1   
    38   14   36 1   
    39   15   37 1   
@<TRIPOS>SUBSTRUCTURE
     1 0B2         1 TEMP              0 ****  ****    0 ROOT
