@<TRIPOS>MOLECULE
0B2
   39    39     1     0     0
SMALL
bcc


@<TRIPOS>ATOM
      1 N28        -0.0520   -0.3180   -0.1500 n4        1 0B2     -0.832600
      2 C29         1.4450   -0.3140   -0.0070 c3        1 0B2      0.010500
      3 C30         2.0630    0.9370   -0.6340 c3        1 0B2     -0.109400
      4 C41         1.6800    1.1760   -2.0850 c3        1 0B2     -0.079700
      5 C42         2.4420    2.3980   -2.5940 c3        1 0B2     -0.074900
      6 C43         2.1000    2.6890   -4.0400 c3        1 0B2     -0.079400
      7 C44         2.3700    1.4890   -4.9230 c3        1 0B2     -0.082400
      8 C45         1.6370    0.2630   -4.4200 c3        1 0B2     -0.079400
      9 C46         1.9720   -0.0270   -2.9700 c3        1 0B2     -0.074900
     10 C31         1.8550   -0.4090    1.4750 c         1 0B2      0.578100
     11 O32         1.0040   -0.2660    2.3540 o         1 0B2     -0.506100
     12 C37         3.3110   -0.6910    1.7270 c3        1 0B2     -0.149700
     13 C38         3.4570   -1.9290    2.5900 c3        1 0B2     -0.100100
     14 C39         3.9500    0.5100    2.4330 c3        1 0B2      0.134400
     15 O40         3.8860    1.6030    1.5290 oh        1 0B2     -0.633800
     16 H28        -0.4430   -1.1470    0.3080 hn        1 0B2      0.464800
     17 H29         1.8260   -1.2370   -0.5420 hx        1 0B2      0.124700
     18 H30         3.1820    0.8220   -0.5550 hc        1 0B2      0.103700
     19 H31         1.8000    1.8400   -0.0180 hc        1 0B2      0.103700
     20 H32         0.5810    1.4170   -2.1540 hc        1 0B2      0.028700
     21 H33         3.5450    2.2130   -2.4980 hc        1 0B2      0.042700
     22 H34         2.1890    3.2860   -1.9590 hc        1 0B2      0.042700
     23 H35         1.0200    2.9820   -4.1210 hc        1 0B2      0.052450
     24 H36         2.7110    3.5610   -4.3940 hc        1 0B2      0.052450
     25 H37         2.0440    1.7130   -5.9720 hc        1 0B2      0.057700
     26 H38         3.4720    1.2820   -4.9500 hc        1 0B2      0.057700
     27 H39         1.9130   -0.6250   -5.0470 hc        1 0B2      0.052450
     28 H40         0.5310    0.4190   -4.5250 hc        1 0B2      0.052450
     29 H41         3.0570   -0.2980   -2.8830 hc        1 0B2      0.042700
     30 H42         1.3740   -0.9130   -2.6290 hc        1 0B2      0.042700
     31 H45         3.8420   -0.8500    0.7470 hc        1 0B2      0.082700
     32 H46         4.5370   -2.1070    2.8130 hc        1 0B2      0.063033
     33 H47         2.9070   -1.8020    3.5540 hc        1 0B2      0.063033
     34 H48         3.0530   -2.8250    2.0610 hc        1 0B2      0.063033
     35 H49         3.3860    0.7570    3.3720 h1        1 0B2      0.060200
     36 H50         5.0170    0.2670    2.6830 h1        1 0B2      0.060200
     37 H51         4.4200    2.3140    1.9070 ho        1 0B2      0.432000
     38 H2         -0.3020   -0.3090   -1.1440 hn        1 0B2      0.464800
     39 H283       -0.4350    0.5160    0.3090 hn        1 0B2      0.464800
@<TRIPOS>BOND
     1    1    2 1   
     2    1   16 1   
     3    1   38 1   
     4    1   39 1   
     5    2    3 1   
     6    2   10 1   
     7    2   17 1   
     8    3    4 1   
     9    3   18 1   
    10    3   19 1   
    11    4    5 1   
    12    4    9 1   
    13    4   20 1   
    14    5    6 1   
    15    5   21 1   
    16    5   22 1   
    17    6    7 1   
    18    6   23 1   
    19    6   24 1   
    20    7    8 1   
    21    7   25 1   
    22    7   26 1   
    23    8    9 1   
    24    8   27 1   
    25    8   28 1   
    26    9   29 1   
    27    9   30 1   
    28   10   11 2   
    29   10   12 1   
    30   12   13 1   
    31   12   14 1   
    32   12   31 1   
    33   13   32 1   
    34   13   33 1   
    35   13   34 1   
    36   14   15 1   
    37   14   35 1   
    38   14   36 1   
    39   15   37 1   
@<TRIPOS>SUBSTRUCTURE
     1 0B2         1 TEMP              0 ****  ****    0 ROOT
