@<TRIPOS>MOLECULE
0B3
   38    39     1     0     0
SMALL
bcc


@<TRIPOS>ATOM
      1 O          -0.0510    0.2140   -0.0690 o         1 0B3     -0.525500
      2 C5          1.1720    0.0710   -0.0510 c         1 0B3      0.714500
      3 N3          1.8550    0.1960    1.1980 n         1 0B3     -0.443300
      4 C4          1.1350    0.4060    2.4240 c3        1 0B3      0.043300
      5 C3          3.2370   -0.0940    1.1900 c2        1 0B3      0.542800
      6 N2          3.9950    0.2590    2.4500 nz        1 0B3     -0.809600
      7 N1          3.9570   -0.5920    0.2300 n2        1 0B3     -0.575900
      8 C6          2.0060   -0.1800   -1.2820 c3        1 0B3     -0.184400
      9 C2          3.3090   -0.9750   -1.0270 c3        1 0B3      0.151200
     10 C1          2.9640   -2.4750   -1.0180 c3        1 0B3     -0.103100
     11 C7          4.2530   -0.6710   -2.2160 c3        1 0B3     -0.061400
     12 C8          5.5440   -1.4640   -2.1990 c3        1 0B3     -0.028100
     13 C9          6.3960   -1.1050   -3.3680 ca        1 0B3     -0.103300
     14 C14         6.5190   -1.9820   -4.4510 ca        1 0B3     -0.125500
     15 C13         7.3290   -1.6460   -5.5360 ca        1 0B3     -0.121000
     16 C12         8.0190   -0.4350   -5.5470 ca        1 0B3     -0.116000
     17 C11         7.9010    0.4420   -4.4680 ca        1 0B3     -0.121000
     18 C10         7.0930    0.1090   -3.3820 ca        1 0B3     -0.125500
     19 H1          0.0340    0.4960    2.1920 h1        1 0B3      0.071700
     20 H2          1.4650    1.3600    2.9160 h1        1 0B3      0.071700
     21 H3          1.2730   -0.4570    3.1290 h1        1 0B3      0.071700
     22 H4          3.9150    1.2680    2.6190 hn        1 0B3      0.478133
     23 H5          3.5940   -0.2560    3.2420 hn        1 0B3      0.478133
     24 H6          1.3700   -0.7400   -2.0210 hc        1 0B3      0.116200
     25 H7          2.2430    0.8230   -1.7320 hc        1 0B3      0.116200
     26 H8          2.1230   -2.6810   -0.3140 hc        1 0B3      0.064700
     27 H9          3.8460   -3.0920   -0.7200 hc        1 0B3      0.064700
     28 H10         2.6550   -2.7760   -2.0480 hc        1 0B3      0.064700
     29 H11         4.4920    0.4250   -2.2360 hc        1 0B3      0.066200
     30 H12         3.6800   -0.9100   -3.1520 hc        1 0B3      0.066200
     31 H13         6.1130   -1.2600   -1.2530 hc        1 0B3      0.053200
     32 H14         5.3140   -2.5640   -2.2200 hc        1 0B3      0.053200
     33 H15         5.9820   -2.9420   -4.4470 ha        1 0B3      0.126500
     34 H16         7.4230   -2.3410   -6.3840 ha        1 0B3      0.141000
     35 H17         8.6580   -0.1720   -6.4030 ha        1 0B3      0.144000
     36 H18         8.4470    1.3970   -4.4730 ha        1 0B3      0.141000
     37 H19         7.0060    0.7990   -2.5310 ha        1 0B3      0.126500
     38 H23         4.9870    0.0060    2.3420 hn        1 0B3      0.478133
@<TRIPOS>BOND
     1    1    2 2   
     2    2    3 1   
     3    2    8 1   
     4    3    4 1   
     5    3    5 1   
     6    4   19 1   
     7    4   20 1   
     8    4   21 1   
     9    5    6 1   
    10    5    7 2   
    11    6   22 1   
    12    6   23 1   
    13    6   38 1   
    14    7    9 1   
    15    8    9 1   
    16    8   24 1   
    17    8   25 1   
    18    9   10 1   
    19    9   11 1   
    20   10   26 1   
    21   10   27 1   
    22   10   28 1   
    23   11   12 1   
    24   11   29 1   
    25   11   30 1   
    26   12   13 1   
    27   12   31 1   
    28   12   32 1   
    29   13   14 ar  
    30   13   18 ar  
    31   14   15 ar  
    32   14   33 1   
    33   15   16 ar  
    34   15   34 1   
    35   16   17 ar  
    36   16   35 1   
    37   17   18 ar  
    38   17   36 1   
    39   18   37 1   
@<TRIPOS>SUBSTRUCTURE
     1 0B3         1 TEMP              0 ****  ****    0 ROOT
