@<TRIPOS>MOLECULE
0B3
   37    33     1     0     0
SMALL
bcc


@<TRIPOS>ATOM
      1 O          -4.0140   -1.1390    1.3810 o         1 0B3     -0.343000
      2 C5         -2.9050   -1.1460    1.3050 c1        1 0B3      0.314000
      3 N3         -2.1260   -1.3270    2.4630 n3        1 0B3     -0.327000
      4 C4         -2.7730   -1.7930    3.7140 c3        1 0B3     -0.080000
      5 C3         -0.7660   -0.9710    2.4620 c2        1 0B3      0.200000
      6 N2          0.0740   -1.2550    3.6510 n3        1 0B3     -0.318000
      7 N1         -0.1710   -0.5410    1.2870 n1        1 0B3     -0.282000
      8 C6         -2.2220   -1.0450   -0.0850 c2        1 0B3     -0.206000
      9 C2         -0.6850   -1.0020    0.0020 c2        1 0B3      0.035000
     10 C1         -0.0540   -2.4010   -0.3960 c3        1 0B3     -0.216000
     11 C7         -0.1210   -0.0990   -1.1380 c3        1 0B3     -0.131000
     12 C8          1.2810    0.3100   -0.8010 c3        1 0B3     -0.121000
     13 C9          1.6750    1.5590   -1.6530 c1        1 0B3     -0.071000
     14 C14         1.6140    2.7990   -1.1030 c1        1 0B3     -0.130250
     15 C13         2.0970    3.8970   -1.8080 c1        1 0B3     -0.130250
     16 C12         2.6480    3.7210   -3.0890 c1        1 0B3     -0.130250
     17 C11         2.7060    2.4930   -3.6300 c1        1 0B3     -0.130250
     18 C10         2.2200    1.3890   -2.9200 c1        1 0B3     -0.129000
     19 H1         -2.8270   -1.0770    4.3260 h1        1 0B3      0.093000
     20 H2         -2.2450   -2.5170    4.1050 h1        1 0B3      0.093000
     21 H3         -3.5740   -2.0810    3.5290 h1        1 0B3      0.093000
     22 H4         -0.2470   -1.0360    4.5130 hn        1 0B3      0.198500
     23 H5          0.9800   -1.5350    3.5390 hn        1 0B3      0.198500
     24 H6         -2.5970   -0.3450   -0.6540 ha        1 0B3      0.125000
     25 H7         -2.4350   -1.9900   -0.5480 ha        1 0B3      0.125000
     26 H8         -0.5100   -3.1010    0.0800 hc        1 0B3      0.084333
     27 H9          0.9800   -2.4140   -0.1400 hc        1 0B3      0.084333
     28 H10        -0.1560   -2.5380   -1.3450 hc        1 0B3      0.084333
     29 H11        -0.1270   -0.5700   -1.9430 hc        1 0B3      0.084500
     30 H12        -0.6210    0.6150   -1.2150 hc        1 0B3      0.084500
     31 H13         1.9590   -0.5070   -1.0140 hc        1 0B3      0.098000
     32 H14         1.3300    0.5350    0.1390 hc        1 0B3      0.098000
     33 H15         1.1960    2.9280   -0.1370 ha        1 0B3      0.130250
     34 H16         2.0560    4.7650   -1.4270 ha        1 0B3      0.130250
     35 H17         2.9870    4.4920   -3.5840 ha        1 0B3      0.130250
     36 H18         3.1150    2.3640   -4.5810 ha        1 0B3      0.130250
     37 H19         2.2600    0.5630   -3.2860 ha        1 0B3      0.130000
@<TRIPOS>BOND
     1    1    2 1   
     2    2    3 1   
     3    3    4 1   
     4    3    5 1   
     5    4   19 1   
     6    4   20 1   
     7    4   21 1   
     8    5    6 1   
     9    5    7 1   
    10    6   22 1   
    11    6   23 1   
    12    8    9 1   
    13    8   24 1   
    14    8   25 1   
    15    9   10 1   
    16    9   11 1   
    17   10   26 1   
    18   10   27 1   
    19   10   28 1   
    20   11   12 1   
    21   11   29 1   
    22   11   30 1   
    23   12   13 1   
    24   12   31 1   
    25   12   32 1   
    26   13   18 1   
    27   14   15 1   
    28   14   33 1   
    29   15   34 1   
    30   16   17 1   
    31   16   35 1   
    32   17   36 1   
    33   18   37 1   
@<TRIPOS>SUBSTRUCTURE
     1 0B3         1 TEMP              0 ****  ****    0 ROOT
