@<TRIPOS>MOLECULE
0B3
   38    39     1     0     0
SMALL
bcc


@<TRIPOS>ATOM
      1 O          -0.0560    0.2050   -0.0740 o         1 0B3     -0.525500
      2 C5          1.1680    0.0650   -0.0550 c         1 0B3      0.714500
      3 N3          1.8500    0.1920    1.1940 n         1 0B3     -0.443300
      4 C4          1.1290    0.4010    2.4190 c3        1 0B3      0.043300
      5 C3          3.2330   -0.0940    1.1870 c2        1 0B3      0.542800
      6 N2          3.9900    0.2610    2.4460 n4        1 0B3     -0.809600
      7 N1          3.9550   -0.5910    0.2270 n2        1 0B3     -0.575900
      8 C6          2.0030   -0.1850   -1.2860 c3        1 0B3     -0.184400
      9 C2          3.3080   -0.9760   -1.0300 c3        1 0B3      0.151200
     10 C1          2.9670   -2.4770   -1.0200 c3        1 0B3     -0.103100
     11 C7          4.2510   -0.6710   -2.2190 c3        1 0B3     -0.061400
     12 C8          5.5450   -1.4600   -2.2010 c3        1 0B3     -0.028100
     13 C9          6.3960   -1.1000   -3.3700 ca        1 0B3     -0.103300
     14 C14         6.5240   -1.9780   -4.4510 ca        1 0B3     -0.125500
     15 C13         7.3320   -1.6420   -5.5370 ca        1 0B3     -0.121000
     16 C12         8.0180   -0.4280   -5.5500 ca        1 0B3     -0.116000
     17 C11         7.8950    0.4510   -4.4730 ca        1 0B3     -0.121000
     18 C10         7.0880    0.1170   -3.3870 ca        1 0B3     -0.125500
     19 H1          1.2690   -0.4620    3.1250 h1        1 0B3      0.071700
     20 H2          1.4570    1.3560    2.9110 h1        1 0B3      0.071700
     21 H3          0.0290    0.4890    2.1870 h1        1 0B3      0.071700
     22 H4          4.9830    0.0100    2.3390 hn        1 0B3      0.478133
     23 H5          3.5900   -0.2540    3.2380 hn        1 0B3      0.478133
     24 H6          2.2380    0.8190   -1.7370 hc        1 0B3      0.116200
     25 H7          1.3690   -0.7460   -2.0250 hc        1 0B3      0.116200
     26 H8          3.8500   -3.0920   -0.7220 hc        1 0B3      0.064700
     27 H9          2.6580   -2.7800   -2.0510 hc        1 0B3      0.064700
     28 H10         2.1250   -2.6840   -0.3170 hc        1 0B3      0.064700
     29 H11         3.6800   -0.9120   -3.1550 hc        1 0B3      0.066200
     30 H12         4.4880    0.4260   -2.2400 hc        1 0B3      0.066200
     31 H13         6.1140   -1.2530   -1.2550 hc        1 0B3      0.053200
     32 H14         5.3180   -2.5600   -2.2210 hc        1 0B3      0.053200
     33 H15         5.9890   -2.9400   -4.4450 ha        1 0B3      0.126500
     34 H16         7.4290   -2.3390   -6.3830 ha        1 0B3      0.141000
     35 H17         8.6560   -0.1640   -6.4060 ha        1 0B3      0.144000
     36 H18         8.4380    1.4080   -4.4800 ha        1 0B3      0.141000
     37 H19         6.9980    0.8090   -2.5370 ha        1 0B3      0.126500
     38 H23         3.9080    1.2700    2.6150 hn        1 0B3      0.478133
@<TRIPOS>BOND
     1    1    2 2   
     2    2    3 1   
     3    2    8 1   
     4    3    4 1   
     5    3    5 1   
     6    4   19 1   
     7    4   20 1   
     8    4   21 1   
     9    5    6 1   
    10    5    7 2   
    11    6   22 1   
    12    6   23 1   
    13    6   38 1   
    14    7    9 1   
    15    8    9 1   
    16    8   24 1   
    17    8   25 1   
    18    9   10 1   
    19    9   11 1   
    20   10   26 1   
    21   10   27 1   
    22   10   28 1   
    23   11   12 1   
    24   11   29 1   
    25   11   30 1   
    26   12   13 1   
    27   12   31 1   
    28   12   32 1   
    29   13   14 ar  
    30   13   18 ar  
    31   14   15 ar  
    32   14   33 1   
    33   15   16 ar  
    34   15   34 1   
    35   16   17 ar  
    36   16   35 1   
    37   17   18 ar  
    38   17   36 1   
    39   18   37 1   
@<TRIPOS>SUBSTRUCTURE
     1 0B3         1 TEMP              0 ****  ****    0 ROOT
