@<TRIPOS>MOLECULE
0B3
   38    39     1     0     0
SMALL
bcc


@<TRIPOS>ATOM
      1 O          -0.0500    0.2160   -0.0650 o         1 0B3     -0.525500
      2 C5          1.1730    0.0720   -0.0470 c         1 0B3      0.714500
      3 N3          1.8580    0.1950    1.2010 n         1 0B3     -0.443300
      4 C4          1.1390    0.4040    2.4270 c3        1 0B3      0.043300
      5 C3          3.2390   -0.0960    1.1920 c2        1 0B3      0.542800
      6 N2          3.9980    0.2550    2.4510 n4        1 0B3     -0.809600
      7 N1          3.9580   -0.5940    0.2300 n2        1 0B3     -0.575900
      8 C6          2.0070   -0.1780   -1.2790 c3        1 0B3     -0.184400
      9 C2          3.3080   -0.9740   -1.0260 c3        1 0B3      0.151200
     10 C1          2.9630   -2.4740   -1.0190 c3        1 0B3     -0.103100
     11 C7          4.2520   -0.6700   -2.2160 c3        1 0B3     -0.061400
     12 C8          5.5430   -1.4640   -2.2000 c3        1 0B3     -0.028100
     13 C9          6.3940   -1.1040   -3.3700 ca        1 0B3     -0.103300
     14 C14         6.5180   -1.9820   -4.4520 ca        1 0B3     -0.125500
     15 C13         7.3270   -1.6460   -5.5380 ca        1 0B3     -0.121000
     16 C12         8.0150   -0.4340   -5.5500 ca        1 0B3     -0.116000
     17 C11         7.8960    0.4440   -4.4720 ca        1 0B3     -0.121000
     18 C10         7.0900    0.1110   -3.3860 ca        1 0B3     -0.125500
     19 H1          0.0380    0.4960    2.1960 h1        1 0B3      0.071700
     20 H2          1.2770   -0.4600    3.1320 h1        1 0B3      0.071700
     21 H3          1.4700    1.3580    2.9200 h1        1 0B3      0.071700
     22 H4          4.9910    0.0000    2.3420 hn        1 0B3      0.478133
     23 H5          3.9200    1.2640    2.6210 hn        1 0B3      0.478133
     24 H6          1.3690   -0.7360   -2.0190 hc        1 0B3      0.116200
     25 H7          2.2440    0.8260   -1.7290 hc        1 0B3      0.116200
     26 H8          2.1210   -2.6800   -0.3150 hc        1 0B3      0.064700
     27 H9          2.6520   -2.7740   -2.0500 hc        1 0B3      0.064700
     28 H10         3.8440   -3.0920   -0.7230 hc        1 0B3      0.064700
     29 H11         3.6790   -0.9080   -3.1520 hc        1 0B3      0.066200
     30 H12         4.4920    0.4260   -2.2350 hc        1 0B3      0.066200
     31 H13         6.1130   -1.2600   -1.2550 hc        1 0B3      0.053200
     32 H14         5.3130   -2.5630   -2.2220 hc        1 0B3      0.053200
     33 H15         5.9820   -2.9420   -4.4470 ha        1 0B3      0.126000
     34 H16         7.4220   -2.3420   -6.3850 ha        1 0B3      0.141000
     35 H17         8.6540   -0.1710   -6.4070 ha        1 0B3      0.144000
     36 H18         8.4420    1.4000   -4.4780 ha        1 0B3      0.141000
     37 H19         7.0020    0.8020   -2.5350 ha        1 0B3      0.126000
     38 H23         3.5980   -0.2610    3.2430 hn        1 0B3      0.478133
@<TRIPOS>BOND
     1    1    2 2   
     2    2    3 1   
     3    2    8 1   
     4    3    4 1   
     5    3    5 1   
     6    4   19 1   
     7    4   20 1   
     8    4   21 1   
     9    5    6 1   
    10    5    7 2   
    11    6   22 1   
    12    6   23 1   
    13    6   38 1   
    14    7    9 1   
    15    8    9 1   
    16    8   24 1   
    17    8   25 1   
    18    9   10 1   
    19    9   11 1   
    20   10   26 1   
    21   10   27 1   
    22   10   28 1   
    23   11   12 1   
    24   11   29 1   
    25   11   30 1   
    26   12   13 1   
    27   12   31 1   
    28   12   32 1   
    29   13   14 ar  
    30   13   18 ar  
    31   14   15 ar  
    32   14   33 1   
    33   15   16 ar  
    34   15   34 1   
    35   16   17 ar  
    36   16   35 1   
    37   17   18 ar  
    38   17   36 1   
    39   18   37 1   
@<TRIPOS>SUBSTRUCTURE
     1 0B3         1 TEMP              0 ****  ****    0 ROOT
