@<TRIPOS>MOLECULE
0B3
   37    38     1     0     0
SMALL
bcc


@<TRIPOS>ATOM
      1 O           3.9730   -1.7450    1.0950 o         1 0B3     -0.618500
      2 C5          3.1290   -0.9210    0.7030 c         1 0B3      0.706500
      3 N3          3.5340    0.3280    0.2140 n         1 0B3     -0.438300
      4 C4          4.9310    0.6480    0.1020 c3        1 0B3      0.075300
      5 C3          2.5360    1.2250   -0.3050 c2        1 0B3      0.646800
      6 N2          2.9820    2.5330   -0.6590 nh        1 0B3     -0.879800
      7 N1          1.2750    0.9020   -0.5060 n2        1 0B3     -0.694900
      8 C6          1.6470   -1.2050    0.7840 c3        1 0B3     -0.177400
      9 C2          0.8360   -0.4700   -0.3090 c3        1 0B3      0.160200
     10 C1          0.9580   -1.2930   -1.6050 c3        1 0B3     -0.098100
     11 C7         -0.6390   -0.4950    0.1610 c3        1 0B3     -0.052400
     12 C8         -1.6100    0.0790   -0.8510 c3        1 0B3     -0.035100
     13 C9         -3.0020    0.0770   -0.3190 ca        1 0B3     -0.078300
     14 C14        -3.9450   -0.8420   -0.7910 ca        1 0B3     -0.129000
     15 C13        -5.2480   -0.8310   -0.2960 ca        1 0B3     -0.129000
     16 C12        -5.6210    0.0980    0.6740 ca        1 0B3     -0.134000
     17 C11        -4.6860    1.0180    1.1490 ca        1 0B3     -0.129000
     18 C10        -3.3830    1.0090    0.6550 ca        1 0B3     -0.129000
     19 H1          5.1830    0.9630   -0.9460 h1        1 0B3      0.053700
     20 H2          5.1930    1.4810    0.8090 h1        1 0B3      0.053700
     21 H3          5.5470   -0.2530    0.3690 h1        1 0B3      0.053700
     22 H4          3.5880    2.9430    0.0190 hn        1 0B3      0.403300
     23 H5          2.2350    3.1420   -0.9240 hn        1 0B3      0.403300
     24 H6          1.4940   -2.3110    0.6960 hc        1 0B3      0.085700
     25 H7          1.3000   -0.8890    1.8040 hc        1 0B3      0.085700
     26 H8          0.4420   -2.2730   -1.4710 hc        1 0B3      0.045033
     27 H9          0.4890   -0.7560   -2.4640 hc        1 0B3      0.045033
     28 H10         2.0310   -1.4800   -1.8460 hc        1 0B3      0.045033
     29 H11        -0.9050   -1.5640    0.3710 hc        1 0B3      0.045200
     30 H12        -0.7320    0.0740    1.1230 hc        1 0B3      0.045200
     31 H13        -1.3170    1.1320   -1.1090 hc        1 0B3      0.058700
     32 H14        -1.5640   -0.5210   -1.7990 hc        1 0B3      0.058700
     33 H15        -3.6570   -1.5760   -1.5590 ha        1 0B3      0.131000
     34 H16        -5.9840   -1.5560   -0.6740 ha        1 0B3      0.129500
     35 H17        -6.6490    0.1070    1.0640 ha        1 0B3      0.130000
     36 H18        -4.9770    1.7530    1.9130 ha        1 0B3      0.129500
     37 H19        -2.6460    1.7360    1.0280 ha        1 0B3      0.131000
@<TRIPOS>BOND
     1    1    2 2   
     2    2    3 1   
     3    2    8 1   
     4    3    4 1   
     5    3    5 1   
     6    4   19 1   
     7    4   20 1   
     8    4   21 1   
     9    5    6 1   
    10    5    7 2   
    11    6   22 1   
    12    6   23 1   
    13    7    9 1   
    14    8    9 1   
    15    8   24 1   
    16    8   25 1   
    17    9   10 1   
    18    9   11 1   
    19   10   26 1   
    20   10   27 1   
    21   10   28 1   
    22   11   12 1   
    23   11   29 1   
    24   11   30 1   
    25   12   13 1   
    26   12   31 1   
    27   12   32 1   
    28   13   14 ar  
    29   13   18 ar  
    30   14   15 ar  
    31   14   33 1   
    32   15   16 ar  
    33   15   34 1   
    34   16   17 ar  
    35   16   35 1   
    36   17   18 ar  
    37   17   36 1   
    38   18   37 1   
@<TRIPOS>SUBSTRUCTURE
     1 0B3         1 TEMP              0 ****  ****    0 ROOT
