@<TRIPOS>MOLECULE
0B4
   38    35     1     0     0
SMALL
bcc


@<TRIPOS>ATOM
      1 O          -3.4990   -1.7640    1.2310 o         1 0B4     -0.343000
      2 C5         -2.3960   -1.2440    1.2010 c1        1 0B4      0.318000
      3 N3         -1.6550   -1.0740    2.4090 n3        1 0B4     -0.323000
      4 C4         -2.3460   -0.9510    3.6650 c3        1 0B4     -0.083000
      5 C3         -0.2260   -1.1090    2.3810 c2        1 0B4      0.200000
      6 N2          0.5010   -1.6210    3.5050 n3        1 0B4     -0.316000
      7 N1          0.4750   -0.6710    1.2170 n1        1 0B4     -0.284000
      8 C6         -1.8080   -0.7830   -0.1240 c2        1 0B4     -0.202000
      9 C2         -0.1920   -0.7540   -0.1520 c2        1 0B4      0.066000
     10 C1          0.4750   -1.7130   -1.1650 c3        1 0B4     -0.193000
     11 C7          0.0180    0.2260   -0.5770 cx        1 0B4     -0.160000
     12 C9          0.2700    0.7910   -0.0590 cx        1 0B4     -0.194000
     13 C8          0.7900    0.4540   -0.5760 cx        1 0B4     -0.116000
     14 C10         1.0310    0.9330   -1.2170 c1        1 0B4     -0.041000
     15 C15         0.2080    1.9700   -1.6630 c1        1 0B4     -0.130000
     16 C14         0.6400    2.8130   -2.6840 c1        1 0B4     -0.130000
     17 C13         1.8940    2.6210   -3.2610 c1        1 0B4     -0.130000
     18 C12         2.7160    1.5860   -2.8170 c1        1 0B4     -0.130000
     19 C11         2.2840    0.7420   -1.7950 c1        1 0B4     -0.124000
     20 H1         -2.0220   -0.1540    4.1400 h1        1 0B4      0.092667
     21 H2         -3.3120   -0.8650    3.5010 h1        1 0B4      0.092667
     22 H3         -2.1760   -1.7500    4.2120 h1        1 0B4      0.092667
     23 H5          1.2430   -2.1430    3.3720 hn        1 0B4      0.197000
     24 H6          0.2370   -1.4080    4.3570 hn        1 0B4      0.197000
     25 H10        -2.2470    0.0890   -0.2520 ha        1 0B4      0.126000
     26 H11        -2.0560   -1.3800   -0.8670 ha        1 0B4      0.126000
     27 H12         0.0770   -2.6110   -1.0790 hc        1 0B4      0.083667
     28 H13         1.4410   -1.7640   -0.9810 hc        1 0B4      0.083667
     29 H14         0.3330   -1.3770   -2.0790 hc        1 0B4      0.083667
     30 H15        -0.5240    0.5550   -1.3380 hc        1 0B4      0.124000
     31 H16        -0.0030    1.7160   -0.2680 hc        1 0B4      0.113000
     32 H17         0.3540    0.5040    0.8810 hc        1 0B4      0.113000
     33 H18         1.4280   -0.1940   -0.1800 hc        1 0B4      0.138000
     34 H19        -0.6770    2.1060   -1.2560 ha        1 0B4      0.130250
     35 H20         0.0610    3.5420   -2.9970 ha        1 0B4      0.130250
     36 H21         2.1990    3.2150   -3.9810 ha        1 0B4      0.130250
     37 H22         3.6000    1.4510   -3.2240 ha        1 0B4      0.130250
     38 H23         2.8640    0.0130   -1.4820 ha        1 0B4      0.132000
@<TRIPOS>BOND
     1    1    2 1   
     2    2    3 1   
     3    3    4 1   
     4    3    5 1   
     5    4   20 1   
     6    4   21 1   
     7    4   22 1   
     8    5    6 1   
     9    5    7 1   
    10    6   23 1   
    11    6   24 1   
    12    8    9 1   
    13    8   25 1   
    14    8   26 1   
    15    9   10 1   
    16    9   11 1   
    17   10   27 1   
    18   10   28 1   
    19   10   29 1   
    20   11   12 1   
    21   11   13 1   
    22   11   30 1   
    23   12   13 1   
    24   12   31 1   
    25   12   32 1   
    26   13   14 1   
    27   13   33 1   
    28   14   19 1   
    29   15   16 1   
    30   15   34 1   
    31   16   35 1   
    32   17   18 1   
    33   17   36 1   
    34   18   37 1   
    35   19   38 1   
@<TRIPOS>SUBSTRUCTURE
     1 0B4         1 TEMP              0 ****  ****    0 ROOT
