@<TRIPOS>MOLECULE
0B4
   39    41     1     0     0
SMALL
bcc


@<TRIPOS>ATOM
      1 O          -0.0940   -0.0020   -0.0270 o         1 0B4     -0.527500
      2 C5          1.1350   -0.0670   -0.0890 c         1 0B4      0.713500
      3 N3          1.8940    0.2210    1.0860 n         1 0B4     -0.444300
      4 C4          1.2500    0.5200    2.3350 c3        1 0B4      0.044300
      5 C3          3.2860   -0.0050    1.0050 c2        1 0B4      0.539800
      6 N2          4.1100    0.5080    2.1640 n4        1 0B4     -0.809600
      7 N1          3.9630   -0.5680    0.0500 n2        1 0B4     -0.571900
      8 C6          1.8960   -0.3790   -1.3530 c3        1 0B4     -0.179400
      9 C2          3.2530   -1.0880   -1.1280 c3        1 0B4      0.194200
     10 C1          2.9840   -2.5930   -0.9520 c3        1 0B4     -0.104100
     11 C7          4.1280   -0.8130   -2.3470 cx        1 0B4     -0.145700
     12 C9          4.4120   -1.8550   -3.3930 cx        1 0B4     -0.099400
     13 C8          5.5120   -1.4240   -2.4620 cx        1 0B4     -0.041400
     14 C10         6.6430   -0.6110   -2.9320 ca        1 0B4     -0.073300
     15 C15         7.9100   -0.8140   -2.3670 ca        1 0B4     -0.126000
     16 C14         9.0020   -0.0640   -2.7980 ca        1 0B4     -0.123000
     17 C13         8.8420    0.8980   -3.7970 ca        1 0B4     -0.117000
     18 C12         7.5850    1.1030   -4.3650 ca        1 0B4     -0.123000
     19 C11         6.4920    0.3530   -3.9370 ca        1 0B4     -0.126000
     20 H1          1.5620    1.5330    2.7070 h1        1 0B4      0.071367
     21 H2          0.1330    0.5350    2.1780 h1        1 0B4      0.071367
     22 H3          1.4830   -0.2600    3.1090 h1        1 0B4      0.071367
     23 H5          5.1050    0.2940    2.0050 hn        1 0B4      0.477800
     24 H6          3.7960    0.0590    3.0310 hn        1 0B4      0.477800
     25 H10         1.2430   -1.0240   -2.0020 hc        1 0B4      0.116200
     26 H11         2.0440    0.5970   -1.8940 hc        1 0B4      0.116200
     27 H12         3.9410   -3.1600   -0.8580 hc        1 0B4      0.064700
     28 H13         2.3580   -2.7800   -0.0470 hc        1 0B4      0.064700
     29 H14         2.4310   -2.9700   -1.8470 hc        1 0B4      0.064700
     30 H15         4.0170    0.2350   -2.6990 hc        1 0B4      0.093700
     31 H16         4.0050   -2.8770   -3.2960 hc        1 0B4      0.090700
     32 H17         4.4390   -1.5260   -4.4500 hc        1 0B4      0.090700
     33 H18         5.8080   -2.1490   -1.6730 hc        1 0B4      0.087700
     34 H19         8.0470   -1.5790   -1.5880 ha        1 0B4      0.128500
     35 H20         9.9950   -0.2360   -2.3550 ha        1 0B4      0.141500
     36 H21         9.7070    1.4860   -4.1400 ha        1 0B4      0.144000
     37 H22         7.4570    1.8550   -5.1590 ha        1 0B4      0.141500
     38 H23         5.5070    0.5160   -4.4020 ha        1 0B4      0.128500
     39 H231        3.9870    1.5240    2.2380 hn        1 0B4      0.477800
@<TRIPOS>BOND
     1    1    2 2   
     2    2    3 1   
     3    2    8 1   
     4    3    4 1   
     5    3    5 1   
     6    4   20 1   
     7    4   21 1   
     8    4   22 1   
     9    5    6 1   
    10    5    7 2   
    11    6   23 1   
    12    6   24 1   
    13    6   39 1   
    14    7    9 1   
    15    8    9 1   
    16    8   25 1   
    17    8   26 1   
    18    9   10 1   
    19    9   11 1   
    20   10   27 1   
    21   10   28 1   
    22   10   29 1   
    23   11   12 1   
    24   11   13 1   
    25   11   30 1   
    26   12   13 1   
    27   12   31 1   
    28   12   32 1   
    29   13   14 1   
    30   13   33 1   
    31   14   15 ar  
    32   14   19 ar  
    33   15   16 ar  
    34   15   34 1   
    35   16   17 ar  
    36   16   35 1   
    37   17   18 ar  
    38   17   36 1   
    39   18   19 ar  
    40   18   37 1   
    41   19   38 1   
@<TRIPOS>SUBSTRUCTURE
     1 0B4         1 TEMP              0 ****  ****    0 ROOT
