@<TRIPOS>MOLECULE
0B4
   39    41     1     0     0
SMALL
bcc


@<TRIPOS>ATOM
      1 O          -0.0960   -0.0230   -0.0310 o         1 0B4     -0.527500
      2 C5          1.1330   -0.0820   -0.0910 c         1 0B4      0.713500
      3 N3          1.8900    0.2150    1.0830 n         1 0B4     -0.444300
      4 C4          1.2430    0.5170    2.3300 c3        1 0B4      0.044300
      5 C3          3.2820   -0.0040    1.0050 c2        1 0B4      0.539800
      6 N2          4.1030    0.5190    2.1620 n4        1 0B4     -0.809600
      7 N1          3.9640   -0.5670    0.0530 n2        1 0B4     -0.571900
      8 C6          1.8970   -0.3960   -1.3530 c3        1 0B4     -0.179400
      9 C2          3.2580   -1.0970   -1.1230 c3        1 0B4      0.194200
     10 C1          2.9960   -2.6020   -0.9400 c3        1 0B4     -0.104100
     11 C7          4.1320   -0.8230   -2.3420 cx        1 0B4     -0.145700
     12 C9          4.4230   -1.8680   -3.3840 cx        1 0B4     -0.099400
     13 C8          5.5200   -1.4270   -2.4530 cx        1 0B4     -0.041400
     14 C10         6.6460   -0.6100   -2.9260 ca        1 0B4     -0.073300
     15 C15         7.9140   -0.8020   -2.3580 ca        1 0B4     -0.126000
     16 C14         9.0020   -0.0470   -2.7920 ca        1 0B4     -0.123000
     17 C13         8.8380    0.9080   -3.7950 ca        1 0B4     -0.117000
     18 C12         7.5810    1.1030   -4.3670 ca        1 0B4     -0.123000
     19 C11         6.4910    0.3490   -3.9360 ca        1 0B4     -0.126000
     20 H1          1.4790   -0.2590    3.1080 h1        1 0B4      0.071367
     21 H2          0.1260    0.5260    2.1720 h1        1 0B4      0.071367
     22 H3          1.5500    1.5330    2.6970 h1        1 0B4      0.071367
     23 H5          3.7900    0.0720    3.0300 hn        1 0B4      0.477800
     24 H6          3.9750    1.5350    2.2310 hn        1 0B4      0.477800
     25 H10         1.2480   -1.0480   -2.0000 hc        1 0B4      0.116200
     26 H11         2.0400    0.5780   -1.8980 hc        1 0B4      0.116200
     27 H12         2.3700   -2.7890   -0.0350 hc        1 0B4      0.064700
     28 H13         3.9560   -3.1640   -0.8430 hc        1 0B4      0.064700
     29 H14         2.4460   -2.9860   -1.8340 hc        1 0B4      0.064700
     30 H15         4.0160    0.2220   -2.7010 hc        1 0B4      0.093700
     31 H16         4.0230   -2.8920   -3.2810 hc        1 0B4      0.090700
     32 H17         4.4500   -1.5450   -4.4420 hc        1 0B4      0.090700
     33 H18         5.8200   -2.1460   -1.6600 hc        1 0B4      0.087700
     34 H19         8.0550   -1.5610   -1.5750 ha        1 0B4      0.128500
     35 H20         9.9950   -0.2110   -2.3460 ha        1 0B4      0.141500
     36 H21         9.6990    1.5000   -4.1400 ha        1 0B4      0.144000
     37 H22         7.4490    1.8500   -5.1650 ha        1 0B4      0.141500
     38 H23         5.5060    0.5030   -4.4030 ha        1 0B4      0.128500
     39 H231        5.0990    0.3090    2.0040 hn        1 0B4      0.477800
@<TRIPOS>BOND
     1    1    2 2   
     2    2    3 1   
     3    2    8 1   
     4    3    4 1   
     5    3    5 1   
     6    4   20 1   
     7    4   21 1   
     8    4   22 1   
     9    5    6 1   
    10    5    7 2   
    11    6   23 1   
    12    6   24 1   
    13    6   39 1   
    14    7    9 1   
    15    8    9 1   
    16    8   25 1   
    17    8   26 1   
    18    9   10 1   
    19    9   11 1   
    20   10   27 1   
    21   10   28 1   
    22   10   29 1   
    23   11   12 1   
    24   11   13 1   
    25   11   30 1   
    26   12   13 1   
    27   12   31 1   
    28   12   32 1   
    29   13   14 1   
    30   13   33 1   
    31   14   15 ar  
    32   14   19 ar  
    33   15   16 ar  
    34   15   34 1   
    35   16   17 ar  
    36   16   35 1   
    37   17   18 ar  
    38   17   36 1   
    39   18   19 ar  
    40   18   37 1   
    41   19   38 1   
@<TRIPOS>SUBSTRUCTURE
     1 0B4         1 TEMP              0 ****  ****    0 ROOT
