@<TRIPOS>MOLECULE
0B4
   39    41     1     0     0
SMALL
bcc


@<TRIPOS>ATOM
      1 O          -0.0960   -0.0130   -0.0320 o         1 0B4     -0.527500
      2 C5          1.1330   -0.0740   -0.0920 c         1 0B4      0.713500
      3 N3          1.8900    0.2230    1.0820 n         1 0B4     -0.444300
      4 C4          1.2440    0.5270    2.3290 c3        1 0B4      0.044300
      5 C3          3.2830    0.0000    1.0040 c2        1 0B4      0.539800
      6 N2          4.1040    0.5230    2.1610 nz        1 0B4     -0.809600
      7 N1          3.9630   -0.5650    0.0530 n2        1 0B4     -0.571900
      8 C6          1.8970   -0.3900   -1.3540 c3        1 0B4     -0.179400
      9 C2          3.2560   -1.0940   -1.1230 c3        1 0B4      0.194200
     10 C1          2.9910   -2.5990   -0.9380 c3        1 0B4     -0.104100
     11 C7          4.1310   -0.8240   -2.3420 cx        1 0B4     -0.145700
     12 C9          4.4200   -1.8700   -3.3820 cx        1 0B4     -0.099400
     13 C8          5.5180   -1.4300   -2.4520 cx        1 0B4     -0.041400
     14 C10         6.6460   -0.6160   -2.9260 ca        1 0B4     -0.073300
     15 C15         7.9140   -0.8110   -2.3580 ca        1 0B4     -0.126000
     16 C14         9.0040   -0.0590   -2.7920 ca        1 0B4     -0.123000
     17 C13         8.8420    0.8950   -3.7960 ca        1 0B4     -0.117000
     18 C12         7.5850    1.0930   -4.3670 ca        1 0B4     -0.123000
     19 C11         6.4930    0.3420   -3.9360 ca        1 0B4     -0.126000
     20 H1          1.4780   -0.2480    3.1070 h1        1 0B4      0.071367
     21 H2          1.5530    1.5430    2.6950 h1        1 0B4      0.071367
     22 H3          0.1270    0.5380    2.1700 h1        1 0B4      0.071367
     23 H5          3.7900    0.0770    3.0300 hn        1 0B4      0.477800
     24 H6          3.9780    1.5390    2.2290 hn        1 0B4      0.477800
     25 H10         2.0430    0.5830   -1.8990 hc        1 0B4      0.116200
     26 H11         1.2470   -1.0420   -2.0000 hc        1 0B4      0.116200
     27 H12         3.9500   -3.1620   -0.8410 hc        1 0B4      0.064700
     28 H13         2.3650   -2.7830   -0.0330 hc        1 0B4      0.064700
     29 H14         2.4410   -2.9820   -1.8320 hc        1 0B4      0.064700
     30 H15         4.0180    0.2220   -2.7010 hc        1 0B4      0.093700
     31 H16         4.0170   -2.8930   -3.2790 hc        1 0B4      0.090700
     32 H17         4.4480   -1.5480   -4.4410 hc        1 0B4      0.090700
     33 H18         5.8160   -2.1490   -1.6580 hc        1 0B4      0.087700
     34 H19         8.0530   -1.5700   -1.5740 ha        1 0B4      0.128500
     35 H20         9.9960   -0.2260   -2.3460 ha        1 0B4      0.141500
     36 H21         9.7040    1.4850   -4.1410 ha        1 0B4      0.144000
     37 H22         7.4550    1.8400   -5.1660 ha        1 0B4      0.141500
     38 H23         5.5090    0.4980   -4.4030 ha        1 0B4      0.128500
     39 H231        5.1000    0.3100    2.0040 hn        1 0B4      0.477800
@<TRIPOS>BOND
     1    1    2 2   
     2    2    3 1   
     3    2    8 1   
     4    3    4 1   
     5    3    5 1   
     6    4   20 1   
     7    4   21 1   
     8    4   22 1   
     9    5    6 1   
    10    5    7 2   
    11    6   23 1   
    12    6   24 1   
    13    6   39 1   
    14    7    9 1   
    15    8    9 1   
    16    8   25 1   
    17    8   26 1   
    18    9   10 1   
    19    9   11 1   
    20   10   27 1   
    21   10   28 1   
    22   10   29 1   
    23   11   12 1   
    24   11   13 1   
    25   11   30 1   
    26   12   13 1   
    27   12   31 1   
    28   12   32 1   
    29   13   14 1   
    30   13   33 1   
    31   14   15 ar  
    32   14   19 ar  
    33   15   16 ar  
    34   15   34 1   
    35   16   17 ar  
    36   16   35 1   
    37   17   18 ar  
    38   17   36 1   
    39   18   19 ar  
    40   18   37 1   
    41   19   38 1   
@<TRIPOS>SUBSTRUCTURE
     1 0B4         1 TEMP              0 ****  ****    0 ROOT
