@<TRIPOS>MOLECULE
0B4
   38    40     1     0     0
SMALL
bcc


@<TRIPOS>ATOM
      1 O          -4.2400   -1.4770   -0.9630 o         1 0B4     -0.618500
      2 C5         -3.2440   -0.8040   -0.6470 c         1 0B4      0.705500
      3 N3         -3.3690    0.5670   -0.3850 n         1 0B4     -0.438300
      4 C4         -4.6580    1.2010   -0.4270 c3        1 0B4      0.075300
      5 C3         -2.2120    1.2930    0.0660 c2        1 0B4      0.643800
      6 N2         -2.3590    2.7090    0.1850 nh        1 0B4     -0.877800
      7 N1         -1.0690    0.7380    0.4110 n2        1 0B4     -0.686900
      8 C6         -1.8620   -1.4130   -0.5880 c3        1 0B4     -0.173400
      9 C2         -0.9510   -0.7150    0.4500 c3        1 0B4      0.191200
     10 C1         -1.3380   -1.2590    1.8390 c3        1 0B4     -0.099100
     11 C7          0.4910   -1.0870    0.1050 cx        1 0B4     -0.099700
     12 C9          1.3070   -2.0410    0.9290 cx        1 0B4     -0.123400
     13 C8          1.6410   -0.5710    0.9470 cx        1 0B4     -0.060400
     14 C10         2.8620   -0.0610    0.3090 ca        1 0B4     -0.042300
     15 C15         3.5000    1.0640    0.8540 ca        1 0B4     -0.126500
     16 C14         4.6600    1.5690    0.2720 ca        1 0B4     -0.128500
     17 C13         5.1990    0.9610   -0.8610 ca        1 0B4     -0.134000
     18 C12         4.5710   -0.1560   -1.4110 ca        1 0B4     -0.128500
     19 C11         3.4100   -0.6640   -0.8310 ca        1 0B4     -0.126500
     20 H1         -4.8710    1.7310    0.5400 h1        1 0B4      0.053700
     21 H2         -4.6940    1.9450   -1.2680 h1        1 0B4      0.053700
     22 H3         -5.4540    0.4270   -0.6000 h1        1 0B4      0.053700
     23 H5         -2.8220    3.1230   -0.5960 hn        1 0B4      0.402800
     24 H6         -1.5000    3.1700    0.4070 hn        1 0B4      0.402800
     25 H10        -1.9620   -2.5010   -0.3430 hc        1 0B4      0.085700
     26 H11        -1.4210   -1.3320   -1.6180 hc        1 0B4      0.085700
     27 H12        -1.2630   -2.3730    1.8400 hc        1 0B4      0.045700
     28 H13        -0.6600   -0.8480    2.6230 hc        1 0B4      0.045700
     29 H14        -2.3890   -0.9760    2.0870 hc        1 0B4      0.045700
     30 H15         0.6540   -1.1070   -0.9930 hc        1 0B4      0.080700
     31 H16         0.8870   -2.4960    1.8440 hc        1 0B4      0.074700
     32 H17         1.9820   -2.7390    0.4000 hc        1 0B4      0.074700
     33 H18         1.3690   -0.0040    1.8640 hc        1 0B4      0.093700
     34 H19         3.0780    1.5510    1.7460 ha        1 0B4      0.130500
     35 H20         5.1520    2.4510    0.7090 ha        1 0B4      0.129500
     36 H21         6.1150    1.3600   -1.3190 ha        1 0B4      0.130000
     37 H22         4.9920   -0.6390   -2.3050 ha        1 0B4      0.129500
     38 H23         2.9210   -1.5450   -1.2730 ha        1 0B4      0.130500
@<TRIPOS>BOND
     1    1    2 2   
     2    2    3 1   
     3    2    8 1   
     4    3    4 1   
     5    3    5 1   
     6    4   20 1   
     7    4   21 1   
     8    4   22 1   
     9    5    6 1   
    10    5    7 2   
    11    6   23 1   
    12    6   24 1   
    13    7    9 1   
    14    8    9 1   
    15    8   25 1   
    16    8   26 1   
    17    9   10 1   
    18    9   11 1   
    19   10   27 1   
    20   10   28 1   
    21   10   29 1   
    22   11   12 1   
    23   11   13 1   
    24   11   30 1   
    25   12   13 1   
    26   12   31 1   
    27   12   32 1   
    28   13   14 1   
    29   13   33 1   
    30   14   15 ar  
    31   14   19 ar  
    32   15   16 ar  
    33   15   34 1   
    34   16   17 ar  
    35   16   35 1   
    36   17   18 ar  
    37   17   36 1   
    38   18   19 ar  
    39   18   37 1   
    40   19   38 1   
@<TRIPOS>SUBSTRUCTURE
     1 0B4         1 TEMP              0 ****  ****    0 ROOT
