@<TRIPOS>MOLECULE
0BB
   46    49     1     0     0
SMALL
bcc


@<TRIPOS>ATOM
      1 C1          0.0370   -0.0960    0.0800 c3        1 0BB      0.062000
      2 O1          0.2880   -1.2920    2.8180 o         1 0BB     -0.601500
      3 C3          4.7370   -0.3000    1.2300 ca        1 0BB     -0.123000
      4 C4          5.2240   -0.0280   -0.0530 ca        1 0BB     -0.136000
      5 C5          4.3750    0.0250   -1.1550 ca        1 0BB     -0.134000
      6 C6          2.9990   -0.1930   -1.0290 ca        1 0BB     -0.109000
      7 C7          2.4910   -0.4750    0.2340 ca        1 0BB     -0.018400
      8 C8          3.3740   -0.5260    1.3810 ca        1 0BB     -0.015400
      9 N9          2.6170   -0.8930    2.5240 n         1 0BB     -0.330000
     10 C10         1.2330   -0.9700    2.0840 c         1 0BB      0.752500
     11 N11         1.1680   -0.8130    0.6410 n         1 0BB     -0.299000
     12 C12        -0.0130    1.3980    0.3860 c3        1 0BB     -0.097400
     13 C13        -1.0770    2.1010   -0.4160 c3        1 0BB     -0.197400
     14 C17         2.9370   -0.4190    3.8450 c3        1 0BB      0.155200
     15 C18         2.8680    1.0470    4.1110 cc        1 0BB     -0.149400
     16 C19         3.4350    1.6660    5.2900 ca        1 0BB     -0.052800
     17 C20         3.2010    3.0760    5.2600 ca        1 0BB     -0.123100
     18 S21         2.3370    3.5310    3.8940 ss        1 0BB      0.163500
     19 C22         2.2510    1.9760    3.3060 cd        1 0BB     -0.143400
     20 C23         4.1270    1.1120    6.3890 ca        1 0BB     -0.048300
     21 C24         4.5760    1.9600    7.3960 ca        1 0BB     -0.144000
     22 C25         4.3510    3.3460    7.3480 ca        1 0BB     -0.137000
     23 C26         3.6640    3.9050    6.2890 ca        1 0BB     -0.093000
     24 C34         4.3880   -0.3420    6.5170 c3        1 0BB     -0.052800
     25 C39        -1.0470    3.6210   -0.1530 c         1 0BB      0.912600
     26 O40        -0.2130    4.0740    0.6840 o         1 0BB     -0.848800
     27 O41        -1.8640    4.3350   -0.7990 o         1 0BB     -0.848800
     28 H1         -0.8910   -0.5940    0.4800 h1        1 0BB      0.062200
     29 H1A         0.0800   -0.2530   -1.0340 h1        1 0BB      0.062200
     30 H3          5.4150   -0.3260    2.0940 ha        1 0BB      0.136000
     31 H4          6.3000    0.1540   -0.1850 ha        1 0BB      0.124000
     32 H5          4.7880    0.2520   -2.1490 ha        1 0BB      0.127000
     33 H6          2.3370   -0.1310   -1.9030 ha        1 0BB      0.146000
     34 H12        -0.2200    1.5580    1.4780 hc        1 0BB      0.055700
     35 H12A        0.9770    1.8790    0.1620 hc        1 0BB      0.055700
     36 H13        -0.9240    1.9300   -1.5110 hc        1 0BB      0.026200
     37 H13A       -2.0920    1.7150   -0.1490 hc        1 0BB      0.026200
     38 H17         3.9890   -0.7750    4.0540 h1        1 0BB      0.070700
     39 H17A        2.2210   -0.9420    4.5490 h1        1 0BB      0.070700
     40 H22         1.7330    1.7700    2.3620 h4        1 0BB      0.200000
     41 H24         5.1180    1.5410    8.2570 ha        1 0BB      0.119000
     42 H25         4.7240    3.9800    8.1650 ha        1 0BB      0.122000
     43 H26         3.4740    4.9880    6.2460 ha        1 0BB      0.133000
     44 H34         3.4530   -0.9300    6.3400 hc        1 0BB      0.041367
     45 H34A        4.7650   -0.5930    7.5400 hc        1 0BB      0.041367
     46 H34B        5.1630   -0.6660    5.7770 hc        1 0BB      0.041367
@<TRIPOS>BOND
     1    1   11 1   
     2    1   12 1   
     3    1   28 1   
     4    1   29 1   
     5    2   10 2   
     6    3    4 ar  
     7    3    8 ar  
     8    3   30 1   
     9    4    5 ar  
    10    4   31 1   
    11    5    6 ar  
    12    5   32 1   
    13    6    7 ar  
    14    6   33 1   
    15    7    8 ar  
    16    7   11 1   
    17    8    9 1   
    18    9   10 1   
    19    9   14 1   
    20   10   11 1   
    21   12   13 1   
    22   12   34 1   
    23   12   35 1   
    24   13   25 1   
    25   13   36 1   
    26   13   37 1   
    27   14   15 1   
    28   14   38 1   
    29   14   39 1   
    30   15   16 1   
    31   15   19 2   
    32   16   17 ar  
    33   16   20 ar  
    34   17   18 1   
    35   17   23 ar  
    36   18   19 1   
    37   19   40 1   
    38   20   21 ar  
    39   20   24 1   
    40   21   22 ar  
    41   21   41 1   
    42   22   23 ar  
    43   22   42 1   
    44   23   43 1   
    45   24   44 1   
    46   24   45 1   
    47   24   46 1   
    48   25   26 1   
    49   25   27 1   
@<TRIPOS>SUBSTRUCTURE
     1 0BB         1 TEMP              0 ****  ****    0 ROOT
