@<TRIPOS>MOLECULE
0BB
   46    41     1     0     0
SMALL
bcc


@<TRIPOS>ATOM
      1 C1         -2.3310    1.2890   -2.7330 c3        1 0BB      0.062000
      2 O1         -2.0610    1.2690    0.2480 o         1 0BB     -0.565100
      3 C3          2.4690    1.2130   -1.4750 c1        1 0BB     -0.065500
      4 C4          3.0090    1.3170   -2.7700 c1        1 0BB     -0.080250
      5 C5          2.1600    1.4280   -3.8730 c1        1 0BB     -0.080250
      6 C6          0.7730    1.4360   -3.6890 c1        1 0BB     -0.051500
      7 C7          0.2350    1.3320   -2.3950 c1        1 0BB     -0.004800
      8 C8          1.0840    1.2210   -1.2920 c1        1 0BB     -0.001800
      9 N9          0.2590    1.1520   -0.0960 n         1 0BB     -0.343600
     10 C10        -1.0970    1.2450   -0.4950 c         1 0BB      0.716100
     11 N11        -1.1350    1.2900   -1.9110 n         1 0BB     -0.312600
     12 C12        -2.8980   -0.1560   -2.8170 c3        1 0BB     -0.097400
     13 C13        -4.1410   -0.1680   -3.7200 c3        1 0BB     -0.197400
     14 C17         0.7400    1.0700    1.2660 c3        1 0BB      0.155200
     15 C18         0.7360   -0.4090    1.7320 ce        1 0BB     -0.191000
     16 C19         1.1970   -1.0000    3.1690 cg        1 0BB     -0.074300
     17 C20         0.8730   -2.3890    3.2080 c1        1 0BB     -0.350000
     18 S21         0.2060   -2.7670    1.8440 s         1 0BB      0.288100
     19 C22         0.1550   -1.4780    0.9720 c1        1 0BB      0.022000
     20 C23         1.8040   -0.4010    4.2610 c1        1 0BB     -0.014100
     21 C24         2.1010   -1.1680    5.4120 c1        1 0BB     -0.080250
     22 C25         1.7780   -2.5490    5.4480 c1        1 0BB     -0.080250
     23 C26         1.1700   -3.1490    4.3550 c1        1 0BB     -0.035500
     24 C34         2.3620    0.9760    4.6460 c3        1 0BB     -0.087000
     25 C39        -4.7080   -1.5970   -3.7950 c         1 0BB      0.912600
     26 O40        -4.3200   -2.3840   -4.7090 o         1 0BB     -0.848800
     27 O41        -5.6170   -1.9570   -2.9970 o         1 0BB     -0.848800
     28 H1         -2.9990    1.8770   -2.3360 h1        1 0BB      0.062200
     29 H1A        -2.1070    1.6110   -3.6440 h1        1 0BB      0.062200
     30 H3          3.0620    1.1350   -0.7040 ha        1 0BB      0.078500
     31 H4          3.9710    1.2670   -2.9010 ha        1 0BB      0.065500
     32 H5          2.5340    1.4980   -4.7720 ha        1 0BB      0.065500
     33 H6          0.1810    1.5130   -4.4570 ha        1 0BB      0.088500
     34 H12        -3.1420   -0.4600   -1.9240 hc        1 0BB      0.055700
     35 H12A       -2.2160   -0.7520   -3.1900 hc        1 0BB      0.055700
     36 H13        -3.8950    0.1330   -4.6190 hc        1 0BB      0.026200
     37 H13A       -4.8180    0.4310   -3.3490 hc        1 0BB      0.026200
     38 H17         0.1480    1.6040    1.8560 h1        1 0BB      0.070700
     39 H17A        1.6370    1.4180    1.3120 h1        1 0BB      0.070700
     40 H22        -0.1620   -1.4200    0.0480 DU        1 0BB      0.200000
     41 H24         2.5440   -1.0750    6.2780 ha        1 0BB      0.065500
     42 H25         2.1720   -3.1610    6.1080 ha        1 0BB      0.065500
     43 H26         0.8460   -4.0850    4.3080 ha        1 0BB      0.075500
     44 H34         3.2990    0.8830    4.9230 hc        1 0BB      0.041367
     45 H34A        1.8370    1.3450    5.3890 hc        1 0BB      0.041367
     46 H34B        2.3080    1.5750    3.8810 hc        1 0BB      0.041367
@<TRIPOS>BOND
     1    1   11 1   
     2    1   12 1   
     3    1   28 1   
     4    1   29 1   
     5    2   10 2   
     6    3    8 3   
     7    3   30 1   
     8    4    5 3   
     9    4   31 1   
    10    5   32 1   
    11    6    7 3   
    12    6   33 1   
    13    7   11 1   
    14    8    9 1   
    15    9   10 1   
    16    9   14 1   
    17   10   11 1   
    18   12   13 1   
    19   12   34 1   
    20   12   35 1   
    21   13   25 1   
    22   13   36 1   
    23   13   37 1   
    24   14   15 1   
    25   14   38 1   
    26   14   39 1   
    27   15   16 1   
    28   15   19 2   
    29   16   20 3   
    30   17   23 3   
    31   18   19 2   
    32   20   24 1   
    33   21   22 3   
    34   21   41 1   
    35   22   42 1   
    36   23   43 1   
    37   24   44 1   
    38   24   45 1   
    39   24   46 1   
    40   25   26 1   
    41   25   27 1   
@<TRIPOS>SUBSTRUCTURE
     1 0BB         1 TEMP              0 ****  ****    0 ROOT
