@<TRIPOS>MOLECULE
0BB
   46    49     1     0     0
SMALL
bcc


@<TRIPOS>ATOM
      1 C1          3.3040    0.6950    1.2890 c3        1 0BB      0.062000
      2 O1          0.9350    0.6520    3.1260 o         1 0BB     -0.601500
      3 C3         -0.3000    3.1550   -0.8120 ca        1 0BB     -0.123000
      4 C4          0.4750    3.7360   -1.8220 ca        1 0BB     -0.136000
      5 C5          1.8630    3.6210   -1.8280 ca        1 0BB     -0.134000
      6 C6          2.5430    2.9230   -0.8250 ca        1 0BB     -0.109000
      7 C7          1.7970    2.3440    0.1960 ca        1 0BB     -0.018400
      8 C8          0.3540    2.4600    0.1990 ca        1 0BB     -0.015400
      9 N9         -0.1510    1.8430    1.3730 n         1 0BB     -0.330000
     10 C10         0.9970    1.2550    2.0450 c         1 0BB      0.752500
     11 N11         2.2190    1.6560    1.3700 n         1 0BB     -0.299000
     12 C12         3.0450   -0.5190    0.4020 c3        1 0BB     -0.097400
     13 C13         4.2920   -1.3380    0.1920 c3        1 0BB     -0.197400
     14 C17        -1.4320    1.1870    1.4090 c3        1 0BB      0.155200
     15 C18        -1.6460   -0.0030    0.5370 cc        1 0BB     -0.149400
     16 C19        -2.9540   -0.5640    0.2690 ca        1 0BB     -0.052800
     17 C20        -2.8300   -1.6970   -0.5930 ca        1 0BB     -0.123100
     18 S21        -1.2270   -2.0070   -0.9820 ss        1 0BB      0.163500
     19 C22        -0.6560   -0.7210   -0.0920 cd        1 0BB     -0.143400
     20 C23        -4.2390   -0.1820    0.7160 ca        1 0BB     -0.048300
     21 C24        -5.3420   -0.9100    0.2840 ca        1 0BB     -0.144000
     22 C25        -5.2090   -2.0140   -0.5740 ca        1 0BB     -0.137000
     23 C26        -3.9600   -2.4120   -1.0100 ca        1 0BB     -0.093000
     24 C34        -4.4570    0.9610    1.6330 c3        1 0BB     -0.052800
     25 C39         4.0220   -2.5070   -0.7770 c         1 0BB      0.912600
     26 O40         2.8490   -2.6630   -1.2270 o         1 0BB     -0.848800
     27 O41         5.0000   -3.2500   -1.0730 o         1 0BB     -0.848800
     28 H1          4.2020    1.2580    0.9070 h1        1 0BB      0.062200
     29 H1A         3.5120    0.3550    2.3430 h1        1 0BB      0.062200
     30 H3         -1.3950    3.2400   -0.8260 ha        1 0BB      0.136000
     31 H4         -0.0290    4.2860   -2.6290 ha        1 0BB      0.124000
     32 H5          2.4430    4.0800   -2.6420 ha        1 0BB      0.127000
     33 H6          3.6370    2.8250   -0.8510 ha        1 0BB      0.146000
     34 H12         2.2590   -1.1710    0.8670 hc        1 0BB      0.055700
     35 H12A        2.6570   -0.1970   -0.6020 hc        1 0BB      0.055700
     36 H13         5.1110   -0.7080   -0.2360 hc        1 0BB      0.026200
     37 H13A        4.6550   -1.7590    1.1620 hc        1 0BB      0.026200
     38 H17        -1.5940    0.8720    2.4850 h1        1 0BB      0.070700
     39 H17A       -2.1910    1.9780    1.1360 h1        1 0BB      0.070700
     40 H22         0.4200   -0.5170   -0.0430 h4        1 0BB      0.200000
     41 H24        -6.3490   -0.6220    0.6230 ha        1 0BB      0.119000
     42 H25        -6.1080   -2.5620   -0.8910 ha        1 0BB      0.122000
     43 H26        -3.8430   -3.2810   -1.6740 ha        1 0BB      0.133000
     44 H34        -4.2780    1.9290    1.1010 hc        1 0BB      0.041367
     45 H34A       -5.5070    0.9710    2.0180 hc        1 0BB      0.041367
     46 H34B       -3.7680    0.9020    2.5130 hc        1 0BB      0.041367
@<TRIPOS>BOND
     1    1   11 1   
     2    1   12 1   
     3    1   28 1   
     4    1   29 1   
     5    2   10 2   
     6    3    4 ar  
     7    3    8 ar  
     8    3   30 1   
     9    4    5 ar  
    10    4   31 1   
    11    5    6 ar  
    12    5   32 1   
    13    6    7 ar  
    14    6   33 1   
    15    7    8 ar  
    16    7   11 1   
    17    8    9 1   
    18    9   10 1   
    19    9   14 1   
    20   10   11 1   
    21   12   13 1   
    22   12   34 1   
    23   12   35 1   
    24   13   25 1   
    25   13   36 1   
    26   13   37 1   
    27   14   15 1   
    28   14   38 1   
    29   14   39 1   
    30   15   16 1   
    31   15   19 2   
    32   16   17 ar  
    33   16   20 ar  
    34   17   18 1   
    35   17   23 ar  
    36   18   19 1   
    37   19   40 1   
    38   20   21 ar  
    39   20   24 1   
    40   21   22 ar  
    41   21   41 1   
    42   22   23 ar  
    43   22   42 1   
    44   23   43 1   
    45   24   44 1   
    46   24   45 1   
    47   24   46 1   
    48   25   26 1   
    49   25   27 1   
@<TRIPOS>SUBSTRUCTURE
     1 0BB         1 TEMP              0 ****  ****    0 ROOT
