@<TRIPOS>MOLECULE
0BB
   46    49     1     0     0
SMALL
bcc


@<TRIPOS>ATOM
      1 C1          0.0290   -0.0880    0.0850 c3        1 0BB      0.062000
      2 O1          0.2710   -1.2740    2.8280 o         1 0BB     -0.601500
      3 C3          4.7270   -0.3240    1.2370 ca        1 0BB     -0.123000
      4 C4          5.2160   -0.0620   -0.0480 ca        1 0BB     -0.136000
      5 C5          4.3680   -0.0080   -1.1500 ca        1 0BB     -0.134000
      6 C6          2.9900   -0.2140   -1.0230 ca        1 0BB     -0.109000
      7 C7          2.4800   -0.4860    0.2410 ca        1 0BB     -0.018400
      8 C8          3.3620   -0.5380    1.3880 ca        1 0BB     -0.015400
      9 N9          2.6020   -0.8940    2.5330 n         1 0BB     -0.330000
     10 C10         1.2180   -0.9620    2.0930 c         1 0BB      0.752500
     11 N11         1.1550   -0.8120    0.6490 n         1 0BB     -0.299000
     12 C12        -0.0090    1.4080    0.3840 c3        1 0BB     -0.097400
     13 C13        -1.0670    2.1150   -0.4220 c3        1 0BB     -0.197400
     14 C17         2.9260   -0.4170    3.8520 c3        1 0BB      0.155200
     15 C18         2.8680    1.0500    4.1100 cc        1 0BB     -0.149400
     16 C19         3.4400    1.6710    5.2870 ca        1 0BB     -0.052800
     17 C20         3.2160    3.0830    5.2500 ca        1 0BB     -0.123100
     18 S21         2.3570    3.5380    3.8820 ss        1 0BB      0.163500
     19 C22         2.2590    1.9810    3.3010 cd        1 0BB     -0.143400
     20 C23         4.1270    1.1160    6.3890 ca        1 0BB     -0.048300
     21 C24         4.5820    1.9650    7.3920 ca        1 0BB     -0.144000
     22 C25         4.3670    3.3530    7.3380 ca        1 0BB     -0.137000
     23 C26         3.6850    3.9130    6.2760 ca        1 0BB     -0.093000
     24 C34         4.3760   -0.3390    6.5240 c3        1 0BB     -0.052800
     25 C39        -1.0250    3.6350   -0.1670 c         1 0BB      0.912600
     26 O40        -0.1880    4.0860    0.6690 o         1 0BB     -0.848800
     27 O41        -1.8370    4.3530   -0.8160 o         1 0BB     -0.848800
     28 H1         -0.9020   -0.5780    0.4870 h1        1 0BB      0.062200
     29 H1A         0.0710   -0.2510   -1.0290 h1        1 0BB      0.062200
     30 H3          5.4050   -0.3510    2.1010 ha        1 0BB      0.136000
     31 H4          6.2940    0.1110   -0.1810 ha        1 0BB      0.124000
     32 H5          4.7830    0.2120   -2.1450 ha        1 0BB      0.127000
     33 H6          2.3290   -0.1510   -1.8980 ha        1 0BB      0.146000
     34 H12        -0.2140    1.5750    1.4740 hc        1 0BB      0.055700
     35 H12A        0.9850    1.8790    0.1570 hc        1 0BB      0.055700
     36 H13        -0.9150    1.9380   -1.5160 hc        1 0BB      0.026200
     37 H13A       -2.0850    1.7380   -0.1530 hc        1 0BB      0.026200
     38 H17         3.9750   -0.7800    4.0620 h1        1 0BB      0.070700
     39 H17A        2.2060   -0.9310    4.5580 h1        1 0BB      0.070700
     40 H22         1.7400    1.7750    2.3570 h4        1 0BB      0.200000
     41 H24         5.1200    1.5460    8.2560 ha        1 0BB      0.119000
     42 H25         4.7440    3.9880    8.1530 ha        1 0BB      0.122000
     43 H26         3.5040    4.9960    6.2280 ha        1 0BB      0.133000
     44 H34         3.4370   -0.9200    6.3490 hc        1 0BB      0.041367
     45 H34A        4.7510   -0.5880    7.5480 hc        1 0BB      0.041367
     46 H34B        5.1490   -0.6720    5.7860 hc        1 0BB      0.041367
@<TRIPOS>BOND
     1    1   11 1   
     2    1   12 1   
     3    1   28 1   
     4    1   29 1   
     5    2   10 2   
     6    3    4 ar  
     7    3    8 ar  
     8    3   30 1   
     9    4    5 ar  
    10    4   31 1   
    11    5    6 ar  
    12    5   32 1   
    13    6    7 ar  
    14    6   33 1   
    15    7    8 ar  
    16    7   11 1   
    17    8    9 1   
    18    9   10 1   
    19    9   14 1   
    20   10   11 1   
    21   12   13 1   
    22   12   34 1   
    23   12   35 1   
    24   13   25 1   
    25   13   36 1   
    26   13   37 1   
    27   14   15 1   
    28   14   38 1   
    29   14   39 1   
    30   15   16 1   
    31   15   19 2   
    32   16   17 ar  
    33   16   20 ar  
    34   17   18 1   
    35   17   23 ar  
    36   18   19 1   
    37   19   40 1   
    38   20   21 ar  
    39   20   24 1   
    40   21   22 ar  
    41   21   41 1   
    42   22   23 ar  
    43   22   42 1   
    44   23   43 1   
    45   24   44 1   
    46   24   45 1   
    47   24   46 1   
    48   25   26 1   
    49   25   27 1   
@<TRIPOS>SUBSTRUCTURE
     1 0BB         1 TEMP              0 ****  ****    0 ROOT
