@<TRIPOS>MOLECULE
0BB
   46    49     1     0     0
SMALL
bcc


@<TRIPOS>ATOM
      1 C1          0.0210   -0.0940    0.0960 c3        1 0BB      0.062000
      2 O1          0.2840   -1.2860    2.8350 o         1 0BB     -0.601500
      3 C3          4.7270   -0.3090    1.2200 ca        1 0BB     -0.123000
      4 C4          5.2070   -0.0410   -0.0660 ca        1 0BB     -0.136000
      5 C5          4.3520    0.0120   -1.1640 ca        1 0BB     -0.134000
      6 C6          2.9760   -0.2020   -1.0290 ca        1 0BB     -0.109000
      7 C7          2.4740   -0.4800    0.2370 ca        1 0BB     -0.018400
      8 C8          3.3640   -0.5300    1.3780 ca        1 0BB     -0.015400
      9 N9          2.6120   -0.8930    2.5270 n         1 0BB     -0.330000
     10 C10         1.2260   -0.9670    2.0950 c         1 0BB      0.752500
     11 N11         1.1530   -0.8140    0.6520 n         1 0BB     -0.299000
     12 C12        -0.0230    1.4000    0.3980 c3        1 0BB     -0.097400
     13 C13        -1.0900    2.1040   -0.4000 c3        1 0BB     -0.197400
     14 C17         2.9410   -0.4170    3.8450 c3        1 0BB      0.155200
     15 C18         2.8760    1.0490    4.1080 cc        1 0BB     -0.149400
     16 C19         3.4510    1.6690    5.2840 ca        1 0BB     -0.052800
     17 C20         3.2200    3.0790    5.2520 ca        1 0BB     -0.123100
     18 S21         2.3500    3.5330    3.8900 ss        1 0BB      0.163500
     19 C22         2.2580    1.9780    3.3050 cd        1 0BB     -0.143400
     20 C23         4.1480    1.1150    6.3800 ca        1 0BB     -0.048300
     21 C24         4.6030    1.9640    7.3830 ca        1 0BB     -0.144000
     22 C25         4.3810    3.3500    7.3340 ca        1 0BB     -0.137000
     23 C26         3.6900    3.9090    6.2780 ca        1 0BB     -0.093000
     24 C34         4.4060   -0.3390    6.5090 c3        1 0BB     -0.052800
     25 C39        -1.0540    3.6240   -0.1410 c         1 0BB      0.912600
     26 O40        -0.2150    4.0770    0.6920 o         1 0BB     -0.848800
     27 O41        -1.8720    4.3390   -0.7840 o         1 0BB     -0.848800
     28 H1         -0.9060   -0.5900    0.5030 h1        1 0BB      0.062200
     29 H1A         0.0570   -0.2550   -1.0180 h1        1 0BB      0.062200
     30 H3          5.4090   -0.3340    2.0800 ha        1 0BB      0.136000
     31 H4          6.2830    0.1390   -0.2050 ha        1 0BB      0.124000
     32 H5          4.7600    0.2360   -2.1610 ha        1 0BB      0.127000
     33 H6          2.3090   -0.1400   -1.9010 ha        1 0BB      0.146000
     34 H12         0.9670    1.8780    0.1680 hc        1 0BB      0.055700
     35 H12A       -0.2230    1.5640    1.4910 hc        1 0BB      0.055700
     36 H13        -0.9440    1.9300   -1.4950 hc        1 0BB      0.026200
     37 H13A       -2.1040    1.7220   -0.1250 hc        1 0BB      0.026200
     38 H17         2.2280   -0.9370    4.5540 h1        1 0BB      0.070700
     39 H17A        3.9930   -0.7750    4.0490 h1        1 0BB      0.070700
     40 H22         1.7340    1.7720    2.3640 h4        1 0BB      0.200000
     41 H24         5.1490    1.5460    8.2420 ha        1 0BB      0.119000
     42 H25         4.7590    3.9850    8.1480 ha        1 0BB      0.122000
     43 H26         3.5020    4.9920    6.2340 ha        1 0BB      0.133000
     44 H34         3.4700   -0.9250    6.3380 hc        1 0BB      0.041367
     45 H34A        4.7880   -0.5890    7.5300 hc        1 0BB      0.041367
     46 H34B        5.1760   -0.6650    5.7660 hc        1 0BB      0.041367
@<TRIPOS>BOND
     1    1   11 1   
     2    1   12 1   
     3    1   28 1   
     4    1   29 1   
     5    2   10 2   
     6    3    4 ar  
     7    3    8 ar  
     8    3   30 1   
     9    4    5 ar  
    10    4   31 1   
    11    5    6 ar  
    12    5   32 1   
    13    6    7 ar  
    14    6   33 1   
    15    7    8 ar  
    16    7   11 1   
    17    8    9 1   
    18    9   10 1   
    19    9   14 1   
    20   10   11 1   
    21   12   13 1   
    22   12   34 1   
    23   12   35 1   
    24   13   25 1   
    25   13   36 1   
    26   13   37 1   
    27   14   15 1   
    28   14   38 1   
    29   14   39 1   
    30   15   16 1   
    31   15   19 2   
    32   16   17 ar  
    33   16   20 ar  
    34   17   18 1   
    35   17   23 ar  
    36   18   19 1   
    37   19   40 1   
    38   20   21 ar  
    39   20   24 1   
    40   21   22 ar  
    41   21   41 1   
    42   22   23 ar  
    43   22   42 1   
    44   23   43 1   
    45   24   44 1   
    46   24   45 1   
    47   24   46 1   
    48   25   26 1   
    49   25   27 1   
@<TRIPOS>SUBSTRUCTURE
     1 0BB         1 TEMP              0 ****  ****    0 ROOT
