@<TRIPOS>MOLECULE
0BD
   72    73     1     0     0
SMALL
bcc


@<TRIPOS>ATOM
      1 C1         -0.5790    0.6950   -1.0970 c3        1 0BD      0.127100
      2 C2          0.9090    0.7190   -1.1250 c3        1 0BD      0.089100
      3 C3          1.4930    0.6000    0.2170 c3        1 0BD      0.086100
      4 C4          0.9410   -0.5880    0.9830 c3        1 0BD      0.100100
      5 O5         -0.5380   -0.6130    1.0040 os        1 0BD     -0.452600
      6 C6         -1.1240   -0.4980   -0.3200 c3        1 0BD      0.343900
      7 O7          2.9390    0.4520    0.0880 os        1 0BD     -0.396600
      8 O16        -2.5370   -0.3550   -0.1880 os        1 0BD     -0.399600
      9 C18        -3.3130   -1.4890   -0.7410 c3        1 0BD      0.148100
     10 C19        -4.8460   -1.0950   -0.8120 c3        1 0BD     -0.089900
     11 C22        -5.0740   -0.1470   -2.0120 c3        1 0BD     -0.072200
     12 O49        -1.0590    0.6320   -2.4340 oh        1 0BD     -0.591800
     13 O55         1.3530    1.9890   -1.7230 oh        1 0BD     -0.614800
     14 C57         1.4410   -0.5300    2.3840 c3        1 0BD      0.135400
     15 O61         0.6900   -1.4260    3.1930 oh        1 0BD     -0.599800
     16 C10         3.5590    1.6320    0.4810 c3        1 0BD      0.310900
     17 C14        -5.7890   -0.8690   -3.0840 c3        1 0BD     -0.088600
     18 C13        -5.8980    1.0400   -1.5670 c3        1 0BD     -0.088600
     19 C          -3.1340   -2.7470    0.1870 c3        1 0BD     -0.089900
     20 C12        -3.9560   -3.9240   -0.3770 c3        1 0BD     -0.072200
     21 C16        -4.8710   -4.5140    0.7570 c3        1 0BD     -0.088600
     22 C15        -2.9920   -5.0320   -0.8930 c3        1 0BD     -0.088600
     23 O71         4.1840    1.4270    1.7860 os        1 0BD     -0.431600
     24 C17         4.5740    2.0500   -0.5980 c3        1 0BD      0.128100
     25 C181        4.9980    2.5550    2.2060 c3        1 0BD      0.120100
     26 C191        5.3820    3.1830   -0.1840 c3        1 0BD      0.106100
     27 C20         6.0100    2.9710    1.1480 c3        1 0BD      0.103100
     28 H1         -0.9060    1.5260   -0.6790 h1        1 0BD      0.076700
     29 H2          1.2300   -0.0240   -1.6790 h1        1 0BD      0.065700
     30 H3          1.3020    1.4130    0.7180 h1        1 0BD      0.074700
     31 H4          1.2610   -1.4010    0.5700 h1        1 0BD      0.067700
     32 H6         -0.9320   -1.3200   -0.8240 h2        1 0BD      0.058700
     33 H18        -2.9910   -1.6970   -1.6350 h1        1 0BD      0.046700
     34 H19        -5.1030   -0.6490    0.0060 hc        1 0BD      0.054950
     35 H19A       -5.3870   -1.9040   -0.9270 hc        1 0BD      0.054950
     36 H22        -4.2240    0.1590   -2.3450 hc        1 0BD      0.059200
     37 HO49       -1.4120    1.4250   -2.6630 ho        1 0BD      0.422000
     38 HO55        1.2890    1.9400   -2.5950 ho        1 0BD      0.432000
     39 H57         1.3420    0.3820    2.7280 h1        1 0BD      0.064700
     40 H57A        2.3630   -0.7800    2.4040 h1        1 0BD      0.064700
     41 HO61        1.1980   -1.7130    3.8680 ho        1 0BD      0.411000
     42 H10         2.8740    2.3380    0.5630 h2        1 0BD      0.058700
     43 H14        -5.2240   -1.5940   -3.4210 hc        1 0BD      0.032617
     44 H14A       -5.9940   -0.2530   -3.8110 hc        1 0BD      0.032617
     45 H14B       -6.6280   -1.2460   -2.7240 hc        1 0BD      0.032617
     46 H13        -6.7460    0.7320   -1.2190 hc        1 0BD      0.032617
     47 H13A       -6.0550    1.6370   -2.3330 hc        1 0BD      0.032617
     48 H13B       -5.4240    1.5190   -0.8790 hc        1 0BD      0.032617
     49 H          -3.4480   -2.5320    1.0940 hc        1 0BD      0.054950
     50 HA         -2.1890   -2.9950    0.2200 hc        1 0BD      0.054950
     51 H12        -4.5130   -3.6090   -1.1150 hc        1 0BD      0.059200
     52 H16        -5.4600   -5.1990    0.3790 hc        1 0BD      0.032617
     53 H16A       -4.3070   -4.9150    1.4560 hc        1 0BD      0.032617
     54 H16B       -5.4180   -3.7880    1.1520 hc        1 0BD      0.032617
     55 H15        -2.4030   -4.6580   -1.5860 hc        1 0BD      0.032617
     56 H15A       -2.4460   -5.3680   -0.1430 hc        1 0BD      0.032617
     57 H15B       -3.5100   -5.7620   -1.2680 hc        1 0BD      0.032617
     58 O8          3.8570    2.4050   -1.8030 oh        1 0BD     -0.592800
     59 H31         5.1850    1.2670   -0.7980 h1        1 0BD      0.122700
     60 C21         5.7480    2.1730    3.4900 c3        1 0BD      0.123400
     61 H32         4.4110    3.3150    2.3980 h1        1 0BD      0.058700
     62 O9          4.5290    4.3750   -0.1200 oh        1 0BD     -0.615800
     63 H33         6.0840    3.3310   -0.8450 h1        1 0BD      0.074700
     64 O10         7.0010    1.9490    1.0340 oh        1 0BD     -0.591800
     65 H34         6.4450    3.8110    1.4330 h1        1 0BD      0.056700
     66 H35         6.4310    1.4890    3.2820 h1        1 0BD      0.049700
     67 O11         6.3870    3.3350    4.0340 oh        1 0BD     -0.618800
     68 H36         5.0980    1.8040    4.1600 h1        1 0BD      0.049700
     69 H37         4.4290    2.4120   -2.5030 ho        1 0BD      0.419000
     70 H38         4.9990    5.1010   -0.4040 ho        1 0BD      0.417000
     71 H39         7.8100    2.3020    1.1720 ho        1 0BD      0.424000
     72 H40         6.6870    3.1500    4.8810 ho        1 0BD      0.415000
@<TRIPOS>BOND
     1    1    2 1   
     2    1    6 1   
     3    1   12 1   
     4    1   28 1   
     5    2    3 1   
     6    2   13 1   
     7    2   29 1   
     8    3    4 1   
     9    3    7 1   
    10    3   30 1   
    11    4    5 1   
    12    4   14 1   
    13    4   31 1   
    14    5    6 1   
    15    6    8 1   
    16    6   32 1   
    17    7   16 1   
    18    8    9 1   
    19    9   10 1   
    20    9   19 1   
    21    9   33 1   
    22   10   11 1   
    23   10   34 1   
    24   10   35 1   
    25   11   17 1   
    26   11   18 1   
    27   11   36 1   
    28   12   37 1   
    29   13   38 1   
    30   14   15 1   
    31   14   39 1   
    32   14   40 1   
    33   15   41 1   
    34   16   23 1   
    35   16   24 1   
    36   16   42 1   
    37   17   43 1   
    38   17   44 1   
    39   17   45 1   
    40   18   46 1   
    41   18   47 1   
    42   18   48 1   
    43   19   20 1   
    44   19   49 1   
    45   19   50 1   
    46   20   21 1   
    47   20   22 1   
    48   20   51 1   
    49   21   52 1   
    50   21   53 1   
    51   21   54 1   
    52   22   55 1   
    53   22   56 1   
    54   22   57 1   
    55   23   25 1   
    56   24   26 1   
    57   24   58 1   
    58   24   59 1   
    59   25   27 1   
    60   25   60 1   
    61   25   61 1   
    62   26   27 1   
    63   26   62 1   
    64   26   63 1   
    65   27   64 1   
    66   27   65 1   
    67   58   69 1   
    68   60   66 1   
    69   60   67 1   
    70   60   68 1   
    71   62   70 1   
    72   64   71 1   
    73   67   72 1   
@<TRIPOS>SUBSTRUCTURE
     1 0BD         1 TEMP              0 ****  ****    0 ROOT
