@<TRIPOS>MOLECULE
0BD
   72    73     1     0     0
SMALL
bcc


@<TRIPOS>ATOM
      1 C1          1.2720    1.3490   -1.2420 c3        1 0BD      0.085100
      2 C2         -0.1180    1.6220   -0.6480 c3        1 0BD      0.121100
      3 C3         -0.7070    0.3220   -0.0720 c3        1 0BD      0.125100
      4 C4          0.2880   -0.3410    0.8970 c3        1 0BD      0.105100
      5 O5          1.5540   -0.5460    0.2700 os        1 0BD     -0.446600
      6 C6          2.1550    0.6610   -0.1840 c3        1 0BD      0.305900
      7 O7         -1.8590    0.6380    0.7140 os        1 0BD     -0.416600
      8 O16         3.3110    0.2030   -0.8430 os        1 0BD     -0.418600
      9 C18         4.3900   -0.1850    0.0300 c3        1 0BD      0.146100
     10 C19         4.8800   -1.5530   -0.4420 c3        1 0BD     -0.089400
     11 C22         3.9400   -2.6820   -0.0490 c3        1 0BD     -0.073700
     12 O49         1.8170    2.6080   -1.5950 oh        1 0BD     -0.605800
     13 O55        -1.0050    2.0690   -1.6590 oh        1 0BD     -0.602800
     14 C57        -0.1940   -1.7380    1.3030 c3        1 0BD      0.141400
     15 O61         0.6910   -2.3290    2.2280 oh        1 0BD     -0.598800
     16 C10        -3.0780    0.6050   -0.0030 c3        1 0BD      0.304900
     17 C14         4.1970   -3.8980   -0.9170 c3        1 0BD     -0.091600
     18 C13         4.0870   -3.0470    1.4130 c3        1 0BD     -0.091600
     19 C           5.5100    0.8450   -0.0970 c3        1 0BD     -0.089400
     20 C12         5.1190    2.2360    0.3770 c3        1 0BD     -0.073700
     21 C16         4.9670    2.2940    1.8820 c3        1 0BD     -0.091600
     22 C15         6.1530    3.2460   -0.0800 c3        1 0BD     -0.091600
     23 O71        -3.2650   -0.7870   -0.2280 os        1 0BD     -0.446600
     24 C17        -4.1630    1.1580    0.9410 c3        1 0BD      0.090100
     25 C181       -4.5140   -1.0790   -0.8590 c3        1 0BD      0.118100
     26 C191       -5.5510    0.9120    0.3300 c3        1 0BD      0.118100
     27 C20        -5.7170   -0.5720   -0.0520 c3        1 0BD      0.115100
     28 H1          1.1860    0.6930   -2.1520 h1        1 0BD      0.079700
     29 H2         -0.0420    2.4050    0.1580 h1        1 0BD      0.060700
     30 H3         -0.9720   -0.3800   -0.9080 h1        1 0BD      0.088700
     31 H4          0.4220    0.3050    1.8080 h1        1 0BD      0.065700
     32 H6          2.3840    1.3440    0.6810 h2        1 0BD      0.057700
     33 H18         4.0280   -0.2470    1.0920 h1        1 0BD      0.057700
     34 H19         4.9800   -1.5260   -1.5590 hc        1 0BD      0.052700
     35 H19A        5.8970   -1.7380   -0.0090 hc        1 0BD      0.052700
     36 H22         2.8820   -2.3290   -0.2280 hc        1 0BD      0.060200
     37 HO49        2.6910    2.4320   -1.9710 ho        1 0BD      0.425000
     38 HO55       -0.5860    2.8330   -2.0760 ho        1 0BD      0.425000
     39 H57        -1.1800   -1.6480    1.8330 h1        1 0BD      0.065200
     40 H57A       -0.3010   -2.3840    0.3920 h1        1 0BD      0.065200
     41 HO61        1.5510   -2.4070    1.7890 ho        1 0BD      0.412000
     42 H10        -3.0220    1.1730   -0.9720 h2        1 0BD      0.090700
     43 H14         3.5180   -4.7330   -0.6220 hc        1 0BD      0.034450
     44 H14A        4.0150   -3.6560   -1.9910 hc        1 0BD      0.034450
     45 H14B        5.2530   -4.2440   -0.8050 hc        1 0BD      0.034450
     46 H13         3.8670   -2.1660    2.0640 hc        1 0BD      0.034450
     47 H13A        3.3750   -3.8660    1.6790 hc        1 0BD      0.034450
     48 H13B        5.1240   -3.3980    1.6320 hc        1 0BD      0.034450
     49 H           6.3910    0.4830    0.4960 hc        1 0BD      0.052700
     50 HA          5.8200    0.9000   -1.1740 hc        1 0BD      0.052700
     51 H12         4.1290    2.5020   -0.0970 hc        1 0BD      0.060200
     52 H16         5.9200    2.0000    2.3850 hc        1 0BD      0.034450
     53 H16A        4.7040    3.3300    2.2030 hc        1 0BD      0.034450
     54 H16B        4.1590    1.6030    2.2250 hc        1 0BD      0.034450
     55 H15         6.2300    3.2490   -1.1940 hc        1 0BD      0.034450
     56 H15A        5.8680    4.2710    0.2590 hc        1 0BD      0.034450
     57 H15B        7.1550    2.9980    0.3440 hc        1 0BD      0.034450
     58 O8         -4.0270    2.5600    1.0910 oh        1 0BD     -0.607800
     59 H31        -4.0910    0.6450    1.9390 h1        1 0BD      0.079700
     60 C21        -4.5460   -2.6030   -1.0140 c3        1 0BD      0.140400
     61 H32        -4.5370   -0.5710   -1.8660 h1        1 0BD      0.072700
     62 O9         -5.7510    1.6630   -0.8540 oh        1 0BD     -0.600800
     63 H33        -6.3320    1.2020    1.0890 h1        1 0BD      0.049700
     64 O10        -5.8420   -1.3680    1.1140 oh        1 0BD     -0.585800
     65 H34        -6.6410   -0.6750   -0.6900 h1        1 0BD      0.063700
     66 H35        -5.4940   -2.9080   -1.5300 h1        1 0BD      0.064700
     67 O11        -3.5030   -3.0480   -1.8540 oh        1 0BD     -0.597800
     68 H36        -4.4790   -3.0870   -0.0040 h1        1 0BD      0.064700
     69 H37        -3.1160    2.7200    1.3720 ho        1 0BD      0.427000
     70 H38        -5.4850    2.5710   -0.6570 ho        1 0BD      0.430000
     71 H39        -6.6420   -1.0760    1.5680 ho        1 0BD      0.404000
     72 H40        -2.6730   -2.7810   -1.4380 ho        1 0BD      0.410000
@<TRIPOS>BOND
     1    1    2 1   
     2    1    6 1   
     3    1   12 1   
     4    1   28 1   
     5    2    3 1   
     6    2   13 1   
     7    2   29 1   
     8    3    4 1   
     9    3    7 1   
    10    3   30 1   
    11    4    5 1   
    12    4   14 1   
    13    4   31 1   
    14    5    6 1   
    15    6    8 1   
    16    6   32 1   
    17    7   16 1   
    18    8    9 1   
    19    9   10 1   
    20    9   19 1   
    21    9   33 1   
    22   10   11 1   
    23   10   34 1   
    24   10   35 1   
    25   11   17 1   
    26   11   18 1   
    27   11   36 1   
    28   12   37 1   
    29   13   38 1   
    30   14   15 1   
    31   14   39 1   
    32   14   40 1   
    33   15   41 1   
    34   16   23 1   
    35   16   24 1   
    36   16   42 1   
    37   17   43 1   
    38   17   44 1   
    39   17   45 1   
    40   18   46 1   
    41   18   47 1   
    42   18   48 1   
    43   19   20 1   
    44   19   49 1   
    45   19   50 1   
    46   20   21 1   
    47   20   22 1   
    48   20   51 1   
    49   21   52 1   
    50   21   53 1   
    51   21   54 1   
    52   22   55 1   
    53   22   56 1   
    54   22   57 1   
    55   23   25 1   
    56   24   26 1   
    57   24   58 1   
    58   24   59 1   
    59   25   27 1   
    60   25   60 1   
    61   25   61 1   
    62   26   27 1   
    63   26   62 1   
    64   26   63 1   
    65   27   64 1   
    66   27   65 1   
    67   58   69 1   
    68   60   66 1   
    69   60   67 1   
    70   60   68 1   
    71   62   70 1   
    72   64   71 1   
    73   67   72 1   
@<TRIPOS>SUBSTRUCTURE
     1 0BD         1 TEMP              0 ****  ****    0 ROOT
