@<TRIPOS>MOLECULE
0BI
   87    85     1     0     0
SMALL
bcc


@<TRIPOS>ATOM
      1 N1         -1.0240   -0.8580    1.4970 n         1 0BI     -0.364000
      2 C3          0.4150   -0.9330    1.4230 c3        1 0BI      0.003000
      3 C5          0.9930   -0.9530    2.8270 c3        1 0BI     -0.156000
      4 C8          1.0000    0.5100    3.4170 c2        1 0BI     -0.042000
      5 C9         -0.2010    1.1280    3.7560 c2        1 0BI     -0.205000
      6 C11        -0.1920    2.3870    4.3530 c1        1 0BI      0.078000
      7 C12         1.0170    3.0260    4.6100 c1        1 0BI     -0.125750
      8 C14         2.2180    2.4080    4.2710 c1        1 0BI     -0.125750
      9 C16         2.2090    1.1500    3.6740 c1        1 0BI     -0.156000
     10 O18        -1.4290    2.9790    4.8000 os        1 0BI     -0.214000
     11 C19        -2.1170    3.5710    3.6770 c3        1 0BI     -0.021000
     12 C22        -3.6570    3.3350    3.8250 c3        1 0BI     -0.191000
     13 C25        -4.2570    2.9030    2.4430 c3        1 0BI     -0.199000
     14 C28        -5.0280    1.5450    2.6080 c3        1 0BI     -0.056000
     15 N31        -5.7830    1.2580    1.3810 n3        1 0BI     -0.276000
     16 C33        -5.0710    0.2360    0.5830 c2        1 0BI      0.056000
     17 C34        -3.8440   -0.2630    1.0240 c2        1 0BI     -0.173000
     18 C36        -3.1780   -1.2340    0.2780 c1        1 0BI     -0.089000
     19 C37        -3.7390   -1.7080   -0.9090 c1        1 0BI     -0.122000
     20 C39        -4.9650   -1.2100   -1.3480 c1        1 0BI     -0.049000
     21 C40        -5.6310   -0.2380   -0.6030 c1        1 0BI     -0.140000
     22 C42        -5.5980   -1.7550   -2.6380 c3        1 0BI      0.012000
     23 O45        -6.9960   -1.9140   -2.4480 os        1 0BI     -0.279000
     24 C46        -7.7180   -2.1450   -3.6510 c3        1 0BI     -0.074000
     25 C50        -1.8530   -1.8910    0.8420 c2        1 0BI      0.346000
     26 O51        -1.3230   -2.8050    0.2400 o         1 0BI     -0.378000
     27 C52         0.8180   -2.1870    0.6950 c3        1 0BI     -0.002000
     28 O54         0.6170   -3.2960    1.5290 oh        1 0BI     -0.341000
     29 C56         2.3040   -2.1000    0.3060 c3        1 0BI     -0.067000
     30 N59         2.6240   -3.1650   -0.6210 n3        1 0BI     -0.260000
     31 C61         3.6900   -2.7320   -1.5120 cx        1 0BI     -0.016000
     32 C62         5.0910   -3.1840   -1.1340 cx        1 0BI     -0.193000
     33 C65         4.3730   -3.8330   -2.3060 cx        1 0BI     -0.193000
     34 C68         3.5950   -1.3630   -2.2140 c2        1 0BI     -0.076000
     35 C69         4.7210   -0.5450   -2.3030 c2        1 0BI     -0.117000
     36 C71         4.6460    0.6720   -2.9760 c1        1 0BI     -0.063000
     37 C72         3.4450    1.0730   -3.5600 c1        1 0BI     -0.125750
     38 C74         2.3210    0.2550   -3.4710 c1        1 0BI     -0.125750
     39 C76         2.3960   -0.9630   -2.7980 c1        1 0BI     -0.119000
     40 C78         5.9170    1.5240   -3.1690 c3        1 0BI     -0.069000
     41 C80         6.0870    1.8600   -4.6580 c3        1 0BI     -0.210500
     42 C84         5.7890    2.8250   -2.3630 c3        1 0BI     -0.210500
     43 HN1        -1.4240   -0.1580    1.9290 hn        1 0BI      0.220000
     44 H3          0.7590   -0.1480    0.9380 h1        1 0BI      0.102000
     45 H5          0.4440   -1.5350    3.4000 hc        1 0BI      0.113500
     46 H5A         1.9130   -1.2980    2.7980 hc        1 0BI      0.113500
     47 H9         -1.0490    0.6790    3.5750 ha        1 0BI      0.129000
     48 H12         1.0230    3.9130    5.0300 ha        1 0BI      0.137000
     49 H14         3.0710    2.8600    4.4530 ha        1 0BI      0.137000
     50 H16         3.0560    0.7150    3.4350 ha        1 0BI      0.139000
     51 H19        -1.9340    4.5370    3.6530 h1        1 0BI      0.095000
     52 H19A       -1.8020    3.1580    2.8480 h1        1 0BI      0.095000
     53 H22        -3.8170    2.6270    4.4870 hc        1 0BI      0.098000
     54 H22A       -4.0880    4.1670    4.1240 hc        1 0BI      0.098000
     55 H25        -4.8770    3.5950    2.1250 hc        1 0BI      0.087000
     56 H25A       -3.5330    2.7900    1.7930 hc        1 0BI      0.087000
     57 H28        -4.3870    0.8240    2.7720 h1        1 0BI      0.099000
     58 H28A       -5.6500    1.6110    3.3690 h1        1 0BI      0.099000
     59 HN31       -5.8700    2.0250    0.8880 hn        1 0BI      0.193000
     60 H34        -3.4520    0.0690    1.8540 ha        1 0BI      0.136000
     61 H37        -3.2710   -2.3910   -1.4340 ha        1 0BI      0.152000
     62 H40        -6.4950    0.1130   -0.9130 ha        1 0BI      0.156000
     63 H42        -5.4360   -1.1240   -3.3750 h1        1 0BI      0.081500
     64 H42A       -5.1960   -2.6240   -2.8570 h1        1 0BI      0.081500
     65 H46        -7.5160   -1.4340   -4.2960 h1        1 0BI      0.075000
     66 H46A       -7.4550   -3.0150   -4.0300 h1        1 0BI      0.075000
     67 H46B       -8.6820   -2.1500   -3.4590 h1        1 0BI      0.075000
     68 H52         0.2740   -2.2840   -0.1140 h1        1 0BI      0.106000
     69 HO54        1.3970   -3.6970    1.6830 ho        1 0BI      0.234000
     70 H56         2.4820   -1.2320   -0.1180 h1        1 0BI      0.094500
     71 H56A        2.8610   -2.1910    1.1150 h1        1 0BI      0.094500
     72 HN59        1.8810   -3.3740   -1.1140 hn        1 0BI      0.183000
     73 H62         5.1580   -3.7300   -0.3210 hc        1 0BI      0.113750
     74 H62A        5.8150   -2.5670   -1.3680 hc        1 0BI      0.113750
     75 H65         4.6960   -3.5790   -3.1960 hc        1 0BI      0.113750
     76 H65A        4.0370   -4.7450   -2.1490 hc        1 0BI      0.113750
     77 H69         5.5640   -0.8270   -1.8920 ha        1 0BI      0.131000
     78 H72         3.3910    1.9300   -4.0340 ha        1 0BI      0.137000
     79 H74         1.4720    0.5380   -3.8840 ha        1 0BI      0.137000
     80 H76         1.6040   -1.5380   -2.7350 ha        1 0BI      0.136000
     81 H78         6.6990    1.0210   -2.8550 hc        1 0BI      0.087000
     82 H80         5.3040    2.3620   -4.9720 hc        1 0BI      0.077333
     83 H80A        6.8950    2.4030   -4.7800 hc        1 0BI      0.077333
     84 H80B        6.1710    1.0270   -5.1740 hc        1 0BI      0.077333
     85 H84         5.5900    2.6110   -1.4260 hc        1 0BI      0.077333
     86 H84A        6.6350    3.3260   -2.4130 hc        1 0BI      0.077333
     87 H84B        5.0610    3.3720   -2.7360 hc        1 0BI      0.077333
@<TRIPOS>BOND
     1    1    2 1   
     2    1   25 1   
     3    1   43 1   
     4    2    3 1   
     5    2   27 1   
     6    2   44 1   
     7    3    4 1   
     8    3   45 1   
     9    3   46 1   
    10    4    5 1   
    11    4    9 1   
    12    5    6 1   
    13    5   47 1   
    14    6   10 1   
    15    7    8 1   
    16    7   48 1   
    17    8   49 1   
    18    9   50 1   
    19   10   11 1   
    20   11   12 1   
    21   11   51 1   
    22   11   52 1   
    23   12   13 1   
    24   12   53 1   
    25   12   54 1   
    26   13   14 1   
    27   13   55 1   
    28   13   56 1   
    29   14   15 1   
    30   14   57 1   
    31   14   58 1   
    32   15   16 1   
    33   15   59 1   
    34   16   17 1   
    35   16   21 1   
    36   17   18 1   
    37   17   60 1   
    38   18   25 1   
    39   19   20 1   
    40   19   61 1   
    41   20   22 1   
    42   21   62 1   
    43   22   23 1   
    44   22   63 1   
    45   22   64 1   
    46   23   24 1   
    47   24   65 1   
    48   24   66 1   
    49   24   67 1   
    50   25   26 1   
    51   27   28 1   
    52   27   29 1   
    53   27   68 1   
    54   28   69 1   
    55   29   30 1   
    56   29   70 1   
    57   29   71 1   
    58   30   31 1   
    59   30   72 1   
    60   31   32 1   
    61   31   33 1   
    62   31   34 1   
    63   32   33 1   
    64   32   73 1   
    65   32   74 1   
    66   33   75 1   
    67   33   76 1   
    68   34   35 1   
    69   34   39 1   
    70   35   36 1   
    71   35   77 1   
    72   36   40 1   
    73   37   38 1   
    74   37   78 1   
    75   38   79 1   
    76   39   80 1   
    77   40   41 1   
    78   40   42 1   
    79   40   81 1   
    80   41   82 1   
    81   41   83 1   
    82   41   84 1   
    83   42   85 1   
    84   42   86 1   
    85   42   87 1   
@<TRIPOS>SUBSTRUCTURE
     1 0BI         1 TEMP              0 ****  ****    0 ROOT
