@<TRIPOS>MOLECULE
0BI
   90    94     1     0     0
SMALL
bcc


@<TRIPOS>ATOM
      1 N1          0.3460   -0.5500   -0.5860 n4        1 0BI     -0.688800
      2 C3          1.8560   -0.6100   -0.5950 c3        1 0BI      0.139500
      3 C5          2.4080   -0.2550    0.7980 c3        1 0BI     -0.060100
      4 C8          1.8520    1.0240    1.3200 ca        1 0BI     -0.125300
      5 C9          0.7020    1.0040    2.1180 ca        1 0BI     -0.219000
      6 C11         0.1960    2.2090    2.6440 ca        1 0BI      0.147100
      7 C12         0.8560    3.4220    2.3890 ca        1 0BI     -0.181000
      8 C14         2.0040    3.4210    1.6020 ca        1 0BI     -0.065000
      9 C16         2.4980    2.2350    1.0550 ca        1 0BI     -0.149000
     10 O18        -0.9200    2.0350    3.4270 os        1 0BI     -0.325900
     11 C19        -1.7100    3.1710    3.7970 c3        1 0BI      0.123400
     12 C22        -2.9800    3.2070    2.9590 c3        1 0BI     -0.110400
     13 C25        -2.6830    3.4630    1.4950 c3        1 0BI     -0.106400
     14 C28        -3.9520    3.2900    0.6730 c3        1 0BI      0.106800
     15 N31        -3.6960    3.2690   -0.8110 n4        1 0BI     -0.638400
     16 C33        -3.3360    1.9390   -1.3190 ca        1 0BI     -0.027400
     17 C34        -1.9970    1.5140   -1.3070 ca        1 0BI     -0.075000
     18 C36        -1.6900    0.2530   -1.8320 ca        1 0BI     -0.182600
     19 C37        -2.6870   -0.5720   -2.3670 ca        1 0BI     -0.010000
     20 C39        -4.0240   -0.1470   -2.3540 ca        1 0BI     -0.021300
     21 C40        -4.3510    1.1070   -1.8310 ca        1 0BI     -0.065000
     22 C42        -5.1070   -1.0180   -2.9120 c3        1 0BI      0.153700
     23 O45        -4.5680   -2.3210   -3.0970 os        1 0BI     -0.450600
     24 C46        -5.5110   -3.2260   -3.6730 c3        1 0BI      0.112700
     25 C50        -0.2910   -0.2160   -1.9160 c         1 0BI      0.571700
     26 O51         0.3830   -0.3990   -2.9160 o         1 0BI     -0.384100
     27 C52         2.3510   -2.0030   -1.0860 c3        1 0BI      0.101100
     28 O54         1.6480   -2.9850   -0.3420 oh        1 0BI     -0.606800
     29 C56         3.8630   -2.1490   -0.8310 c3        1 0BI      0.076800
     30 N59         4.4390   -3.3990   -1.3950 n4        1 0BI     -0.729000
     31 C61         5.9300   -3.4570   -1.2120 cx        1 0BI      0.069500
     32 C62         6.4920   -3.7170    0.1760 cx        1 0BI     -0.086400
     33 C65         6.5420   -4.8050   -0.8490 cx        1 0BI     -0.086400
     34 C68         6.6270   -2.5640   -2.1610 ca        1 0BI     -0.160300
     35 C69         7.1720   -1.3520   -1.7190 ca        1 0BI     -0.116000
     36 C71         7.8930   -0.5390   -2.6000 ca        1 0BI     -0.050300
     37 C72         8.0490   -0.9490   -3.9330 ca        1 0BI     -0.072000
     38 C74         7.4980   -2.1510   -4.3750 ca        1 0BI     -0.108000
     39 C76         6.7870   -2.9640   -3.4940 ca        1 0BI     -0.118000
     40 C78         8.5080    0.7370   -2.1150 c3        1 0BI     -0.032400
     41 C80        10.0210    0.6800   -2.2250 c3        1 0BI     -0.093600
     42 C84         7.9660    1.9300   -2.8790 c3        1 0BI     -0.093600
     43 HN1        -0.0090   -1.4680   -0.2700 hn        1 0BI      0.483300
     44 H3          2.2150    0.1610   -1.3430 hx        1 0BI      0.124700
     45 H5          3.5240   -0.1510    0.7010 hc        1 0BI      0.099700
     46 H5A         2.1990   -1.0980    1.5120 hc        1 0BI      0.099700
     47 H9          0.2350    0.0570    2.4300 ha        1 0BI      0.154000
     48 H12         0.5160    4.3700    2.8340 ha        1 0BI      0.170000
     49 H14         2.5440    4.3690    1.4270 ha        1 0BI      0.174000
     50 H16         3.4160    2.2580    0.4490 ha        1 0BI      0.151000
     51 H19        -1.9740    2.9610    4.8740 h1        1 0BI      0.093700
     52 H19A       -1.1500    4.1350    3.7370 h1        1 0BI      0.093700
     53 H22        -3.6450    4.0130    3.3690 hc        1 0BI      0.084200
     54 H22A       -3.5160    2.2270    3.0760 hc        1 0BI      0.084200
     55 H25        -1.8920    2.7400    1.1570 hc        1 0BI      0.060200
     56 H25A       -2.2780    4.5030    1.3680 hc        1 0BI      0.060200
     57 H28        -4.4750    2.3280    0.9470 hx        1 0BI      0.122700
     58 H28A       -4.6550    4.1530    0.8750 hx        1 0BI      0.122700
     59 HN31       -2.9400    3.9310   -1.0340 hn        1 0BI      0.471300
     60 H34        -1.1950    2.1660   -0.9220 ha        1 0BI      0.161000
     61 H37        -2.4460   -1.5580   -2.8110 ha        1 0BI      0.207000
     62 H40        -5.4100    1.4270   -1.8370 ha        1 0BI      0.187000
     63 H42        -5.9780   -1.0640   -2.2000 h1        1 0BI      0.081200
     64 H42A       -5.4560   -0.6020   -3.9000 h1        1 0BI      0.081200
     65 H46        -4.9450   -4.1890   -3.7450 h1        1 0BI      0.063033
     66 H46A       -6.4000   -3.3370   -3.0060 h1        1 0BI      0.063033
     67 H46B       -5.8200   -2.8700   -4.6860 h1        1 0BI      0.063033
     68 H52         2.1260   -2.0870   -2.1900 h1        1 0BI      0.087700
     69 HO54        1.4810   -3.7490   -0.9120 ho        1 0BI      0.445000
     70 H56         4.0590   -2.1720    0.2820 hx        1 0BI      0.132200
     71 H56A        4.4180   -1.2760   -1.2870 hx        1 0BI      0.132200
     72 HN59        4.0100   -4.2110   -0.9380 hn        1 0BI      0.451800
     73 H62         5.8100   -3.8260    1.0400 hc        1 0BI      0.117200
     74 H62A        7.4240   -3.1830    0.4530 hc        1 0BI      0.117200
     75 H65         5.9010   -5.6990   -0.7240 hc        1 0BI      0.117200
     76 H65A        7.5080   -5.0620   -1.3330 hc        1 0BI      0.117200
     77 H69         7.0680   -1.0550   -0.6640 ha        1 0BI      0.133000
     78 H72         8.6290   -0.3200   -4.6320 ha        1 0BI      0.172000
     79 H74         7.6410   -2.4700   -5.4220 ha        1 0BI      0.170000
     80 H76         6.3910   -3.9300   -3.8390 ha        1 0BI      0.138000
     81 H78         8.2460    0.8720   -1.0250 hc        1 0BI      0.049700
     82 H80        10.3370    0.5690   -3.2910 hc        1 0BI      0.048867
     83 H80A       10.4260   -0.1810   -1.6420 hc        1 0BI      0.048867
     84 H80B       10.4640    1.6230   -1.8220 hc        1 0BI      0.048867
     85 H84         8.2230    1.8580   -3.9630 hc        1 0BI      0.048867
     86 H84A        8.4140    2.8710   -2.4750 hc        1 0BI      0.048867
     87 H84B        6.8560    1.9920   -2.7790 hc        1 0BI      0.048867
     88 H121        0.0490    0.1600    0.1080 hn        1 0BI      0.483300
     89 H312       -4.5510    3.5810   -1.2970 hn        1 0BI      0.471300
     90 H592        4.2590   -3.4460   -2.4070 hn        1 0BI      0.451800
@<TRIPOS>BOND
     1    1    2 1   
     2    1   25 1   
     3    1   43 1   
     4    1   88 1   
     5    2    3 1   
     6    2   27 1   
     7    2   44 1   
     8    3    4 1   
     9    3   45 1   
    10    3   46 1   
    11    4    5 ar  
    12    4    9 ar  
    13    5    6 ar  
    14    5   47 1   
    15    6    7 ar  
    16    6   10 1   
    17    7    8 ar  
    18    7   48 1   
    19    8    9 ar  
    20    8   49 1   
    21    9   50 1   
    22   10   11 1   
    23   11   12 1   
    24   11   51 1   
    25   11   52 1   
    26   12   13 1   
    27   12   53 1   
    28   12   54 1   
    29   13   14 1   
    30   13   55 1   
    31   13   56 1   
    32   14   15 1   
    33   14   57 1   
    34   14   58 1   
    35   15   16 1   
    36   15   59 1   
    37   15   89 1   
    38   16   17 ar  
    39   16   21 ar  
    40   17   18 ar  
    41   17   60 1   
    42   18   19 ar  
    43   18   25 1   
    44   19   20 ar  
    45   19   61 1   
    46   20   21 ar  
    47   20   22 1   
    48   21   62 1   
    49   22   23 1   
    50   22   63 1   
    51   22   64 1   
    52   23   24 1   
    53   24   65 1   
    54   24   66 1   
    55   24   67 1   
    56   25   26 2   
    57   27   28 1   
    58   27   29 1   
    59   27   68 1   
    60   28   69 1   
    61   29   30 1   
    62   29   70 1   
    63   29   71 1   
    64   30   31 1   
    65   30   72 1   
    66   30   90 1   
    67   31   32 1   
    68   31   33 1   
    69   31   34 1   
    70   32   33 1   
    71   32   73 1   
    72   32   74 1   
    73   33   75 1   
    74   33   76 1   
    75   34   35 ar  
    76   34   39 ar  
    77   35   36 ar  
    78   35   77 1   
    79   36   37 ar  
    80   36   40 1   
    81   37   38 ar  
    82   37   78 1   
    83   38   39 ar  
    84   38   79 1   
    85   39   80 1   
    86   40   41 1   
    87   40   42 1   
    88   40   81 1   
    89   41   82 1   
    90   41   83 1   
    91   41   84 1   
    92   42   85 1   
    93   42   86 1   
    94   42   87 1   
@<TRIPOS>SUBSTRUCTURE
     1 0BI         1 TEMP              0 ****  ****    0 ROOT
