@<TRIPOS>MOLECULE
0BI
   89    93     1     0     0
SMALL
bcc


@<TRIPOS>ATOM
      1 N1          0.2380   -0.7580    0.3360 n4        1 0BI     -0.688800
      2 C3          1.6540   -0.6700   -0.1670 c3        1 0BI      0.117500
      3 C5          2.4960    0.1950    0.7880 c3        1 0BI     -0.055100
      4 C8          1.8310    1.4920    1.0960 ca        1 0BI     -0.135300
      5 C9          1.0180    1.5950    2.2290 ca        1 0BI     -0.202000
      6 C11         0.4180    2.8280    2.5460 ca        1 0BI      0.154100
      7 C12         0.6340    3.9490    1.7280 ca        1 0BI     -0.160000
      8 C14         1.4420    3.8260    0.6010 ca        1 0BI     -0.074000
      9 C16         2.0370    2.6050    0.2770 ca        1 0BI     -0.146000
     10 O18        -0.2760    2.8360    3.7320 os        1 0BI     -0.327900
     11 C19        -1.3950    3.7230    3.8670 c3        1 0BI      0.126400
     12 C22        -2.6860    2.9930    3.5410 c3        1 0BI     -0.113400
     13 C25        -2.9190    2.8740    2.0510 c3        1 0BI     -0.114400
     14 C28        -4.0740    1.9070    1.7800 c3        1 0BI      0.206800
     15 N31        -4.4220    1.7180    0.4010 nh        1 0BI     -0.757600
     16 C33        -3.6740    0.9750   -0.4870 ca        1 0BI      0.220600
     17 C34        -2.5390    0.2310   -0.0950 ca        1 0BI     -0.216000
     18 C36        -1.8840   -0.5860   -1.0320 ca        1 0BI     -0.163600
     19 C37        -2.3290   -0.6880   -2.3520 ca        1 0BI     -0.069000
     20 C39        -3.4310    0.0810   -2.7590 ca        1 0BI     -0.031300
     21 C40        -4.0860    0.9020   -1.8550 ca        1 0BI     -0.132000
     22 C42        -3.9270    0.0040   -4.1690 c3        1 0BI      0.160700
     23 O45        -2.8850   -0.5300   -4.9840 os        1 0BI     -0.441600
     24 C46        -3.2840   -0.6750   -6.3420 c3        1 0BI      0.113700
     25 C50        -0.7240   -1.3890   -0.6650 c         1 0BI      0.602700
     26 O51        -0.3850   -2.5020   -1.0550 o         1 0BI     -0.485100
     27 C52         2.2650   -2.0800   -0.4070 c3        1 0BI      0.110100
     28 O54         1.8690   -2.9890    0.6060 oh        1 0BI     -0.615800
     29 C56         3.8050   -2.0360   -0.3730 c3        1 0BI      0.100800
     30 N59         4.4040   -3.3810   -0.6040 n4        1 0BI     -0.724000
     31 C61         5.9000   -3.3370   -0.5960 cx        1 0BI      0.071500
     32 C62         6.6250   -3.1510    0.7270 cx        1 0BI     -0.089900
     33 C65         6.6390   -4.4930    0.0670 cx        1 0BI     -0.089900
     34 C68         6.4350   -2.7420   -1.8400 ca        1 0BI     -0.151300
     35 C69         6.9270   -1.4310   -1.8420 ca        1 0BI     -0.114000
     36 C71         7.4760   -0.8840   -3.0060 ca        1 0BI     -0.052300
     37 C72         7.5170   -1.6630   -4.1720 ca        1 0BI     -0.077000
     38 C74         7.0220   -2.9670   -4.1720 ca        1 0BI     -0.111000
     39 C76         6.4810   -3.5120   -3.0090 ca        1 0BI     -0.118000
     40 C78         8.0260    0.5090   -2.9960 c3        1 0BI     -0.032400
     41 C80         9.5150    0.5010   -3.2890 c3        1 0BI     -0.093100
     42 C84         7.2940    1.3910   -3.9890 c3        1 0BI     -0.093100
     43 HN1         0.2420   -1.3170    1.1990 hn        1 0BI      0.475800
     44 H3          1.6040   -0.1460   -1.1710 hx        1 0BI      0.117700
     45 H5          3.4800    0.3990    0.2840 hc        1 0BI      0.085700
     46 H5A         2.6960   -0.3730    1.7370 hc        1 0BI      0.085700
     47 H9          0.8940    0.7520    2.9250 ha        1 0BI      0.146000
     48 H12         0.1990    4.9290    1.9810 ha        1 0BI      0.167000
     49 H14         1.6260    4.7080   -0.0350 ha        1 0BI      0.164000
     50 H16         2.6840    2.5340   -0.6090 ha        1 0BI      0.140000
     51 H19        -1.3650    3.9900    4.9620 h1        1 0BI      0.077700
     52 H19A       -1.2810    4.6490    3.2520 h1        1 0BI      0.077700
     53 H22        -2.6560    1.9740    4.0100 hc        1 0BI      0.070700
     54 H22A       -3.5350    3.5560    4.0130 hc        1 0BI      0.070700
     55 H25        -3.1510    3.8830    1.6200 hc        1 0BI      0.044700
     56 H25A       -1.9820    2.5070    1.5530 hc        1 0BI      0.044700
     57 H28        -3.8280    0.9040    2.2350 h1        1 0BI      0.068200
     58 H28A       -4.9970    2.2960    2.3020 h1        1 0BI      0.068200
     59 HN31       -5.0810    2.3560    0.0130 hn        1 0BI      0.448800
     60 H34        -2.2150    0.2560    0.9550 ha        1 0BI      0.133000
     61 H37        -1.8290   -1.3500   -3.0790 ha        1 0BI      0.180000
     62 H40        -4.9520    1.4970   -2.1950 ha        1 0BI      0.166000
     63 H42        -4.8280   -0.6690   -4.2170 h1        1 0BI      0.063200
     64 H42A       -4.2090    1.0260   -4.5440 h1        1 0BI      0.063200
     65 H46        -4.1440   -1.3840   -6.4230 h1        1 0BI      0.049367
     66 H46A       -2.3790   -1.0920   -6.8490 h1        1 0BI      0.049367
     67 H46B       -3.5580    0.3180   -6.7770 h1        1 0BI      0.049367
     68 H52         1.9150   -2.4370   -1.4210 h1        1 0BI      0.091700
     69 HO54        1.1220   -3.5120    0.2710 ho        1 0BI      0.456000
     70 H56         4.1640   -1.6900    0.6400 hx        1 0BI      0.125200
     71 H56A        4.1910   -1.3330   -1.1670 hx        1 0BI      0.125200
     72 HN59        4.0690   -4.0220    0.1280 hn        1 0BI      0.456800
     73 H62         7.5420   -2.5270    0.7190 hc        1 0BI      0.113700
     74 H62A        6.0470   -3.0190    1.6610 hc        1 0BI      0.113700
     75 H65         6.0760   -5.3280    0.5250 hc        1 0BI      0.113700
     76 H65A        7.5620   -4.8490   -0.4350 hc        1 0BI      0.113700
     77 H69         6.9090   -0.8370   -0.9140 ha        1 0BI      0.135000
     78 H72         7.9570   -1.2420   -5.0930 ha        1 0BI      0.167000
     79 H74         7.0710   -3.5740   -5.0910 ha        1 0BI      0.165000
     80 H76         6.1220   -4.5520   -3.0060 ha        1 0BI      0.137000
     81 H78         7.8780    0.9460   -1.9650 hc        1 0BI      0.051700
     82 H80        10.0590   -0.1250   -2.5430 hc        1 0BI      0.047367
     83 H80A        9.9140    1.5440   -3.2390 hc        1 0BI      0.047367
     84 H80B        9.7160    0.0950   -4.3100 hc        1 0BI      0.047367
     85 H84         6.2020    1.4210   -3.7600 hc        1 0BI      0.047367
     86 H84A        7.4300    1.0140   -5.0310 hc        1 0BI      0.047367
     87 H84B        7.6970    2.4320   -3.9370 hc        1 0BI      0.047367
     88 H121       -0.0810    0.2010    0.5660 hn        1 0BI      0.475800
     89 H592        4.1100   -3.7410   -1.5210 hn        1 0BI      0.456800
@<TRIPOS>BOND
     1    1    2 1   
     2    1   25 1   
     3    1   43 1   
     4    1   88 1   
     5    2    3 1   
     6    2   27 1   
     7    2   44 1   
     8    3    4 1   
     9    3   45 1   
    10    3   46 1   
    11    4    5 ar  
    12    4    9 ar  
    13    5    6 ar  
    14    5   47 1   
    15    6    7 ar  
    16    6   10 1   
    17    7    8 ar  
    18    7   48 1   
    19    8    9 ar  
    20    8   49 1   
    21    9   50 1   
    22   10   11 1   
    23   11   12 1   
    24   11   51 1   
    25   11   52 1   
    26   12   13 1   
    27   12   53 1   
    28   12   54 1   
    29   13   14 1   
    30   13   55 1   
    31   13   56 1   
    32   14   15 1   
    33   14   57 1   
    34   14   58 1   
    35   15   16 1   
    36   15   59 1   
    37   16   17 ar  
    38   16   21 ar  
    39   17   18 ar  
    40   17   60 1   
    41   18   19 ar  
    42   18   25 1   
    43   19   20 ar  
    44   19   61 1   
    45   20   21 ar  
    46   20   22 1   
    47   21   62 1   
    48   22   23 1   
    49   22   63 1   
    50   22   64 1   
    51   23   24 1   
    52   24   65 1   
    53   24   66 1   
    54   24   67 1   
    55   25   26 2   
    56   27   28 1   
    57   27   29 1   
    58   27   68 1   
    59   28   69 1   
    60   29   30 1   
    61   29   70 1   
    62   29   71 1   
    63   30   31 1   
    64   30   72 1   
    65   30   89 1   
    66   31   32 1   
    67   31   33 1   
    68   31   34 1   
    69   32   33 1   
    70   32   73 1   
    71   32   74 1   
    72   33   75 1   
    73   33   76 1   
    74   34   35 ar  
    75   34   39 ar  
    76   35   36 ar  
    77   35   77 1   
    78   36   37 ar  
    79   36   40 1   
    80   37   38 ar  
    81   37   78 1   
    82   38   39 ar  
    83   38   79 1   
    84   39   80 1   
    85   40   41 1   
    86   40   42 1   
    87   40   81 1   
    88   41   82 1   
    89   41   83 1   
    90   41   84 1   
    91   42   85 1   
    92   42   86 1   
    93   42   87 1   
@<TRIPOS>SUBSTRUCTURE
     1 0BI         1 TEMP              0 ****  ****    0 ROOT
