@<TRIPOS>MOLECULE
0BI
   87    91     1     0     0
SMALL
bcc


@<TRIPOS>ATOM
      1 N1          1.3330   -0.0400    0.6340 n         1 0BI     -0.558900
      2 C3         -0.0500   -0.4530    0.7020 c3        1 0BI      0.076700
      3 C5         -0.1890   -1.8350    1.3730 c3        1 0BI     -0.049100
      4 C8          0.1920   -2.9650    0.4820 ca        1 0BI     -0.055300
      5 C9          1.5370   -3.2650    0.2450 ca        1 0BI     -0.166000
      6 C11         1.8680   -4.3720   -0.5460 ca        1 0BI      0.112100
      7 C12         0.8690   -5.1870   -1.1030 ca        1 0BI     -0.143000
      8 C14        -0.4650   -4.8740   -0.8620 ca        1 0BI     -0.107000
      9 C16        -0.8050   -3.7710   -0.0800 ca        1 0BI     -0.149000
     10 O18         3.1740   -4.7820   -0.7660 os        1 0BI     -0.338900
     11 C19         4.1070   -3.7400   -1.0700 c3        1 0BI      0.126400
     12 C22         4.9840   -3.4470    0.1370 c3        1 0BI     -0.105400
     13 C25         5.9790   -2.3530   -0.1900 c3        1 0BI     -0.121400
     14 C28         6.3310   -1.5180    1.0470 c3        1 0BI      0.180800
     15 N31         6.5860   -0.1140    0.8340 nh        1 0BI     -0.718600
     16 C33         5.5830    0.6800    0.2440 ca        1 0BI      0.128600
     17 C34         4.2330    0.2720    0.1940 ca        1 0BI     -0.165000
     18 C36         3.2610    1.1210   -0.3400 ca        1 0BI     -0.109600
     19 C37         3.6010    2.3800   -0.8310 ca        1 0BI     -0.119000
     20 C39         4.9360    2.8010   -0.7740 ca        1 0BI     -0.061300
     21 C40         5.9170    1.9660   -0.2490 ca        1 0BI     -0.137000
     22 C42         5.2630    4.1660   -1.2860 c3        1 0BI      0.170700
     23 O45         6.6770    4.2800   -1.4540 os        1 0BI     -0.423600
     24 C46         7.0570    5.5540   -1.9460 c3        1 0BI      0.116700
     25 C50         1.8370    0.6780   -0.4390 c         1 0BI      0.668700
     26 O51         1.1460    0.9120   -1.4500 o         1 0BI     -0.598100
     27 C52        -0.9200    0.5980    1.4490 c3        1 0BI      0.100100
     28 O54        -0.6510    0.6130    2.8390 oh        1 0BI     -0.599800
     29 C56        -2.4150    0.3720    1.1680 c3        1 0BI      0.132800
     30 N59        -3.2300    1.4780    1.6370 n3        1 0BI     -0.785200
     31 C61        -4.6420    1.1730    1.6950 cx        1 0BI      0.178500
     32 C62        -5.1500    0.1480    2.7170 cx        1 0BI     -0.143900
     33 C65        -5.4310    1.6000    2.9320 cx        1 0BI     -0.143900
     34 C68        -5.3660    1.2730    0.3930 ca        1 0BI     -0.039300
     35 C69        -6.7000    0.8480    0.3000 ca        1 0BI     -0.134000
     36 C71        -7.4060    0.9360   -0.9030 ca        1 0BI     -0.076300
     37 C72        -6.7740    1.4660   -2.0330 ca        1 0BI     -0.125000
     38 C74        -5.4560    1.9050   -1.9470 ca        1 0BI     -0.133000
     39 C76        -4.7540    1.8150   -0.7460 ca        1 0BI     -0.108000
     40 C78        -8.8270    0.4690   -0.9700 c3        1 0BI     -0.022400
     41 C80        -9.7590    1.6100   -1.3310 c3        1 0BI     -0.088100
     42 C84        -8.9780   -0.6730   -1.9580 c3        1 0BI     -0.088100
     43 HN1         1.8230   -0.0020    1.4980 hn        1 0BI      0.313500
     44 H3         -0.4420   -0.5200   -0.3580 h1        1 0BI      0.103700
     45 H5          0.4340   -1.8730    2.3080 hc        1 0BI      0.053200
     46 H5A        -1.2600   -1.9610    1.6860 hc        1 0BI      0.053200
     47 H9          2.3290   -2.6350    0.6740 ha        1 0BI      0.139000
     48 H12         1.1530   -6.0570   -1.7120 ha        1 0BI      0.149000
     49 H14        -1.2580   -5.5020   -1.2960 ha        1 0BI      0.135000
     50 H16        -1.8650   -3.5360    0.0970 ha        1 0BI      0.132000
     51 H19         4.7220   -4.1620   -1.9100 h1        1 0BI      0.058200
     52 H19A        3.5810   -2.8130   -1.4190 h1        1 0BI      0.058200
     53 H22         4.3300   -3.1500    0.9990 hc        1 0BI      0.053200
     54 H22A        5.5180   -4.3830    0.4450 hc        1 0BI      0.053200
     55 H25         6.9130   -2.8060   -0.6120 hc        1 0BI      0.052200
     56 H25A        5.5530   -1.6880   -0.9910 hc        1 0BI      0.052200
     57 H28         5.5000   -1.5940    1.8060 h1        1 0BI      0.056200
     58 H28A        7.2570   -1.9490    1.5250 h1        1 0BI      0.056200
     59 HN31        7.4890    0.0670    0.4420 hn        1 0BI      0.395800
     60 H34         3.9440   -0.7290    0.5510 ha        1 0BI      0.139000
     61 H37         2.8260    3.0240   -1.2740 ha        1 0BI      0.152000
     62 H40         6.9620    2.3180   -0.2260 ha        1 0BI      0.157000
     63 H42         4.7560    4.3440   -2.2740 h1        1 0BI      0.042200
     64 H42A        4.9130    4.9420   -0.5500 h1        1 0BI      0.042200
     65 H46         6.5990    5.7420   -2.9480 h1        1 0BI      0.035033
     66 H46A        6.7540    6.3590   -1.2310 h1        1 0BI      0.035033
     67 H46B        8.1710    5.4990   -2.0270 h1        1 0BI      0.035033
     68 H52        -0.6240    1.6350    1.1080 h1        1 0BI      0.102700
     69 HO54       -0.9390   -0.2330    3.2030 ho        1 0BI      0.396000
     70 H56        -2.5690    0.2880    0.0550 h1        1 0BI      0.044200
     71 H56A       -2.7340   -0.6080    1.6330 h1        1 0BI      0.044200
     72 HN59       -2.9060    1.7940    2.5340 hn        1 0BI      0.373800
     73 H62        -5.9660   -0.5400    2.4390 hc        1 0BI      0.075450
     74 H62A       -4.4130   -0.3500    3.3730 hc        1 0BI      0.075450
     75 H65        -4.9120    2.1340    3.7490 hc        1 0BI      0.075450
     76 H65A       -6.4560    1.9830    2.7790 hc        1 0BI      0.075450
     77 H69        -7.2160    0.4440    1.1840 ha        1 0BI      0.128000
     78 H72        -7.3200    1.5380   -2.9850 ha        1 0BI      0.131000
     79 H74        -4.9610    2.3300   -2.8330 ha        1 0BI      0.132000
     80 H76        -3.7190    2.1880   -0.7080 ha        1 0BI      0.152000
     81 H78        -9.1290    0.0860    0.0490 hc        1 0BI      0.047700
     82 H80        -9.5120    2.0150   -2.3420 hc        1 0BI      0.036033
     83 H80A      -10.8160    1.2510   -1.3420 hc        1 0BI      0.036033
     84 H80B       -9.6690    2.4370   -0.5870 hc        1 0BI      0.036033
     85 H84        -8.3150   -1.5240   -1.6730 hc        1 0BI      0.036033
     86 H84A      -10.0360   -1.0310   -1.9690 hc        1 0BI      0.036033
     87 H84B       -8.7050   -0.3410   -2.9880 hc        1 0BI      0.036033
@<TRIPOS>BOND
     1    1    2 1   
     2    1   25 1   
     3    1   43 1   
     4    2    3 1   
     5    2   27 1   
     6    2   44 1   
     7    3    4 1   
     8    3   45 1   
     9    3   46 1   
    10    4    5 ar  
    11    4    9 ar  
    12    5    6 ar  
    13    5   47 1   
    14    6    7 ar  
    15    6   10 1   
    16    7    8 ar  
    17    7   48 1   
    18    8    9 ar  
    19    8   49 1   
    20    9   50 1   
    21   10   11 1   
    22   11   12 1   
    23   11   51 1   
    24   11   52 1   
    25   12   13 1   
    26   12   53 1   
    27   12   54 1   
    28   13   14 1   
    29   13   55 1   
    30   13   56 1   
    31   14   15 1   
    32   14   57 1   
    33   14   58 1   
    34   15   16 1   
    35   15   59 1   
    36   16   17 ar  
    37   16   21 ar  
    38   17   18 ar  
    39   17   60 1   
    40   18   19 ar  
    41   18   25 1   
    42   19   20 ar  
    43   19   61 1   
    44   20   21 ar  
    45   20   22 1   
    46   21   62 1   
    47   22   23 1   
    48   22   63 1   
    49   22   64 1   
    50   23   24 1   
    51   24   65 1   
    52   24   66 1   
    53   24   67 1   
    54   25   26 2   
    55   27   28 1   
    56   27   29 1   
    57   27   68 1   
    58   28   69 1   
    59   29   30 1   
    60   29   70 1   
    61   29   71 1   
    62   30   31 1   
    63   30   72 1   
    64   31   32 1   
    65   31   33 1   
    66   31   34 1   
    67   32   33 1   
    68   32   73 1   
    69   32   74 1   
    70   33   75 1   
    71   33   76 1   
    72   34   35 ar  
    73   34   39 ar  
    74   35   36 ar  
    75   35   77 1   
    76   36   37 ar  
    77   36   40 1   
    78   37   38 ar  
    79   37   78 1   
    80   38   39 ar  
    81   38   79 1   
    82   39   80 1   
    83   40   41 1   
    84   40   42 1   
    85   40   81 1   
    86   41   82 1   
    87   41   83 1   
    88   41   84 1   
    89   42   85 1   
    90   42   86 1   
    91   42   87 1   
@<TRIPOS>SUBSTRUCTURE
     1 0BI         1 TEMP              0 ****  ****    0 ROOT
