@<TRIPOS>MOLECULE
0BI
   89    93     1     0     0
SMALL
bcc


@<TRIPOS>ATOM
      1 N1          0.2340   -0.7430    0.3420 ny        1 0BI     -0.688800
      2 C3          1.6500   -0.6670   -0.1600 c3        1 0BI      0.117500
      3 C5          2.4980    0.1930    0.7920 c3        1 0BI     -0.055100
      4 C8          1.8440    1.4960    1.0970 ca        1 0BI     -0.135300
      5 C9          1.0310    1.6070    2.2310 ca        1 0BI     -0.202000
      6 C11         0.4400    2.8450    2.5440 ca        1 0BI      0.154100
      7 C12         0.6650    3.9630    1.7250 ca        1 0BI     -0.160000
      8 C14         1.4730    3.8330    0.5990 ca        1 0BI     -0.074000
      9 C16         2.0590    2.6060    0.2780 ca        1 0BI     -0.146000
     10 O18        -0.2540    2.8600    3.7300 os        1 0BI     -0.327900
     11 C19        -1.3670    3.7570    3.8630 c3        1 0BI      0.126400
     12 C22        -2.6630    3.0370    3.5370 c3        1 0BI     -0.113400
     13 C25        -2.8960    2.9170    2.0470 c3        1 0BI     -0.114400
     14 C28        -4.0590    1.9580    1.7780 c3        1 0BI      0.206800
     15 N31        -4.4070    1.7690    0.3990 nu        1 0BI     -0.757600
     16 C33        -3.6640    1.0180   -0.4870 ca        1 0BI      0.220600
     17 C34        -2.5360    0.2650   -0.0930 ca        1 0BI     -0.216000
     18 C36        -1.8860   -0.5590   -1.0270 ca        1 0BI     -0.163600
     19 C37        -2.3310   -0.6600   -2.3470 ca        1 0BI     -0.069000
     20 C39        -3.4260    0.1170   -2.7570 ca        1 0BI     -0.031300
     21 C40        -4.0760    0.9450   -1.8550 ca        1 0BI     -0.132000
     22 C42        -3.9210    0.0410   -4.1680 c3        1 0BI      0.160700
     23 O45        -2.8820   -0.5030   -4.9800 os        1 0BI     -0.441600
     24 C46        -3.2800   -0.6460   -6.3380 c3        1 0BI      0.113700
     25 C50        -0.7330   -1.3700   -0.6560 c         1 0BI      0.602700
     26 O51        -0.4030   -2.4870   -1.0420 o         1 0BI     -0.485100
     27 C52         2.2500   -2.0830   -0.3970 c3        1 0BI      0.110100
     28 O54         1.8490   -2.9850    0.6190 oh        1 0BI     -0.615800
     29 C56         3.7910   -2.0500   -0.3650 c3        1 0BI      0.100800
     30 N59         4.3790   -3.4000   -0.5930 ny        1 0BI     -0.724000
     31 C61         5.8750   -3.3670   -0.5880 cx        1 0BI      0.071500
     32 C62         6.6050   -3.1820    0.7330 cx        1 0BI     -0.089900
     33 C65         6.6080   -4.5260    0.0770 cx        1 0BI     -0.089900
     34 C68         6.4120   -2.7800   -1.8360 ca        1 0BI     -0.151300
     35 C69         6.9130   -1.4740   -1.8430 ca        1 0BI     -0.114000
     36 C71         7.4630   -0.9350   -3.0110 ca        1 0BI     -0.052300
     37 C72         7.4950   -1.7190   -4.1750 ca        1 0BI     -0.077000
     38 C74         6.9900   -3.0180   -4.1690 ca        1 0BI     -0.111000
     39 C76         6.4480   -3.5550   -3.0020 ca        1 0BI     -0.118000
     40 C78         8.0240    0.4530   -3.0070 c3        1 0BI     -0.032400
     41 C80         9.5130    0.4330   -3.3050 c3        1 0BI     -0.093100
     42 C84         7.2960    1.3380   -4.0010 c3        1 0BI     -0.093100
     43 HN1        -0.0780    0.2180    0.5700 hn        1 0BI      0.475800
     44 H3          1.6040   -0.1460   -1.1650 hx        1 0BI      0.117700
     45 H5          2.6950   -0.3740    1.7420 hc        1 0BI      0.085700
     46 H5A         3.4840    0.3890    0.2880 hc        1 0BI      0.085700
     47 H9          0.9000    0.7660    2.9270 ha        1 0BI      0.146000
     48 H12         0.2380    4.9460    1.9760 ha        1 0BI      0.167000
     49 H14         1.6650    4.7120   -0.0380 ha        1 0BI      0.164000
     50 H16         2.7070    2.5280   -0.6080 ha        1 0BI      0.140000
     51 H19        -1.3350    4.0250    4.9570 h1        1 0BI      0.077700
     52 H19A       -1.2450    4.6800    3.2470 h1        1 0BI      0.077700
     53 H22        -2.6420    2.0180    4.0080 hc        1 0BI      0.070700
     54 H22A       -3.5080    3.6070    4.0080 hc        1 0BI      0.070700
     55 H25        -3.1210    3.9270    1.6150 hc        1 0BI      0.044700
     56 H25A       -1.9620    2.5410    1.5510 hc        1 0BI      0.044700
     57 H28        -3.8210    0.9540    2.2350 h1        1 0BI      0.068200
     58 H28A       -4.9790    2.3560    2.2970 h1        1 0BI      0.068200
     59 HN31       -5.0600    2.4110    0.0080 hn        1 0BI      0.448800
     60 H34        -2.2130    0.2900    0.9580 ha        1 0BI      0.133000
     61 H37        -1.8360   -1.3290   -3.0710 ha        1 0BI      0.180000
     62 H40        -4.9360    1.5460   -2.1980 ha        1 0BI      0.166000
     63 H42        -4.8270   -0.6250   -4.2150 h1        1 0BI      0.063200
     64 H42A       -4.1940    1.0640   -4.5450 h1        1 0BI      0.063200
     65 H46        -2.3770   -1.0720   -6.8430 h1        1 0BI      0.049367
     66 H46A       -3.5440    0.3480   -6.7750 h1        1 0BI      0.049367
     67 H46B       -4.1460   -1.3480   -6.4200 h1        1 0BI      0.049367
     68 H52         1.8960   -2.4400   -1.4100 h1        1 0BI      0.091700
     69 HO54        1.0980   -3.5040    0.2870 ho        1 0BI      0.456000
     70 H56         4.1810   -1.3530   -1.1620 hx        1 0BI      0.125200
     71 H56A        4.1530   -1.7040    0.6460 hx        1 0BI      0.125200
     72 HN59        4.0800   -3.7620   -1.5070 hn        1 0BI      0.456800
     73 H62         7.5260   -2.5640    0.7190 hc        1 0BI      0.113700
     74 H62A        6.0300   -3.0410    1.6680 hc        1 0BI      0.113700
     75 H65         6.0400   -5.3550    0.5400 hc        1 0BI      0.113700
     76 H65A        7.5270   -4.8910   -0.4250 hc        1 0BI      0.113700
     77 H69         6.9040   -0.8770   -0.9180 ha        1 0BI      0.135000
     78 H72         7.9360   -1.3040   -5.0980 ha        1 0BI      0.167000
     79 H74         7.0320   -3.6280   -5.0860 ha        1 0BI      0.165000
     80 H76         6.0810   -4.5930   -2.9950 ha        1 0BI      0.137000
     81 H78         7.8830    0.8960   -1.9780 hc        1 0BI      0.051700
     82 H80         9.9200    1.4730   -3.2590 hc        1 0BI      0.047367
     83 H80A        9.7070    0.0230   -4.3250 hc        1 0BI      0.047367
     84 H80B       10.0540   -0.1950   -2.5580 hc        1 0BI      0.047367
     85 H84         7.4260    0.9560   -5.0430 hc        1 0BI      0.047367
     86 H84A        7.7080    2.3760   -3.9540 hc        1 0BI      0.047367
     87 H84B        6.2050    1.3770   -3.7690 hc        1 0BI      0.047367
     88 H121        0.2330   -1.3000    1.2080 hn        1 0BI      0.475800
     89 H592        4.0410   -4.0360    0.1430 hn        1 0BI      0.456800
@<TRIPOS>BOND
     1    1    2 1   
     2    1   25 1   
     3    1   43 1   
     4    1   88 1   
     5    2    3 1   
     6    2   27 1   
     7    2   44 1   
     8    3    4 1   
     9    3   45 1   
    10    3   46 1   
    11    4    5 ar  
    12    4    9 ar  
    13    5    6 ar  
    14    5   47 1   
    15    6    7 ar  
    16    6   10 1   
    17    7    8 ar  
    18    7   48 1   
    19    8    9 ar  
    20    8   49 1   
    21    9   50 1   
    22   10   11 1   
    23   11   12 1   
    24   11   51 1   
    25   11   52 1   
    26   12   13 1   
    27   12   53 1   
    28   12   54 1   
    29   13   14 1   
    30   13   55 1   
    31   13   56 1   
    32   14   15 1   
    33   14   57 1   
    34   14   58 1   
    35   15   16 1   
    36   15   59 1   
    37   16   17 ar  
    38   16   21 ar  
    39   17   18 ar  
    40   17   60 1   
    41   18   19 ar  
    42   18   25 1   
    43   19   20 ar  
    44   19   61 1   
    45   20   21 ar  
    46   20   22 1   
    47   21   62 1   
    48   22   23 1   
    49   22   63 1   
    50   22   64 1   
    51   23   24 1   
    52   24   65 1   
    53   24   66 1   
    54   24   67 1   
    55   25   26 2   
    56   27   28 1   
    57   27   29 1   
    58   27   68 1   
    59   28   69 1   
    60   29   30 1   
    61   29   70 1   
    62   29   71 1   
    63   30   31 1   
    64   30   72 1   
    65   30   89 1   
    66   31   32 1   
    67   31   33 1   
    68   31   34 1   
    69   32   33 1   
    70   32   73 1   
    71   32   74 1   
    72   33   75 1   
    73   33   76 1   
    74   34   35 ar  
    75   34   39 ar  
    76   35   36 ar  
    77   35   77 1   
    78   36   37 ar  
    79   36   40 1   
    80   37   38 ar  
    81   37   78 1   
    82   38   39 ar  
    83   38   79 1   
    84   39   80 1   
    85   40   41 1   
    86   40   42 1   
    87   40   81 1   
    88   41   82 1   
    89   41   83 1   
    90   41   84 1   
    91   42   85 1   
    92   42   86 1   
    93   42   87 1   
@<TRIPOS>SUBSTRUCTURE
     1 0BI         1 TEMP              0 ****  ****    0 ROOT
