@<TRIPOS>MOLECULE
0BM
   70    72     1     0     0
SMALL
bcc


@<TRIPOS>ATOM
      1 S10        -0.3010    0.2840   -0.0860 s6        1 0BM      1.428900
      2 O11         0.4900    0.9380   -1.0050 o         1 0BM     -0.560300
      3 O12         0.2230   -0.1870    1.0940 o         1 0BM     -0.560300
      4 C13        -1.8360    0.8190    0.0050 c3        1 0BM     -0.489300
      5 N9         -0.6420   -1.3870   -0.9800 ny        1 0BM     -0.710900
      6 C8          0.1230   -1.6090   -2.2410 c3        1 0BM      0.069500
      7 C15         1.3970   -2.4370   -1.9700 c         1 0BM      0.660100
      8 O16         1.4220   -3.2810   -1.0510 o         1 0BM     -0.600100
      9 C7         -0.7050   -2.3670   -3.3010 c3        1 0BM     -0.042100
     10 C6         -2.0060   -1.6960   -3.5550 ca        1 0BM     -0.179300
     11 C1         -3.1860   -2.2270   -3.0180 ca        1 0BM     -0.134500
     12 C5         -2.0710   -0.5710   -4.3880 ca        1 0BM     -0.134500
     13 C2         -4.4160   -1.6370   -3.3110 ca        1 0BM     -0.112000
     14 C4         -3.3010    0.0160   -4.6770 ca        1 0BM     -0.112000
     15 C3         -4.4750   -0.5160   -4.1400 ca        1 0BM     -0.087000
     16 N17         2.5110   -2.2420   -2.7580 n         1 0BM     -0.453800
     17 C21         3.6290   -3.1600   -2.7160 c3        1 0BM      0.063700
     18 C22         4.4980   -2.9640   -1.4590 c         1 0BM      0.525100
     19 O23         4.5500   -2.0190   -0.6970 o         1 0BM     -0.378100
     20 C20         4.4950   -2.8840   -3.9720 c3        1 0BM     -0.092400
     21 C19         3.9140   -1.6320   -4.6250 c3        1 0BM     -0.093400
     22 C18         2.6380   -1.2770   -3.8450 c3        1 0BM      0.078000
     23 N24         5.4180   -4.1410   -1.1390 ny        1 0BM     -0.683800
     24 C25         6.7630   -3.7020   -0.6570 c3        1 0BM      0.101800
     25 C26         7.6860   -4.8590   -0.2590 c3        1 0BM     -0.091700
     26 C27         7.3250   -5.4390    1.0990 c3        1 0BM     -0.116900
     27 C28         8.3170   -6.5350    1.5020 c3        1 0BM      0.173800
     28 N29         9.7250   -6.1910    1.3940 nh        1 0BM     -0.754600
     29 C30        10.0830   -5.4590    0.1880 c3        1 0BM      0.173800
     30 C31         9.1210   -4.3420   -0.2210 c3        1 0BM     -0.116900
     31 C32        10.3440   -5.7270    2.6090 c2        1 0BM      0.671100
     32 N33        11.6120   -6.5120    2.9060 nz        1 0BM     -0.809600
     33 N34        10.0370   -4.8450    3.4900 n2        1 0BM     -0.702100
     34 H113       -1.9100    1.8430    0.4960 h1        1 0BM      0.192033
     35 H213       -2.5450    0.2020    0.6290 h1        1 0BM      0.192033
     36 H313       -2.3740    0.9830   -0.9740 h1        1 0BM      0.192033
     37 HN9        -0.4210   -2.1520   -0.3300 hn        1 0BM      0.469300
     38 H8          0.3920   -0.5870   -2.6560 hx        1 0BM      0.139700
     39 H17        -0.1010   -2.4000   -4.2480 hc        1 0BM      0.090200
     40 H27        -0.8680   -3.4270   -2.9640 hc        1 0BM      0.090200
     41 H1         -3.1560   -3.1420   -2.4050 ha        1 0BM      0.136500
     42 H5         -1.1520   -0.1650   -4.8390 ha        1 0BM      0.136500
     43 H2         -5.3450   -2.0720   -2.9050 ha        1 0BM      0.167000
     44 H4         -3.3490    0.8900   -5.3480 ha        1 0BM      0.167000
     45 H3         -5.4500   -0.0620   -4.3870 ha        1 0BM      0.173000
     46 H21         3.2370   -4.2220   -2.6950 h1        1 0BM      0.110700
     47 H120        4.4250   -3.7610   -4.6650 hc        1 0BM      0.080700
     48 H220        5.5690   -2.7320   -3.7060 hc        1 0BM      0.080700
     49 H119        3.6740   -1.8210   -5.7020 hc        1 0BM      0.098700
     50 H219        4.6410   -0.7820   -4.5840 hc        1 0BM      0.098700
     51 H118        2.7040   -0.2380   -3.4150 h1        1 0BM      0.082700
     52 H218        1.7360   -1.3350   -4.5150 h1        1 0BM      0.082700
     53 HN24        5.5270   -4.7230   -1.9760 hn        1 0BM      0.460800
     54 H125        7.2380   -3.1080   -1.4920 hx        1 0BM      0.119700
     55 H225        6.6030   -3.0120    0.2240 hx        1 0BM      0.119700
     56 H26         7.6310   -5.6780   -1.0330 hc        1 0BM      0.080700
     57 H127        6.3030   -5.9000    1.0770 hc        1 0BM      0.070950
     58 H227        7.3110   -4.6240    1.8700 hc        1 0BM      0.070950
     59 H128        8.0810   -6.8730    2.5500 h1        1 0BM      0.091950
     60 H228        8.1760   -7.4210    0.8140 h1        1 0BM      0.091950
     61 H130       11.1160   -5.0230    0.2950 h1        1 0BM      0.091950
     62 H230       10.1140   -6.2320   -0.6360 h1        1 0BM      0.091950
     63 H131        9.1950   -3.4780    0.4900 hc        1 0BM      0.070950
     64 H231        9.4320   -3.9750   -1.2350 hc        1 0BM      0.070950
     65 H133       12.2790   -6.3850    2.1370 hn        1 0BM      0.484467
     66 H233       11.3770   -7.5100    2.9870 hn        1 0BM      0.484467
     67 H134        9.2160   -4.2910    3.3580 hn        1 0BM      0.473400
     68 H92        -1.6390   -1.4740   -1.2130 hn        1 0BM      0.469300
     69 H242        4.9680   -4.7100   -0.4090 hn        1 0BM      0.460800
     70 H333       12.0390   -6.1890    3.7880 hn        1 0BM      0.484467
@<TRIPOS>BOND
     1    1    2 2   
     2    1    3 2   
     3    1    4 1   
     4    1    5 1   
     5    4   34 1   
     6    4   35 1   
     7    4   36 1   
     8    5    6 1   
     9    5   37 1   
    10    5   68 1   
    11    6    7 1   
    12    6    9 1   
    13    6   38 1   
    14    7    8 2   
    15    7   16 1   
    16    9   10 1   
    17    9   39 1   
    18    9   40 1   
    19   10   11 ar  
    20   10   12 ar  
    21   11   13 ar  
    22   11   41 1   
    23   12   14 ar  
    24   12   42 1   
    25   13   15 ar  
    26   13   43 1   
    27   14   15 ar  
    28   14   44 1   
    29   15   45 1   
    30   16   17 1   
    31   16   22 1   
    32   17   18 1   
    33   17   20 1   
    34   17   46 1   
    35   18   19 2   
    36   18   23 1   
    37   20   21 1   
    38   20   47 1   
    39   20   48 1   
    40   21   22 1   
    41   21   49 1   
    42   21   50 1   
    43   22   51 1   
    44   22   52 1   
    45   23   24 1   
    46   23   53 1   
    47   23   69 1   
    48   24   25 1   
    49   24   54 1   
    50   24   55 1   
    51   25   26 1   
    52   25   30 1   
    53   25   56 1   
    54   26   27 1   
    55   26   57 1   
    56   26   58 1   
    57   27   28 1   
    58   27   59 1   
    59   27   60 1   
    60   28   29 1   
    61   28   31 1   
    62   29   30 1   
    63   29   61 1   
    64   29   62 1   
    65   30   63 1   
    66   30   64 1   
    67   31   32 1   
    68   31   33 2   
    69   32   65 1   
    70   32   66 1   
    71   32   70 1   
    72   33   67 1   
@<TRIPOS>SUBSTRUCTURE
     1 0BM         1 TEMP              0 ****  ****    0 ROOT
