@<TRIPOS>MOLECULE
0BM
   67    69     1     0     0
SMALL
bcc


@<TRIPOS>ATOM
      1 S10         2.6220    2.2130    0.5830 s6        1 0BM      1.470900
      2 O11         3.0840    1.7060    1.8170 o         1 0BM     -0.653300
      3 O12         1.6530    3.2340    0.6280 o         1 0BM     -0.653300
      4 C13         3.9550    2.8150   -0.2820 c3        1 0BM     -0.375300
      5 N9          2.0790    1.0000   -0.3470 n3        1 0BM     -0.910100
      6 C8          2.3100   -0.3930   -0.0970 c3        1 0BM      0.190500
      7 C15         0.9620   -1.1620   -0.0350 c         1 0BM      0.646100
      8 O16         0.0910   -0.9620   -0.9100 o         1 0BM     -0.628100
      9 C7          3.1410   -1.1120   -1.1810 c3        1 0BM     -0.053100
     10 C6          4.5660   -0.6900   -1.1810 ca        1 0BM     -0.096300
     11 C1          5.0930    0.0330   -2.2560 ca        1 0BM     -0.127500
     12 C5          5.4040   -1.0460   -0.1160 ca        1 0BM     -0.127500
     13 C2          6.4390    0.3980   -2.2650 ca        1 0BM     -0.126000
     14 C4          6.7480   -0.6790   -0.1260 ca        1 0BM     -0.126000
     15 C3          7.2680    0.0440   -1.2010 ca        1 0BM     -0.126000
     16 N17         0.7380   -2.0430    0.9980 n         1 0BM     -0.452800
     17 C21        -0.4320   -2.9150    1.0290 c3        1 0BM      0.030700
     18 C22        -1.6760   -2.2470    1.6650 c         1 0BM      0.650100
     19 O23        -2.2710   -2.7860    2.6210 o         1 0BM     -0.619100
     20 C20        -0.0240   -4.1780    1.8200 c3        1 0BM     -0.088400
     21 C19         1.3090   -3.8580    2.4850 c3        1 0BM     -0.090400
     22 C18         1.7760   -2.5150    1.9000 c3        1 0BM      0.084000
     23 N24        -2.0900   -1.0530    1.1270 n         1 0BM     -0.551900
     24 C25        -3.2930   -0.3930    1.5530 c3        1 0BM      0.087000
     25 C26        -4.4910   -0.5520    0.6030 c3        1 0BM     -0.087700
     26 C27        -4.2330    0.1210   -0.7340 c3        1 0BM     -0.106900
     27 C28        -5.4810    0.0870   -1.6160 c3        1 0BM      0.178800
     28 N29        -6.7240    0.5340   -1.0060 nh        1 0BM     -0.697600
     29 C30        -6.9260   -0.0300    0.3230 c3        1 0BM      0.178800
     30 C31        -5.7230    0.0470    1.2620 c3        1 0BM     -0.106900
     31 C32        -6.9690    1.9760   -1.0570 c2        1 0BM      0.736100
     32 N33        -8.3590    2.3220   -1.0500 nh        1 0BM     -0.929800
     33 N34        -5.9870    2.8370   -1.0660 n2        1 0BM     -0.854100
     34 H113        4.6620    3.3410    0.4090 h1        1 0BM      0.119700
     35 H213        4.5650    2.0350   -0.8060 h1        1 0BM      0.119700
     36 H313        3.6590    3.5630   -1.0580 h1        1 0BM      0.119700
     37 HN9         1.4610    1.1600   -1.1110 hn        1 0BM      0.463800
     38 H8          2.8610   -0.4750    0.8920 h1        1 0BM      0.096700
     39 H17         3.0860   -2.2160   -0.9750 hc        1 0BM      0.067700
     40 H27         2.6740   -0.9350   -2.1870 hc        1 0BM      0.067700
     41 H1          4.4460    0.3080   -3.1030 ha        1 0BM      0.134000
     42 H5          4.9970   -1.6180    0.7310 ha        1 0BM      0.134000
     43 H2          6.8470    0.9630   -3.1160 ha        1 0BM      0.137000
     44 H4          7.3990   -0.9600    0.7150 ha        1 0BM      0.137000
     45 H3          8.3300    0.3310   -1.2090 ha        1 0BM      0.137000
     46 H21        -0.7240   -3.1890   -0.0290 h1        1 0BM      0.082700
     47 H120       -0.8030   -4.4410    2.5800 hc        1 0BM      0.076200
     48 H220        0.0790   -5.0380    1.1140 hc        1 0BM      0.076200
     49 H119        1.1890   -3.7700    3.5930 hc        1 0BM      0.059200
     50 H219        2.0640   -4.6550    2.2810 hc        1 0BM      0.059200
     51 H118        2.7480   -2.6450    1.3470 h1        1 0BM      0.052700
     52 H218        1.9310   -1.7550    2.7150 h1        1 0BM      0.052700
     53 HN24       -1.6760   -0.7300    0.2800 hn        1 0BM      0.333500
     54 H125       -3.5860   -0.7920    2.5670 h1        1 0BM      0.065200
     55 H225       -3.0630    0.7070    1.6570 h1        1 0BM      0.065200
     56 H26        -4.6790   -1.6490    0.4270 hc        1 0BM      0.053700
     57 H127       -3.9090    1.1810   -0.5680 hc        1 0BM      0.057700
     58 H227       -3.4080   -0.4060   -1.2800 hc        1 0BM      0.057700
     59 H128       -5.2870    0.6850   -2.5480 h1        1 0BM      0.055200
     60 H228       -5.6740   -0.9830   -1.9220 h1        1 0BM      0.055200
     61 H130       -7.8060    0.4670    0.8170 h1        1 0BM      0.055200
     62 H230       -7.1860   -1.1150    0.1580 h1        1 0BM      0.055200
     63 H131       -5.9650   -0.5120    2.2020 hc        1 0BM      0.057700
     64 H231       -5.5220    1.1150    1.5380 hc        1 0BM      0.057700
     65 H133       -8.9850    1.5600   -1.1980 hn        1 0BM      0.391300
     66 H233       -8.5760    3.1050   -1.6270 hn        1 0BM      0.391300
     67 H134       -6.2470    3.7950   -1.1630 hn        1 0BM      0.390400
@<TRIPOS>BOND
     1    1    2 2   
     2    1    3 2   
     3    1    4 1   
     4    1    5 1   
     5    4   34 1   
     6    4   35 1   
     7    4   36 1   
     8    5    6 1   
     9    5   37 1   
    10    6    7 1   
    11    6    9 1   
    12    6   38 1   
    13    7    8 2   
    14    7   16 1   
    15    9   10 1   
    16    9   39 1   
    17    9   40 1   
    18   10   11 ar  
    19   10   12 ar  
    20   11   13 ar  
    21   11   41 1   
    22   12   14 ar  
    23   12   42 1   
    24   13   15 ar  
    25   13   43 1   
    26   14   15 ar  
    27   14   44 1   
    28   15   45 1   
    29   16   17 1   
    30   16   22 1   
    31   17   18 1   
    32   17   20 1   
    33   17   46 1   
    34   18   19 2   
    35   18   23 1   
    36   20   21 1   
    37   20   47 1   
    38   20   48 1   
    39   21   22 1   
    40   21   49 1   
    41   21   50 1   
    42   22   51 1   
    43   22   52 1   
    44   23   24 1   
    45   23   53 1   
    46   24   25 1   
    47   24   54 1   
    48   24   55 1   
    49   25   26 1   
    50   25   30 1   
    51   25   56 1   
    52   26   27 1   
    53   26   57 1   
    54   26   58 1   
    55   27   28 1   
    56   27   59 1   
    57   27   60 1   
    58   28   29 1   
    59   28   31 1   
    60   29   30 1   
    61   29   61 1   
    62   29   62 1   
    63   30   63 1   
    64   30   64 1   
    65   31   32 1   
    66   31   33 2   
    67   32   65 1   
    68   32   66 1   
    69   33   67 1   
@<TRIPOS>SUBSTRUCTURE
     1 0BM         1 TEMP              0 ****  ****    0 ROOT
