@<TRIPOS>MOLECULE
0BM
   70    72     1     0     0
SMALL
bcc


@<TRIPOS>ATOM
      1 S10        -0.2680    0.3430   -0.1380 s6        1 0BM      1.428900
      2 O11         0.5240    0.9690   -1.0740 o         1 0BM     -0.560300
      3 O12         0.2570   -0.1070    1.0500 o         1 0BM     -0.560300
      4 C13        -1.7980    0.8920   -0.0510 c3        1 0BM     -0.489300
      5 N9         -0.6280   -1.3450   -0.9940 n4        1 0BM     -0.710900
      6 C8          0.1300   -1.6010   -2.2530 c3        1 0BM      0.069500
      7 C15         1.3970   -2.4330   -1.9700 c         1 0BM      0.660100
      8 O16         1.4200   -3.2570   -1.0330 o         1 0BM     -0.600100
      9 C7         -0.7110   -2.3750   -3.2920 c3        1 0BM     -0.042100
     10 C6         -2.0070   -1.6980   -3.5550 ca        1 0BM     -0.179300
     11 C1         -3.1890   -2.2070   -3.0000 ca        1 0BM     -0.134500
     12 C5         -2.0670   -0.5920   -4.4120 ca        1 0BM     -0.134500
     13 C2         -4.4150   -1.6140   -3.2990 ca        1 0BM     -0.112000
     14 C4         -3.2930   -0.0000   -4.7080 ca        1 0BM     -0.112000
     15 C3         -4.4690   -0.5110   -4.1530 ca        1 0BM     -0.087000
     16 N17         2.5090   -2.2650   -2.7670 n         1 0BM     -0.453800
     17 C21         3.6200   -3.1920   -2.7110 c3        1 0BM      0.063700
     18 C22         4.4970   -2.9770   -1.4630 c         1 0BM      0.525100
     19 O23         4.5610   -2.0160   -0.7210 o         1 0BM     -0.378100
     20 C20         4.4810   -2.9500   -3.9770 c3        1 0BM     -0.092400
     21 C19         3.9080   -1.7080   -4.6540 c3        1 0BM     -0.093400
     22 C18         2.6390   -1.3250   -3.8760 c3        1 0BM      0.078000
     23 N24         5.4080   -4.1540   -1.1210 n4        1 0BM     -0.683800
     24 C25         6.7590   -3.7170   -0.6560 c3        1 0BM      0.101800
     25 C26         7.6750   -4.8720   -0.2380 c3        1 0BM     -0.091700
     26 C27         7.3150   -5.4180    1.1350 c3        1 0BM     -0.116900
     27 C28         8.3000   -6.5140    1.5570 c3        1 0BM      0.173800
     28 N29         9.7100   -6.1850    1.4330 nh        1 0BM     -0.754600
     29 C30        10.0680   -5.4840    0.2100 c3        1 0BM      0.173800
     30 C31         9.1140   -4.3670   -0.2190 c3        1 0BM     -0.116900
     31 C32        10.3400   -5.7010    2.6340 c2        1 0BM      0.671100
     32 N33        11.6030   -6.4900    2.9420 n4        1 0BM     -0.809600
     33 N34        10.0460   -4.7970    3.4980 n2        1 0BM     -0.702100
     34 H113       -2.3400    1.0390   -1.0300 h1        1 0BM      0.192033
     35 H213       -1.8610    1.9270    0.4180 h1        1 0BM      0.192033
     36 H313       -2.5090    0.2940    0.5900 h1        1 0BM      0.192033
     37 HN9        -0.4100   -2.0970   -0.3280 hn        1 0BM      0.469300
     38 H8          0.4050   -0.5900   -2.6910 hx        1 0BM      0.139700
     39 H17        -0.8800   -3.4260   -2.9320 hc        1 0BM      0.090200
     40 H27        -0.1110   -2.4330   -4.2410 hc        1 0BM      0.090200
     41 H1         -3.1630   -3.1090   -2.3680 ha        1 0BM      0.136500
     42 H5         -1.1470   -0.2030   -4.8760 ha        1 0BM      0.136500
     43 H2         -5.3450   -2.0320   -2.8800 ha        1 0BM      0.167000
     44 H4         -3.3380    0.8590   -5.3980 ha        1 0BM      0.167000
     45 H3         -5.4420   -0.0550   -4.4050 ha        1 0BM      0.173000
     46 H21         3.2190   -4.2500   -2.6650 h1        1 0BM      0.110700
     47 H120        4.4010   -3.8410   -4.6510 hc        1 0BM      0.080700
     48 H220        5.5580   -2.8020   -3.7190 hc        1 0BM      0.080700
     49 H119        4.6430   -0.8630   -4.6340 hc        1 0BM      0.098700
     50 H219        3.6610   -1.9170   -5.7260 hc        1 0BM      0.098700
     51 H118        2.7160   -0.2780   -3.4680 h1        1 0BM      0.082700
     52 H218        1.7330   -1.3900   -4.5400 h1        1 0BM      0.082700
     53 HN24        5.5080   -4.7550   -1.9460 hn        1 0BM      0.460800
     54 H125        6.6100   -3.0060    0.2090 hx        1 0BM      0.119700
     55 H225        7.2350   -3.1460   -1.5070 hx        1 0BM      0.119700
     56 H26         7.6080   -5.7080   -0.9930 hc        1 0BM      0.080700
     57 H127        7.3130   -4.5870    1.8880 hc        1 0BM      0.070950
     58 H227        6.2900   -5.8710    1.1290 hc        1 0BM      0.070950
     59 H128        8.0660   -6.8270    2.6140 h1        1 0BM      0.091950
     60 H228        8.1470   -7.4150    0.8890 h1        1 0BM      0.091950
     61 H130       10.0880   -6.2760   -0.5970 h1        1 0BM      0.091950
     62 H230       11.1050   -5.0550    0.3010 h1        1 0BM      0.091950
     63 H131        9.4230   -4.0270   -1.2430 hc        1 0BM      0.070950
     64 H231        9.2000   -3.4890    0.4720 hc        1 0BM      0.070950
     65 H133       12.0370   -6.1520    3.8140 hn        1 0BM      0.484467
     66 H233       12.2670   -6.3860    2.1670 hn        1 0BM      0.484467
     67 H134        9.2290   -4.2390    3.3580 hn        1 0BM      0.473400
     68 H92        -1.6260   -1.4290   -1.2190 hn        1 0BM      0.469300
     69 H242        4.9570   -4.7020   -0.3770 hn        1 0BM      0.460800
     70 H333       11.3600   -7.4840    3.0460 hn        1 0BM      0.484467
@<TRIPOS>BOND
     1    1    2 2   
     2    1    3 2   
     3    1    4 1   
     4    1    5 1   
     5    4   34 1   
     6    4   35 1   
     7    4   36 1   
     8    5    6 1   
     9    5   37 1   
    10    5   68 1   
    11    6    7 1   
    12    6    9 1   
    13    6   38 1   
    14    7    8 2   
    15    7   16 1   
    16    9   10 1   
    17    9   39 1   
    18    9   40 1   
    19   10   11 ar  
    20   10   12 ar  
    21   11   13 ar  
    22   11   41 1   
    23   12   14 ar  
    24   12   42 1   
    25   13   15 ar  
    26   13   43 1   
    27   14   15 ar  
    28   14   44 1   
    29   15   45 1   
    30   16   17 1   
    31   16   22 1   
    32   17   18 1   
    33   17   20 1   
    34   17   46 1   
    35   18   19 2   
    36   18   23 1   
    37   20   21 1   
    38   20   47 1   
    39   20   48 1   
    40   21   22 1   
    41   21   49 1   
    42   21   50 1   
    43   22   51 1   
    44   22   52 1   
    45   23   24 1   
    46   23   53 1   
    47   23   69 1   
    48   24   25 1   
    49   24   54 1   
    50   24   55 1   
    51   25   26 1   
    52   25   30 1   
    53   25   56 1   
    54   26   27 1   
    55   26   57 1   
    56   26   58 1   
    57   27   28 1   
    58   27   59 1   
    59   27   60 1   
    60   28   29 1   
    61   28   31 1   
    62   29   30 1   
    63   29   61 1   
    64   29   62 1   
    65   30   63 1   
    66   30   64 1   
    67   31   32 1   
    68   31   33 2   
    69   32   65 1   
    70   32   66 1   
    71   32   70 1   
    72   33   67 1   
@<TRIPOS>SUBSTRUCTURE
     1 0BM         1 TEMP              0 ****  ****    0 ROOT
