@<TRIPOS>MOLECULE
0BM
   67    61     1     0     0
SMALL
bcc


@<TRIPOS>ATOM
      1 S10        -3.3400    2.8370    2.5800 ss        1 0BM      2.829000
      2 O11        -3.2580    4.0770    1.8620 o         1 0BM     -0.943000
      3 O12        -1.9890    2.6790    3.0190 o         1 0BM     -0.943000
      4 C13        -4.4600    2.9640    3.9640 c2        1 0BM     -0.945000
      5 N9         -3.7980    1.5930    1.5840 n2        1 0BM     -0.889000
      6 C8         -2.9910    1.2480    0.4650 c3        1 0BM      0.049000
      7 C15        -3.1500   -0.2310    0.1620 c1        1 0BM      0.292000
      8 O16        -4.1830   -0.6410   -0.3420 o         1 0BM     -0.362000
      9 C7         -3.4240    2.0620   -0.7410 c3        1 0BM     -0.119000
     10 C6         -4.6780    1.4300   -1.3640 c1        1 0BM     -0.093000
     11 C1         -5.8970    1.5200   -0.7070 c1        1 0BM     -0.134000
     12 C5         -4.6130    0.8630   -2.6290 c1        1 0BM     -0.102000
     13 C2         -7.0490    1.0450   -1.3140 c1        1 0BM     -0.134000
     14 C4         -5.7650    0.3870   -3.2360 c1        1 0BM     -0.135000
     15 C3         -6.9830    0.4780   -2.5790 c1        1 0BM     -0.127000
     16 N17        -2.0950   -1.1840    0.5560 n2        1 0BM     -0.315000
     17 C21        -0.7260   -0.8480    1.2060 c3        1 0BM     -0.004000
     18 C22         0.1320   -0.1860    0.3240 c2        1 0BM      0.276000
     19 O23        -0.2830    0.1990   -0.7500 o         1 0BM     -0.370000
     20 C20        -0.2070   -2.2830    1.6760 c3        1 0BM     -0.160000
     21 C19        -1.1980   -3.0550    1.5700 c3        1 0BM     -0.169000
     22 C18        -2.1240   -2.4590    0.4320 c3        1 0BM     -0.026000
     23 N24         1.5350   -0.0900    0.6280 n         1 0BM     -0.377000
     24 C25         2.4430    0.3480   -0.3660 c3        1 0BM     -0.026000
     25 C26         3.7920   -0.4740   -0.2500 c3        1 0BM     -0.127000
     26 C27         4.8450    0.4130    0.2780 c3        1 0BM     -0.155000
     27 C28         6.2190   -0.2350    0.2420 c3        1 0BM     -0.056500
     28 N29         6.5500   -0.7740   -1.0820 n3        1 0BM     -0.274000
     29 C30         5.5090   -1.6580   -1.6150 c3        1 0BM     -0.056500
     30 C31         4.1360   -1.0180   -1.5880 c3        1 0BM     -0.155000
     31 C32         7.9430   -0.9550   -1.4770 c2        1 0BM      0.147000
     32 N33         8.7930   -1.8090   -0.7210 n3        1 0BM     -0.332000
     33 N34         8.4110   -0.3300   -2.5300 n1        1 0BM     -0.307000
     34 H113       -4.0760    3.5640    4.6430 ha        1 0BM      0.157000
     35 H213       -5.3190    3.3240    3.6580 ha        1 0BM      0.157000
     36 H313       -4.5990    2.0780    4.3530 ha        1 0BM      0.157000
     37 HN9        -4.6050    1.1780    1.7110 hn        1 0BM      0.263000
     38 H8         -2.0590    1.4380    0.6670 h1        1 0BM      0.118000
     39 H17        -3.6250    2.9710   -0.4620 hc        1 0BM      0.112500
     40 H27        -2.6990    2.0750   -1.4060 hc        1 0BM      0.112500
     41 H1         -5.9430    1.9180    0.1810 ha        1 0BM      0.132500
     42 H5         -3.7560    0.8000   -3.0910 ha        1 0BM      0.158000
     43 H2         -7.9060    1.1080   -0.8520 ha        1 0BM      0.132500
     44 H4         -5.7190   -0.0090   -4.1190 DU        1 0BM      0.147500
     45 H3         -7.8000    0.1410   -3.0100 ha        1 0BM      0.130000
     46 H21        -0.7800   -0.2150    1.9500 h1        1 0BM      0.153000
     47 H120        0.5170   -2.5830    1.1000 hc        1 0BM      0.097000
     48 H220        0.0930   -2.2450    2.6040 hc        1 0BM      0.097000
     49 H119       -0.8960   -3.9570    1.3210 hc        1 0BM      0.095500
     50 H219       -1.6920   -3.0880    2.4240 hc        1 0BM      0.095500
     51 H118       -3.0390   -2.7840    0.5420 h1        1 0BM      0.099000
     52 H218       -1.7780   -2.7190   -0.4540 h1        1 0BM      0.099000
     53 HN24        1.8250   -0.2220    1.4810 hn        1 0BM      0.228000
     54 H125        2.6310    1.3060   -0.2390 h1        1 0BM      0.104000
     55 H225        2.0470    0.2060   -1.2580 h1        1 0BM      0.104000
     56 H26         3.6600   -1.2200    0.3740 hc        1 0BM      0.087000
     57 H127        4.8660    1.2260   -0.2540 hc        1 0BM      0.093250
     58 H227        4.6280    0.6440    1.2020 hc        1 0BM      0.093250
     59 H128        6.2440   -0.9600    0.8920 h1        1 0BM      0.078000
     60 H228        6.8830    0.4270    0.4850 h1        1 0BM      0.078000
     61 H130        5.4870   -2.4820   -1.0800 h1        1 0BM      0.078000
     62 H230        5.7310   -1.8830   -2.5310 h1        1 0BM      0.078000
     63 H131        3.4680   -1.6900   -1.8380 hc        1 0BM      0.093250
     64 H231        4.1130   -0.2910   -2.2400 hc        1 0BM      0.093250
     65 H133        9.7050   -1.7720   -0.8380 hn        1 0BM      0.186500
     66 H233        8.4320   -2.4200   -0.1500 hn        1 0BM      0.186500
     67 H134        7.8610    0.2230   -3.0200 DU        1 0BM      0.147500
@<TRIPOS>BOND
     1    1    2 1   
     2    1    3 1   
     3    4   34 1   
     4    4   35 1   
     5    4   36 1   
     6    5    6 1   
     7    5   37 1   
     8    6    7 1   
     9    6    9 1   
    10    6   38 1   
    11    7    8 1   
    12    9   10 1   
    13    9   39 1   
    14    9   40 1   
    15   10   12 1   
    16   11   13 1   
    17   11   41 1   
    18   12   42 1   
    19   13   43 1   
    20   14   15 1   
    21   15   45 1   
    22   16   17 1   
    23   16   22 1   
    24   17   18 1   
    25   17   20 1   
    26   17   46 1   
    27   18   19 1   
    28   18   23 1   
    29   20   21 1   
    30   20   47 1   
    31   20   48 1   
    32   21   22 1   
    33   21   49 1   
    34   21   50 1   
    35   22   51 1   
    36   22   52 1   
    37   23   24 1   
    38   23   53 1   
    39   24   25 1   
    40   24   54 1   
    41   24   55 1   
    42   25   26 1   
    43   25   30 1   
    44   25   56 1   
    45   26   27 1   
    46   26   57 1   
    47   26   58 1   
    48   27   28 1   
    49   27   59 1   
    50   27   60 1   
    51   28   29 1   
    52   28   31 1   
    53   29   30 1   
    54   29   61 1   
    55   29   62 1   
    56   30   63 1   
    57   30   64 1   
    58   31   32 1   
    59   31   33 1   
    60   32   65 1   
    61   32   66 1   
@<TRIPOS>SUBSTRUCTURE
     1 0BM         1 TEMP              0 ****  ****    0 ROOT
