@<TRIPOS>MOLECULE
0BM
   70    72     1     0     0
SMALL
bcc


@<TRIPOS>ATOM
      1 S10        -0.3040    0.2840   -0.0960 s6        1 0BM      1.428900
      2 O11         0.4870    0.9360   -1.0150 o         1 0BM     -0.560300
      3 O12         0.2190   -0.1830    1.0870 o         1 0BM     -0.560300
      4 C13        -1.8400    0.8180   -0.0070 c3        1 0BM     -0.489300
      5 N9         -0.6430   -1.3890   -0.9860 n4        1 0BM     -0.710900
      6 C8          0.1230   -1.6140   -2.2450 c3        1 0BM      0.069500
      7 C15         1.3970   -2.4410   -1.9710 c         1 0BM      0.660100
      8 O16         1.4220   -3.2820   -1.0490 o         1 0BM     -0.600100
      9 C7         -0.7040   -2.3750   -3.3040 c3        1 0BM     -0.042100
     10 C6         -2.0050   -1.7050   -3.5610 ca        1 0BM     -0.179300
     11 C1         -3.1850   -2.2350   -3.0240 ca        1 0BM     -0.134500
     12 C5         -2.0690   -0.5830   -4.3960 ca        1 0BM     -0.134500
     13 C2         -4.4140   -1.6470   -3.3190 ca        1 0BM     -0.112000
     14 C4         -3.2990    0.0040   -4.6890 ca        1 0BM     -0.112000
     15 C3         -4.4730   -0.5280   -4.1520 ca        1 0BM     -0.087000
     16 N17         2.5110   -2.2470   -2.7580 n         1 0BM     -0.453800
     17 C21         3.6310   -3.1650   -2.7130 c3        1 0BM      0.063700
     18 C22         4.4980   -2.9660   -1.4560 c         1 0BM      0.525100
     19 O23         4.5500   -2.0180   -0.6970 o         1 0BM     -0.378100
     20 C20         4.4970   -2.8920   -3.9690 c3        1 0BM     -0.092400
     21 C19         3.9160   -1.6420   -4.6250 c3        1 0BM     -0.093400
     22 C18         2.6400   -1.2860   -3.8470 c3        1 0BM      0.078000
     23 N24         5.4180   -4.1410   -1.1300 n4        1 0BM     -0.683800
     24 C25         6.7640   -3.7010   -0.6540 c3        1 0BM      0.101800
     25 C26         7.6860   -4.8560   -0.2500 c3        1 0BM     -0.091700
     26 C27         7.3270   -5.4260    1.1130 c3        1 0BM     -0.116900
     27 C28         8.3180   -6.5200    1.5220 c3        1 0BM      0.173800
     28 N29         9.7260   -6.1790    1.4080 nh        1 0BM     -0.754600
     29 C30        10.0830   -5.4560    0.1970 c3        1 0BM      0.173800
     30 C31         9.1220   -4.3400   -0.2180 c3        1 0BM     -0.116900
     31 C32        10.3480   -5.7080    2.6190 c2        1 0BM      0.671100
     32 N33        11.6150   -6.4920    2.9200 n4        1 0BM     -0.809600
     33 N34        10.0440   -4.8190    3.4940 n2        1 0BM     -0.702100
     34 H113       -2.3760    0.9800   -0.9860 h1        1 0BM      0.192033
     35 H213       -2.5490    0.2020    0.6180 h1        1 0BM      0.192033
     36 H313       -1.9140    1.8430    0.4820 h1        1 0BM      0.192033
     37 HN9        -0.4230   -2.1520   -0.3330 hn        1 0BM      0.469300
     38 H8          0.3920   -0.5930   -2.6620 hx        1 0BM      0.139700
     39 H17        -0.0980   -2.4110   -4.2500 hc        1 0BM      0.090200
     40 H27        -0.8660   -3.4340   -2.9640 hc        1 0BM      0.090200
     41 H1         -3.1550   -3.1490   -2.4090 ha        1 0BM      0.136500
     42 H5         -1.1500   -0.1770   -4.8480 ha        1 0BM      0.136500
     43 H2         -5.3430   -2.0810   -2.9130 ha        1 0BM      0.167000
     44 H4         -3.3470    0.8760   -5.3620 ha        1 0BM      0.167000
     45 H3         -5.4490   -0.0750   -4.4000 ha        1 0BM      0.173000
     46 H21         3.2390   -4.2270   -2.6890 h1        1 0BM      0.110700
     47 H120        4.4270   -3.7710   -4.6600 hc        1 0BM      0.080700
     48 H220        5.5710   -2.7390   -3.7020 hc        1 0BM      0.080700
     49 H119        3.6770   -1.8330   -5.7020 hc        1 0BM      0.098700
     50 H219        4.6430   -0.7920   -4.5850 hc        1 0BM      0.098700
     51 H118        2.7050   -0.2450   -3.4200 h1        1 0BM      0.082700
     52 H218        1.7380   -1.3450   -4.5180 h1        1 0BM      0.082700
     53 HN24        5.5250   -4.7280   -1.9640 hn        1 0BM      0.460800
     54 H125        7.2380   -3.1130   -1.4930 hx        1 0BM      0.119700
     55 H225        6.6060   -3.0050    0.2220 hx        1 0BM      0.119700
     56 H26         7.6290   -5.6800   -1.0180 hc        1 0BM      0.080700
     57 H127        6.3050   -5.8860    1.0960 hc        1 0BM      0.070950
     58 H227        7.3160   -4.6060    1.8790 hc        1 0BM      0.070950
     59 H128        8.0830   -6.8510    2.5730 h1        1 0BM      0.091950
     60 H228        8.1750   -7.4110    0.8400 h1        1 0BM      0.091950
     61 H130       11.1170   -5.0210    0.2980 h1        1 0BM      0.091950
     62 H230       10.1110   -6.2350   -0.6220 h1        1 0BM      0.091950
     63 H131        9.4320   -3.9810   -1.2350 hc        1 0BM      0.070950
     64 H231        9.1990   -3.4720    0.4870 hc        1 0BM      0.070950
     65 H133       12.0450   -6.1640    3.7980 hn        1 0BM      0.484467
     66 H233       12.2810   -6.3720    2.1490 hn        1 0BM      0.484467
     67 H134        9.2240   -4.2650    3.3600 hn        1 0BM      0.473400
     68 H92        -1.6400   -1.4780   -1.2190 hn        1 0BM      0.469300
     69 H242        4.9680   -4.7050   -0.3970 hn        1 0BM      0.460800
     70 H333       11.3790   -7.4890    3.0080 hn        1 0BM      0.484467
@<TRIPOS>BOND
     1    1    2 2   
     2    1    3 2   
     3    1    4 1   
     4    1    5 1   
     5    4   34 1   
     6    4   35 1   
     7    4   36 1   
     8    5    6 1   
     9    5   37 1   
    10    5   68 1   
    11    6    7 1   
    12    6    9 1   
    13    6   38 1   
    14    7    8 2   
    15    7   16 1   
    16    9   10 1   
    17    9   39 1   
    18    9   40 1   
    19   10   11 ar  
    20   10   12 ar  
    21   11   13 ar  
    22   11   41 1   
    23   12   14 ar  
    24   12   42 1   
    25   13   15 ar  
    26   13   43 1   
    27   14   15 ar  
    28   14   44 1   
    29   15   45 1   
    30   16   17 1   
    31   16   22 1   
    32   17   18 1   
    33   17   20 1   
    34   17   46 1   
    35   18   19 2   
    36   18   23 1   
    37   20   21 1   
    38   20   47 1   
    39   20   48 1   
    40   21   22 1   
    41   21   49 1   
    42   21   50 1   
    43   22   51 1   
    44   22   52 1   
    45   23   24 1   
    46   23   53 1   
    47   23   69 1   
    48   24   25 1   
    49   24   54 1   
    50   24   55 1   
    51   25   26 1   
    52   25   30 1   
    53   25   56 1   
    54   26   27 1   
    55   26   57 1   
    56   26   58 1   
    57   27   28 1   
    58   27   59 1   
    59   27   60 1   
    60   28   29 1   
    61   28   31 1   
    62   29   30 1   
    63   29   61 1   
    64   29   62 1   
    65   30   63 1   
    66   30   64 1   
    67   31   32 1   
    68   31   33 2   
    69   32   65 1   
    70   32   66 1   
    71   32   70 1   
    72   33   67 1   
@<TRIPOS>SUBSTRUCTURE
     1 0BM         1 TEMP              0 ****  ****    0 ROOT
