@<TRIPOS>MOLECULE
0BN
   27    27     1     0     0
SMALL
bcc


@<TRIPOS>ATOM
      1 N           2.3320    1.5570    0.8660 n3        1 0BN     -0.886800
      2 CA          2.3990    0.1860    0.3810 c3        1 0BN      0.022500
      3 C           3.8480   -0.3270    0.0720 c         1 0BN      0.887600
      4 O           4.8150    0.4410    0.3360 o         1 0BN     -0.838800
      5 N2         -4.8370   -1.1990   -0.1820 nh        1 0BN     -0.897800
      6 N3         -4.7680    0.9370    0.8290 n2        1 0BN     -0.862100
      7 C3          0.0810   -0.0420   -0.5710 ca        1 0BN     -0.007300
      8 C4         -0.7420    0.9950   -1.0270 ca        1 0BN     -0.134000
      9 C5         -2.1090    0.9880   -0.7600 ca        1 0BN     -0.112500
     10 C6         -2.6760   -0.0640   -0.0350 ca        1 0BN     -0.223900
     11 C7         -1.8610   -1.1030    0.4280 ca        1 0BN     -0.112500
     12 C8         -0.4950   -1.0890    0.1630 ca        1 0BN     -0.134000
     13 C9          1.5380   -0.0540   -0.8650 c3        1 0BN     -0.042100
     14 C10        -4.1400   -0.0550    0.2620 ce        1 0BN      0.650800
     15 OXT         3.9610   -1.4900   -0.4050 o         1 0BN     -0.838800
     16 H           3.0360    1.6530    1.5800 hn        1 0BN      0.331800
     17 H1          2.0050   -0.4700    1.2110 h1        1 0BN      0.043700
     18 H3         -5.7360   -1.3410    0.2220 hn        1 0BN      0.391800
     19 H4         -4.2730   -2.0200   -0.2010 hn        1 0BN      0.391800
     20 H5         -4.1820    1.7230    1.0140 hn        1 0BN      0.392400
     21 H6         -0.3000    1.8290   -1.5930 ha        1 0BN      0.140500
     22 H7         -2.7450    1.8080   -1.1250 ha        1 0BN      0.119500
     23 H8         -2.2920   -1.9270    1.0150 ha        1 0BN      0.119500
     24 H9          0.1510   -1.9000    0.5350 ha        1 0BN      0.140500
     25 H10         1.7810    0.7070   -1.6520 hc        1 0BN      0.064700
     26 H11         1.8310   -1.0650   -1.2680 hc        1 0BN      0.064700
     27 H2          2.6090    2.1720    0.1200 hn        1 0BN      0.331800
@<TRIPOS>BOND
     1    1    2 1   
     2    1   16 1   
     3    1   27 1   
     4    2    3 1   
     5    2   13 1   
     6    2   17 1   
     7    3    4 1   
     8    3   15 1   
     9    5   14 1   
    10    5   18 1   
    11    5   19 1   
    12    6   14 2   
    13    6   20 1   
    14    7    8 ar  
    15    7   12 ar  
    16    7   13 1   
    17    8    9 ar  
    18    8   21 1   
    19    9   10 ar  
    20    9   22 1   
    21   10   11 ar  
    22   10   14 1   
    23   11   12 ar  
    24   11   23 1   
    25   12   24 1   
    26   13   25 1   
    27   13   26 1   
@<TRIPOS>SUBSTRUCTURE
     1 0BN         1 TEMP              0 ****  ****    0 ROOT
