@<TRIPOS>MOLECULE
0BR
   50    47     1     0     0
SMALL
bcc


@<TRIPOS>ATOM
      1 CAX        -5.0250    3.1950   -2.6200 c3        1 0BR     -0.077000
      2 OAB        -3.6100    3.0190   -2.3640 os        1 0BR     -0.207000
      3 CAV        -3.2760    2.9740   -0.9670 c1        1 0BR      0.082000
      4 CAS        -2.2590    2.1110   -0.5920 c1        1 0BR     -0.114000
      5 CAP        -1.6910    2.2110    0.6800 c1        1 0BR     -0.035500
      6 CAW        -3.7280    3.9340   -0.0780 c1        1 0BR     -0.183000
      7 CAU        -3.1550    4.0320    1.1990 c1        1 0BR     -0.114000
      8 CAR        -2.1420    3.1700    1.5680 c1        1 0BR     -0.035500
      9 NAD        -1.5680    3.2700    2.8450 n1        1 0BR     -0.122000
     10 CAT        -0.5500    2.4070    3.2140 c1        1 0BR     -0.065000
     11 CAQ        -0.0890    1.4270    2.3070 c1        1 0BR     -0.167000
     12 CAN        -0.6510    1.3300    1.0580 c1        1 0BR     -0.077000
     13 CAL         0.3210    0.5590    0.2780 c2        1 0BR      0.067000
     14 OAA         1.5640    0.9420    0.6070 oh        1 0BR     -0.324000
     15 CAF         0.1270   -1.0690    0.6080 c3        1 0BR     -0.038000
     16 CAG         1.2720   -1.5090    1.4020 c3        1 0BR     -0.175000
     17 CAE         2.0460   -2.4550    0.7960 c3        1 0BR     -0.102000
     18 CAI         1.1760   -3.3300    0.3490 c3        1 0BR     -0.186000
     19 CAK         0.0090   -2.7250   -0.4150 c3        1 0BR     -0.100000
     20 NAC        -0.0230   -1.6470   -0.4350 n3        1 0BR     -0.190000
     21 CAJ         0.7510   -1.3440   -1.0490 c3        1 0BR     -0.099000
     22 CAH         2.4390   -1.9470   -0.1390 c3        1 0BR     -0.128000
     23 CAM         3.1940   -2.9270   -1.0060 c3        1 0BR     -0.152000
     24 CAO         4.6880   -2.4590   -1.1440 c3        1 0BR     -0.211000
     25 H1         -5.2350    2.8830   -3.5140 h1        1 0BR      0.085000
     26 H2         -5.2620    4.1770   -2.5420 h1        1 0BR      0.085000
     27 H3         -5.5220    2.7000   -1.9870 h1        1 0BR      0.085000
     28 H4         -1.9910    1.3710   -1.1950 ha        1 0BR      0.157500
     29 H5         -4.3900    4.5470   -0.3430 ha        1 0BR      0.142000
     30 H6         -3.4760    4.7150    1.8330 ha        1 0BR      0.157500
     31 H7         -0.1610    2.4740    4.0810 ha        1 0BR      0.160000
     32 H8          0.6330    0.8130    2.5700 ha        1 0BR      0.155000
     33 H9          0.1700    0.7200   -0.6910 h4        1 0BR      0.105000
     34 H10         1.7240    1.7600    0.2680 ho        1 0BR      0.202000
     35 H11        -0.7330   -1.1900    1.1770 h1        1 0BR      0.107000
     36 H12         0.9500   -1.8630    2.2190 hc        1 0BR      0.094000
     37 H13         1.8500   -0.7040    1.6050 hc        1 0BR      0.094000
     38 H14         2.7620   -2.8470    1.3880 hc        1 0BR      0.097000
     39 H15         1.6610   -3.9750   -0.2630 hc        1 0BR      0.084500
     40 H16         0.8240   -3.8290    1.1040 hc        1 0BR      0.084500
     41 H17         0.0440   -3.0380   -1.3040 h1        1 0BR      0.093000
     42 H18        -0.8400   -3.0540   -0.0000 h1        1 0BR      0.093000
     43 H20         0.6730   -1.7640   -1.9170 h1        1 0BR      0.100000
     44 H21         0.7480   -0.3480   -1.1460 h1        1 0BR      0.100000
     45 H22         3.0030   -1.1750    0.0950 hc        1 0BR      0.101000
     46 H23         3.1660   -3.8530   -0.5780 hc        1 0BR      0.077500
     47 H24         2.7700   -2.9650   -1.9120 hc        1 0BR      0.077500
     48 H25         4.7140   -1.5630   -1.5520 hc        1 0BR      0.072667
     49 H26         5.1810   -3.0930   -1.7130 hc        1 0BR      0.072667
     50 H27         5.0960   -2.4270   -0.2720 hc        1 0BR      0.072667
@<TRIPOS>BOND
     1    1    2 1   
     2    1   25 1   
     3    1   26 1   
     4    1   27 1   
     5    2    3 1   
     6    3    6 1   
     7    4    5 1   
     8    4   28 1   
     9    5    8 1   
    10    6   29 1   
    11    7    8 1   
    12    7   30 1   
    13    9   10 1   
    14   10   31 1   
    15   11   12 1   
    16   11   32 1   
    17   13   14 1   
    18   13   15 1   
    19   13   33 1   
    20   14   34 1   
    21   15   16 1   
    22   15   20 1   
    23   15   35 1   
    24   16   17 1   
    25   16   36 1   
    26   16   37 1   
    27   17   18 1   
    28   17   22 1   
    29   17   38 1   
    30   18   19 1   
    31   18   39 1   
    32   18   40 1   
    33   19   20 1   
    34   19   41 1   
    35   19   42 1   
    36   20   21 1   
    37   21   22 1   
    38   21   43 1   
    39   21   44 1   
    40   22   23 1   
    41   22   45 1   
    42   23   24 1   
    43   23   46 1   
    44   23   47 1   
    45   24   48 1   
    46   24   49 1   
    47   24   50 1   
@<TRIPOS>SUBSTRUCTURE
     1 0BR         1 TEMP              0 ****  ****    0 ROOT
