@<TRIPOS>MOLECULE
0BR
   50    53     1     0     0
SMALL
bcc


@<TRIPOS>ATOM
      1 CAX        -4.9200   -3.1510    0.0520 c3        1 0BR      0.113700
      2 OAB        -3.6470   -2.5800   -0.2280 os        1 0BR     -0.324900
      3 CAV        -3.5290   -1.2170   -0.0340 ca        1 0BR      0.126100
      4 CAS        -2.2980   -0.6760   -0.3720 ca        1 0BR     -0.163000
      5 CAP        -2.0610    0.7080   -0.2070 ca        1 0BR     -0.102300
      6 CAW        -4.5690   -0.4010    0.4790 ca        1 0BR     -0.182000
      7 CAU        -4.3620    0.9450    0.6410 ca        1 0BR     -0.130300
      8 CAR        -3.1070    1.5430    0.3020 ca        1 0BR      0.361600
      9 NAD        -2.9470    2.9070    0.4730 nb        1 0BR     -0.649000
     10 CAT        -1.7850    3.4340    0.1430 ca        1 0BR      0.402200
     11 CAQ        -0.6800    2.6850   -0.3700 ca        1 0BR     -0.233300
     12 CAN        -0.8090    1.3270   -0.5380 ca        1 0BR     -0.068300
     13 CAL         0.3250    0.4980   -1.0810 c3        1 0BR      0.186400
     14 OAA         1.2290    1.2800   -1.8370 oh        1 0BR     -0.586800
     15 CAF         0.9900   -0.2930    0.0750 c3        1 0BR      0.117500
     16 CAG         1.7200    0.6190    1.0880 c3        1 0BR     -0.103400
     17 CAE         3.1360    0.0850    1.3100 c3        1 0BR     -0.065700
     18 CAI         3.0180   -1.3530    1.8170 c3        1 0BR     -0.105400
     19 CAK         2.2540   -2.1860    0.7730 c3        1 0BR      0.133800
     20 NAC         1.8620   -1.3900   -0.4050 n3        1 0BR     -0.654600
     21 CAJ         3.0850   -0.8410   -1.0040 c3        1 0BR      0.125800
     22 CAH         3.8580    0.0970   -0.0460 c3        1 0BR     -0.090700
     23 CAM         5.3190   -0.2890    0.0830 c3        1 0BR     -0.072400
     24 CAO         6.0970    0.0320   -1.1680 c3        1 0BR     -0.094100
     25 H1         -5.1740   -3.0370    1.1340 h1        1 0BR      0.045367
     26 H2         -5.7110   -2.6920   -0.5880 h1        1 0BR      0.045367
     27 H3         -4.7800   -4.2320   -0.2070 h1        1 0BR      0.045367
     28 H4         -1.5130   -1.3370   -0.7720 ha        1 0BR      0.160000
     29 H5         -5.5400   -0.8440    0.7450 ha        1 0BR      0.142000
     30 H6         -5.1660    1.5870    1.0370 ha        1 0BR      0.152000
     31 H7         -1.6840    4.5270    0.2810 h4        1 0BR      0.022100
     32 H8          0.2450    3.2160   -0.6320 ha        1 0BR      0.143000
     33 H9         -0.0800   -0.2290   -1.8500 h1        1 0BR      0.105700
     34 H10         1.7780    1.7890   -1.2270 ho        1 0BR      0.398000
     35 H11         0.1310   -0.7950    0.6180 h1        1 0BR      0.075700
     36 H12         1.7550    1.6790    0.7330 hc        1 0BR      0.046200
     37 H13         1.1610    0.6160    2.0590 hc        1 0BR      0.046200
     38 H14         3.6840    0.7190    2.0520 hc        1 0BR      0.059700
     39 H15         4.0360   -1.7840    1.9890 hc        1 0BR      0.047200
     40 H16         2.4740   -1.3660    2.7940 hc        1 0BR      0.047200
     41 H17         2.8940   -3.0360    0.4130 h1        1 0BR      0.056200
     42 H18         1.3270   -2.6250    1.2300 h1        1 0BR      0.056200
     43 H20         3.7370   -1.7060   -1.3070 h1        1 0BR      0.068200
     44 H21         2.8000   -0.2860   -1.9390 h1        1 0BR      0.068200
     45 H22         3.8080    1.1440   -0.4570 hc        1 0BR      0.045700
     46 H23         5.7680    0.2610    0.9520 hc        1 0BR      0.040200
     47 H24         5.4040   -1.3850    0.3060 hc        1 0BR      0.040200
     48 H25         7.1570   -0.3020   -1.0600 hc        1 0BR      0.034367
     49 H26         5.6510   -0.4850   -2.0530 hc        1 0BR      0.034367
     50 H27         6.0930    1.1310   -1.3670 hc        1 0BR      0.034367
@<TRIPOS>BOND
     1    1    2 1   
     2    1   25 1   
     3    1   26 1   
     4    1   27 1   
     5    2    3 1   
     6    3    4 ar  
     7    3    6 ar  
     8    4    5 ar  
     9    4   28 1   
    10    5    8 ar  
    11    5   12 ar  
    12    6    7 ar  
    13    6   29 1   
    14    7    8 ar  
    15    7   30 1   
    16    8    9 ar  
    17    9   10 ar  
    18   10   11 ar  
    19   10   31 1   
    20   11   12 ar  
    21   11   32 1   
    22   12   13 1   
    23   13   14 1   
    24   13   15 1   
    25   13   33 1   
    26   14   34 1   
    27   15   16 1   
    28   15   20 1   
    29   15   35 1   
    30   16   17 1   
    31   16   36 1   
    32   16   37 1   
    33   17   18 1   
    34   17   22 1   
    35   17   38 1   
    36   18   19 1   
    37   18   39 1   
    38   18   40 1   
    39   19   20 1   
    40   19   41 1   
    41   19   42 1   
    42   20   21 1   
    43   21   22 1   
    44   21   43 1   
    45   21   44 1   
    46   22   23 1   
    47   22   45 1   
    48   23   24 1   
    49   23   46 1   
    50   23   47 1   
    51   24   48 1   
    52   24   49 1   
    53   24   50 1   
@<TRIPOS>SUBSTRUCTURE
     1 0BR         1 TEMP              0 ****  ****    0 ROOT
