@<TRIPOS>MOLECULE
0BT
   45    47     1     0     0
SMALL
bcc


@<TRIPOS>ATOM
      1 CAV         0.8330   -0.4310    0.5290 ca        1 0BT     -0.256000
      2 CAW         2.1020   -0.9400    0.6860 ca        1 0BT     -0.046500
      3 CAX         2.5410   -1.4140    1.9300 ca        1 0BT     -0.428000
      4 I1          4.4160   -2.1370    2.1480 i         1 0BT      0.009000
      5 CAY         1.6550   -1.3930    3.0150 ca        1 0BT     -0.046500
      6 CAZ         0.3830   -0.8830    2.8830 ca        1 0BT     -0.256000
      7 CAU        -0.0840   -0.3740    1.6280 ca        1 0BT      0.103000
      8 CAB        -1.3840    0.0680    1.4640 c2        1 0BT     -0.240000
      9 PAA        -3.8730   -0.8640    0.8140 p3        1 0BT      2.459000
     10 OBC        -3.5440   -1.4640   -0.4960 o         1 0BT     -1.157333
     11 OBA        -4.1430   -1.7700    1.9510 o         1 0BT     -1.157333
     12 OBB        -4.4100    0.5220    0.8560 o         1 0BT     -1.157333
     13 OAH        -1.8830    0.6420    0.3130 os        1 0BT     -0.175000
     14 OAD        -2.3120    0.2210    2.4710 os        1 0BT     -0.190000
     15 CAC        -2.4270    1.5820    2.9070 c3        1 0BT     -0.032000
     16 CAE        -2.6250    2.5430    1.7360 c3        1 0BT     -0.017000
     17 OAF        -1.9900    3.8070    2.0300 os        1 0BT     -0.302000
     18 CAG        -2.0390    2.0580    0.3960 c3        1 0BT      0.020000
     19 CAI        -0.7220    2.8250    0.2330 c3        1 0BT     -0.231000
     20 CAJ        -0.7850    3.9600    1.2740 c3        1 0BT      0.146000
     21 N1          0.3800    4.0280    2.1710 n         1 0BT     -0.256000
     22 C6          0.8170    2.9160    2.8740 c2        1 0BT      0.065000
     23 C5          1.7520    2.9880    3.8700 c2        1 0BT     -0.258000
     24 CAR         2.2420    1.7920    4.5820 c3        1 0BT     -0.156000
     25 C4          2.3040    4.2880    4.2620 c2        1 0BT      0.358000
     26 O4          3.1380    4.4920    5.1680 o         1 0BT     -0.389000
     27 N3          1.8410    5.4010    3.5380 ns        1 0BT     -0.375000
     28 C2          0.8800    5.3060    2.5160 c2        1 0BT      0.394000
     29 O2          0.5360    6.3550    1.9170 o         1 0BT     -0.408000
     30 H1          0.4760   -0.0940   -0.4540 ha        1 0BT      0.128000
     31 H2          2.7810   -0.9740   -0.1800 ha        1 0BT      0.094500
     32 H3          1.9790   -1.7850    3.9920 ha        1 0BT      0.094500
     33 H4         -0.3230   -0.8930    3.7250 ha        1 0BT      0.128000
     34 H7         -1.5210    1.8660    3.5050 h1        1 0BT      0.073000
     35 H8         -3.3350    1.5750    3.5630 h1        1 0BT      0.073000
     36 H9         -3.7200    2.7650    1.6130 h1        1 0BT      0.160000
     37 H10        -2.7550    2.2800   -0.4410 h1        1 0BT      0.134000
     38 H11        -0.6390    3.2680   -0.7870 hc        1 0BT      0.109500
     39 H12         0.1420    2.1270    0.3800 hc        1 0BT      0.109500
     40 H13        -0.8670    4.9760    0.7800 h2        1 0BT      0.132000
     41 H14         0.3710    1.9390    2.5600 h4        1 0BT      0.223000
     42 H15         1.8330    0.8530    4.1240 hc        1 0BT      0.091333
     43 H16         3.3600    1.7550    4.5440 hc        1 0BT      0.091333
     44 H17         1.9350    1.8350    5.6570 hc        1 0BT      0.091333
     45 H18         2.1780    6.3110    3.7590 hn        1 0BT      0.243000
@<TRIPOS>BOND
     1    1    2 1   
     2    1    7 1   
     3    1   30 1   
     4    2    3 1   
     5    2   31 1   
     6    3    4 1   
     7    3    5 1   
     8    5    6 1   
     9    5   32 1   
    10    6    7 1   
    11    6   33 1   
    12    7    8 1   
    13    8   13 1   
    14    8   14 1   
    15    9   10 1   
    16    9   11 1   
    17    9   12 1   
    18   13   18 1   
    19   14   15 1   
    20   15   16 1   
    21   15   34 1   
    22   15   35 1   
    23   16   17 1   
    24   16   18 1   
    25   16   36 1   
    26   17   20 1   
    27   18   19 1   
    28   18   37 1   
    29   19   20 1   
    30   19   38 1   
    31   19   39 1   
    32   20   21 1   
    33   20   40 1   
    34   21   22 1   
    35   21   28 1   
    36   22   23 1   
    37   22   41 1   
    38   23   24 1   
    39   23   25 1   
    40   24   42 1   
    41   24   43 1   
    42   24   44 1   
    43   25   26 1   
    44   25   27 1   
    45   27   28 1   
    46   27   45 1   
    47   28   29 1   
@<TRIPOS>SUBSTRUCTURE
     1 0BT         1 TEMP              0 ****  ****    0 ROOT
