@<TRIPOS>MOLECULE
0BT
   45    47     1     0     0
SMALL
bcc


@<TRIPOS>ATOM
      1 CAV         0.8230   -0.3820    0.4630 ca        1 0BT     -0.256000
      2 CAW         2.0990   -0.8810    0.5830 ca        1 0BT     -0.046500
      3 CAX         2.5670   -1.3790    1.8060 ca        1 0BT     -0.428000
      4 I1          4.4530   -2.0870    1.9700 i         1 0BT      0.009000
      5 CAY         1.7020   -1.3940    2.9090 ca        1 0BT     -0.046500
      6 CAZ         0.4230   -0.8950    2.8140 ca        1 0BT     -0.256000
      7 CAU        -0.0730   -0.3610    1.5810 ca        1 0BT      0.103000
      8 CAB        -1.3810    0.0710    1.4520 c2        1 0BT     -0.240000
      9 PAA        -3.8730   -0.8720    0.8280 p3        1 0BT      2.459000
     10 OBC        -3.5630   -1.4370   -0.5020 o         1 0BT     -1.157333
     11 OBA        -4.1110   -1.8080    1.9480 o         1 0BT     -1.157333
     12 OBB        -4.4230    0.5060    0.9140 o         1 0BT     -1.157333
     13 OAH        -1.9080    0.6670    0.3250 os        1 0BT     -0.175000
     14 OAD        -2.2910    0.1900    2.4800 os        1 0BT     -0.190000
     15 CAC        -2.4110    1.5390    2.9510 c3        1 0BT     -0.032000
     16 CAE        -2.6420    2.5250    1.8070 c3        1 0BT     -0.017000
     17 OAF        -2.0140    3.7880    2.1200 os        1 0BT     -0.302000
     18 CAG        -2.0770    2.0790    0.4460 c3        1 0BT      0.020000
     19 CAI        -0.7710    2.8640    0.2750 c3        1 0BT     -0.231000
     20 CAJ        -0.8260    3.9730    1.3440 c3        1 0BT      0.146000
     21 N1          0.3560    4.0320    2.2210 n         1 0BT     -0.256000
     22 C6          0.8180    2.9080    2.8880 c2        1 0BT      0.065000
     23 C5          1.7710    2.9660    3.8660 c2        1 0BT     -0.258000
     24 CAR         2.2870    1.7590    4.5410 c3        1 0BT     -0.156000
     25 C4          2.3180    4.2620    4.2800 c2        1 0BT      0.358000
     26 O4          3.1670    4.4540    5.1730 o         1 0BT     -0.389000
     27 N3          1.8290    5.3870    3.5910 n         1 0BT     -0.375000
     28 C2          0.8500    5.3070    2.5860 c2        1 0BT      0.394000
     29 O2          0.4830    6.3650    2.0200 o         1 0BT     -0.408000
     30 H1          0.4430   -0.0250   -0.5040 ha        1 0BT      0.128000
     31 H2          2.7610   -0.8860   -0.2970 ha        1 0BT      0.094500
     32 H3          2.0500   -1.8060    3.8690 ha        1 0BT      0.094500
     33 H4         -0.2660   -0.9320    3.6690 ha        1 0BT      0.128000
     34 H7         -1.4970    1.8180    3.5380 h1        1 0BT      0.073000
     35 H8         -3.3060    1.5060    3.6240 h1        1 0BT      0.073000
     36 H9         -3.7420    2.7390    1.7110 h1        1 0BT      0.160000
     37 H10        -2.8120    2.3130   -0.3720 h1        1 0BT      0.134000
     38 H11         0.1020    2.1710    0.3890 hc        1 0BT      0.109500
     39 H12        -0.7130    3.3320   -0.7360 hc        1 0BT      0.109500
     40 H13        -0.9280    4.9990    0.8770 h2        1 0BT      0.132000
     41 H14         0.3760    1.9340    2.5590 h4        1 0BT      0.223000
     42 H15         1.8800    0.8270    4.0670 hc        1 0BT      0.091333
     43 H16         3.4040    1.7350    4.4820 hc        1 0BT      0.091333
     44 H17         1.9990    1.7730    5.6220 hc        1 0BT      0.091333
     45 H18         2.1600    6.2950    3.8270 hn        1 0BT      0.243000
@<TRIPOS>BOND
     1    1    2 1   
     2    1    7 1   
     3    1   30 1   
     4    2    3 1   
     5    2   31 1   
     6    3    4 1   
     7    3    5 1   
     8    5    6 1   
     9    5   32 1   
    10    6    7 1   
    11    6   33 1   
    12    7    8 1   
    13    8   13 1   
    14    8   14 1   
    15    9   10 1   
    16    9   11 1   
    17    9   12 1   
    18   13   18 1   
    19   14   15 1   
    20   15   16 1   
    21   15   34 1   
    22   15   35 1   
    23   16   17 1   
    24   16   18 1   
    25   16   36 1   
    26   17   20 1   
    27   18   19 1   
    28   18   37 1   
    29   19   20 1   
    30   19   38 1   
    31   19   39 1   
    32   20   21 1   
    33   20   40 1   
    34   21   22 1   
    35   21   28 1   
    36   22   23 1   
    37   22   41 1   
    38   23   24 1   
    39   23   25 1   
    40   24   42 1   
    41   24   43 1   
    42   24   44 1   
    43   25   26 1   
    44   25   27 1   
    45   27   28 1   
    46   27   45 1   
    47   28   29 1   
@<TRIPOS>SUBSTRUCTURE
     1 0BT         1 TEMP              0 ****  ****    0 ROOT
