@<TRIPOS>MOLECULE
0BT
   45    47     1     0     0
SMALL
bcc


@<TRIPOS>ATOM
      1 CAV         0.7820   -0.4620    0.5400 ca        1 0BT     -0.256000
      2 CAW         2.0510   -0.9780    0.6750 ca        1 0BT     -0.046500
      3 CAX         2.5160   -1.4350    1.9160 ca        1 0BT     -0.428000
      4 I1          4.3910   -2.1680    2.1010 i         1 0BT      0.009000
      5 CAY         1.6560   -1.3910    3.0210 ca        1 0BT     -0.046500
      6 CAZ         0.3840   -0.8750    2.9110 ca        1 0BT     -0.256000
      7 CAU        -0.1080   -0.3820    1.6590 ca        1 0BT      0.103000
      8 CAB        -1.4090    0.0670    1.5180 c2        1 0BT     -0.240000
      9 PAA        -3.9190   -0.8590    0.9420 p3        1 0BT      2.459000
     10 OBC        -3.6240   -1.4810   -0.3660 o         1 0BT     -1.157333
     11 OBA        -4.1670   -1.7450    2.0980 o         1 0BT     -1.157333
     12 OBB        -4.4460    0.5310    0.9740 o         1 0BT     -1.157333
     13 OAH        -1.9310    0.6250    0.3710 os        1 0BT     -0.175000
     14 OAD        -2.3120    0.2420    2.5440 os        1 0BT     -0.190000
     15 CAC        -2.4080    1.6100    2.9620 c3        1 0BT     -0.032000
     16 CAE        -2.6280    2.5540    1.7800 c3        1 0BT     -0.017000
     17 OAF        -1.9770    3.8170    2.0390 os        1 0BT     -0.302000
     18 CAG        -2.0760    2.0440    0.4350 c3        1 0BT      0.020000
     19 CAI        -0.7580    2.7990    0.2290 c3        1 0BT     -0.231000
     20 CAJ        -0.7900    3.9510    1.2530 c3        1 0BT      0.146000
     21 N1          0.3970    4.0250    2.1220 n         1 0BT     -0.256000
     22 C6          0.8430    2.9210    2.8320 c2        1 0BT      0.065000
     23 C5          1.8010    3.0020    3.8040 c2        1 0BT     -0.258000
     24 CAR         2.3000    1.8140    4.5240 c3        1 0BT     -0.156000
     25 C4          2.3710    4.3040    4.1630 c2        1 0BT      0.358000
     26 O4          3.2270    4.5170    5.0450 o         1 0BT     -0.389000
     27 N3          1.8980    5.4090    3.4330 n         1 0BT     -0.375000
     28 C2          0.9130    5.3050    2.4350 c2        1 0BT      0.394000
     29 O2          0.5620    6.3460    1.8280 o         1 0BT     -0.408000
     30 H1          0.4040   -0.1380   -0.4390 ha        1 0BT      0.128000
     31 H2          2.7090   -1.0300   -0.2060 ha        1 0BT      0.094500
     32 H3          2.0000   -1.7700    3.9960 ha        1 0BT      0.094500
     33 H4         -0.3010   -0.8660    3.7690 ha        1 0BT      0.128000
     34 H7         -1.4870    1.8970    3.5330 h1        1 0BT      0.073000
     35 H8         -3.3000    1.6190    3.6390 h1        1 0BT      0.073000
     36 H9         -3.7240    2.7820    1.6790 h1        1 0BT      0.160000
     37 H10        -2.8100    2.2570   -0.3890 h1        1 0BT      0.134000
     38 H11         0.1040    2.0980    0.3670 hc        1 0BT      0.109500
     39 H12        -0.6960    3.2260   -0.8000 hc        1 0BT      0.109500
     40 H13        -0.8760    4.9590    0.7460 h2        1 0BT      0.132000
     41 H14         0.3840    1.9420    2.5430 h4        1 0BT      0.223000
     42 H15         1.8750    0.8710    4.0890 hc        1 0BT      0.091333
     43 H16         2.0180    1.8760    5.6050 hc        1 0BT      0.091333
     44 H17         3.4160    1.7690    4.4610 hc        1 0BT      0.091333
     45 H18         2.2460    6.3190    3.6310 hn        1 0BT      0.243000
@<TRIPOS>BOND
     1    1    2 1   
     2    1    7 1   
     3    1   30 1   
     4    2    3 1   
     5    2   31 1   
     6    3    4 1   
     7    3    5 1   
     8    5    6 1   
     9    5   32 1   
    10    6    7 1   
    11    6   33 1   
    12    7    8 1   
    13    8   13 1   
    14    8   14 1   
    15    9   10 1   
    16    9   11 1   
    17    9   12 1   
    18   13   18 1   
    19   14   15 1   
    20   15   16 1   
    21   15   34 1   
    22   15   35 1   
    23   16   17 1   
    24   16   18 1   
    25   16   36 1   
    26   17   20 1   
    27   18   19 1   
    28   18   37 1   
    29   19   20 1   
    30   19   38 1   
    31   19   39 1   
    32   20   21 1   
    33   20   40 1   
    34   21   22 1   
    35   21   28 1   
    36   22   23 1   
    37   22   41 1   
    38   23   24 1   
    39   23   25 1   
    40   24   42 1   
    41   24   43 1   
    42   24   44 1   
    43   25   26 1   
    44   25   27 1   
    45   27   28 1   
    46   27   45 1   
    47   28   29 1   
@<TRIPOS>SUBSTRUCTURE
     1 0BT         1 TEMP              0 ****  ****    0 ROOT
