@<TRIPOS>MOLECULE
0BV
   29    31     1     0     0
SMALL
bcc


@<TRIPOS>ATOM
      1 OAA         0.2240    0.7640   -0.2010 o         1 0BV     -0.528100
      2 CAB         1.2960    0.1810   -0.0410 c         1 0BV      0.566900
      3 CAL         1.8810   -0.0660    1.3210 c3        1 0BV     -0.162100
      4 CAM         2.8520   -1.1940    1.3320 ca        1 0BV     -0.075300
      5 CAO         4.1520   -1.0430    0.7240 ca        1 0BV     -0.028000
      6 CAH         4.5300    0.1650    0.0930 ca        1 0BV     -0.129000
      7 CAD         5.7760    0.3090   -0.4840 ca        1 0BV     -0.122000
      8 CAF         6.6890   -0.7580   -0.4500 ca        1 0BV     -0.127000
      9 CAJ         6.3410   -1.9470    0.1590 ca        1 0BV     -0.116000
     10 CAQ         5.0720   -2.1210    0.7580 ca        1 0BV     -0.018000
     11 CAP         4.7000   -3.3630    1.3980 ca        1 0BV     -0.017000
     12 CAI         5.5680   -4.4780    1.4640 ca        1 0BV     -0.119000
     13 CAE         5.1770   -5.6480    2.0850 ca        1 0BV     -0.124000
     14 CAC         3.9010   -5.7540    2.6670 ca        1 0BV     -0.126000
     15 CAG         3.0340   -4.6820    2.6160 ca        1 0BV     -0.115000
     16 CAN         3.4180   -3.4770    1.9840 ca        1 0BV     -0.038000
     17 CAK         2.5130   -2.3690    1.9350 ca        1 0BV     -0.104000
     18 H1          1.8990   -0.1890   -0.9000 h4        1 0BV      0.008200
     19 H2          2.3850    0.8810    1.6630 hc        1 0BV      0.082700
     20 H3          1.0450   -0.2630    2.0480 hc        1 0BV      0.082700
     21 H4          3.8200    1.0050    0.0620 ha        1 0BV      0.130000
     22 H5          6.0590    1.2540   -0.9700 ha        1 0BV      0.135000
     23 H6          7.6810   -0.6390   -0.9110 ha        1 0BV      0.135000
     24 H7          7.0720   -2.7690    0.1730 ha        1 0BV      0.134000
     25 H8          6.5720   -4.4230    1.0180 ha        1 0BV      0.133000
     26 H9          5.8630   -6.5070    2.1290 ha        1 0BV      0.134000
     27 H10         3.6030   -6.6920    3.1580 ha        1 0BV      0.135000
     28 H11         2.0320   -4.7510    3.0670 ha        1 0BV      0.135000
     29 H12         1.5240   -2.4960    2.4060 ha        1 0BV      0.136000
@<TRIPOS>BOND
     1    1    2 2   
     2    2    3 1   
     3    2   18 1   
     4    3    4 1   
     5    3   19 1   
     6    3   20 1   
     7    4    5 ar  
     8    4   17 ar  
     9    5    6 ar  
    10    5   10 ar  
    11    6    7 ar  
    12    6   21 1   
    13    7    8 ar  
    14    7   22 1   
    15    8    9 ar  
    16    8   23 1   
    17    9   10 ar  
    18    9   24 1   
    19   10   11 ar  
    20   11   12 ar  
    21   11   16 ar  
    22   12   13 ar  
    23   12   25 1   
    24   13   14 ar  
    25   13   26 1   
    26   14   15 ar  
    27   14   27 1   
    28   15   16 ar  
    29   15   28 1   
    30   16   17 ar  
    31   17   29 1   
@<TRIPOS>SUBSTRUCTURE
     1 0BV         1 TEMP              0 ****  ****    0 ROOT
