@<TRIPOS>MOLECULE
0BV
   29    31     1     0     0
SMALL
bcc


@<TRIPOS>ATOM
      1 OAA         0.2110    0.7450   -0.2020 o         1 0BV     -0.527100
      2 CAB         1.2870    0.1690   -0.0420 c         1 0BV      0.566900
      3 CAL         1.8740   -0.0720    1.3200 c3        1 0BV     -0.162100
      4 CAM         2.8490   -1.1970    1.3310 ca        1 0BV     -0.075300
      5 CAO         4.1480   -1.0430    0.7220 ca        1 0BV     -0.028000
      6 CAH         4.5220    0.1650    0.0890 ca        1 0BV     -0.129000
      7 CAD         5.7670    0.3120   -0.4890 ca        1 0BV     -0.122000
      8 CAF         6.6830   -0.7520   -0.4550 ca        1 0BV     -0.127000
      9 CAJ         6.3400   -1.9420    0.1560 ca        1 0BV     -0.116000
     10 CAQ         5.0720   -2.1180    0.7570 ca        1 0BV     -0.018000
     11 CAP         4.7040   -3.3600    1.4000 ca        1 0BV     -0.017000
     12 CAI         5.5760   -4.4720    1.4670 ca        1 0BV     -0.119000
     13 CAE         5.1890   -5.6430    2.0900 ca        1 0BV     -0.124000
     14 CAC         3.9140   -5.7510    2.6730 ca        1 0BV     -0.126000
     15 CAG         3.0430   -4.6820    2.6220 ca        1 0BV     -0.115000
     16 CAN         3.4240   -3.4770    1.9870 ca        1 0BV     -0.038000
     17 CAK         2.5140   -2.3720    1.9370 ca        1 0BV     -0.104000
     18 H1          1.8920   -0.1970   -0.9020 h4        1 0BV      0.008200
     19 H2          1.0400   -0.2710    2.0480 hc        1 0BV      0.082700
     20 H3          2.3760    0.8770    1.6590 hc        1 0BV      0.082700
     21 H4          3.8090    1.0030    0.0570 ha        1 0BV      0.130000
     22 H5          6.0470    1.2570   -0.9780 ha        1 0BV      0.135000
     23 H6          7.6740   -0.6310   -0.9170 ha        1 0BV      0.135000
     24 H7          7.0730   -2.7610    0.1720 ha        1 0BV      0.134000
     25 H8          6.5790   -4.4150    1.0200 ha        1 0BV      0.133000
     26 H9          5.8780   -6.4990    2.1350 ha        1 0BV      0.134000
     27 H10         3.6190   -6.6890    3.1660 ha        1 0BV      0.135000
     28 H11         2.0420   -4.7540    3.0730 ha        1 0BV      0.135000
     29 H12         1.5270   -2.5020    2.4090 ha        1 0BV      0.136000
@<TRIPOS>BOND
     1    1    2 2   
     2    2    3 1   
     3    2   18 1   
     4    3    4 1   
     5    3   19 1   
     6    3   20 1   
     7    4    5 ar  
     8    4   17 ar  
     9    5    6 ar  
    10    5   10 ar  
    11    6    7 ar  
    12    6   21 1   
    13    7    8 ar  
    14    7   22 1   
    15    8    9 ar  
    16    8   23 1   
    17    9   10 ar  
    18    9   24 1   
    19   10   11 ar  
    20   11   12 ar  
    21   11   16 ar  
    22   12   13 ar  
    23   12   25 1   
    24   13   14 ar  
    25   13   26 1   
    26   14   15 ar  
    27   14   27 1   
    28   15   16 ar  
    29   15   28 1   
    30   16   17 ar  
    31   17   29 1   
@<TRIPOS>SUBSTRUCTURE
     1 0BV         1 TEMP              0 ****  ****    0 ROOT
