@<TRIPOS>MOLECULE
0BV
   29    31     1     0     0
SMALL
bcc


@<TRIPOS>ATOM
      1 OAA         4.3310   -1.9580    0.6120 o         1 0BV     -0.528100
      2 CAB         3.3350   -1.2410    0.5050 c         1 0BV      0.566900
      3 CAL         2.4640   -1.2540   -0.7180 c3        1 0BV     -0.162100
      4 CAM         1.0910   -0.7440   -0.4490 ca        1 0BV     -0.075300
      5 CAO         0.8680    0.6620   -0.2190 ca        1 0BV     -0.028000
      6 CAH         1.9390    1.5860   -0.2280 ca        1 0BV     -0.129000
      7 CAD         1.7230    2.9320   -0.0120 ca        1 0BV     -0.122000
      8 CAF         0.4200    3.4010    0.2230 ca        1 0BV     -0.127000
      9 CAJ        -0.6410    2.5190    0.2370 ca        1 0BV     -0.116000
     10 CAQ        -0.4480    1.1340    0.0180 ca        1 0BV     -0.018000
     11 CAP        -1.5540    0.2040    0.0320 ca        1 0BV     -0.017000
     12 CAI        -2.8890    0.6080    0.2650 ca        1 0BV     -0.119000
     13 CAE        -3.9200   -0.3120    0.2700 ca        1 0BV     -0.124000
     14 CAC        -3.6600   -1.6750    0.0400 ca        1 0BV     -0.126000
     15 CAG        -2.3660   -2.0960   -0.1900 ca        1 0BV     -0.115000
     16 CAN        -1.3000   -1.1680   -0.1980 ca        1 0BV     -0.038000
     17 CAK         0.0400   -1.6130   -0.4370 ca        1 0BV     -0.104000
     18 H1          3.0310   -0.5330    1.3090 h4        1 0BV      0.008200
     19 H2          2.9600   -0.6270   -1.5100 hc        1 0BV      0.082700
     20 H3          2.4180   -2.3030   -1.1230 hc        1 0BV      0.082700
     21 H4          2.9630    1.2250   -0.4100 ha        1 0BV      0.130000
     22 H5          2.5640    3.6400   -0.0220 ha        1 0BV      0.135000
     23 H6          0.2520    4.4750    0.3940 ha        1 0BV      0.135000
     24 H7         -1.6530    2.9090    0.4230 ha        1 0BV      0.134000
     25 H8         -3.1220    1.6670    0.4480 ha        1 0BV      0.133000
     26 H9         -4.9540    0.0170    0.4530 ha        1 0BV      0.134000
     27 H10        -4.4900   -2.3960    0.0460 ha        1 0BV      0.135000
     28 H11        -2.1480   -3.1600   -0.3710 ha        1 0BV      0.135000
     29 H12         0.1960   -2.6900   -0.6150 ha        1 0BV      0.136000
@<TRIPOS>BOND
     1    1    2 2   
     2    2    3 1   
     3    2   18 1   
     4    3    4 1   
     5    3   19 1   
     6    3   20 1   
     7    4    5 ar  
     8    4   17 ar  
     9    5    6 ar  
    10    5   10 ar  
    11    6    7 ar  
    12    6   21 1   
    13    7    8 ar  
    14    7   22 1   
    15    8    9 ar  
    16    8   23 1   
    17    9   10 ar  
    18    9   24 1   
    19   10   11 ar  
    20   11   12 ar  
    21   11   16 ar  
    22   12   13 ar  
    23   12   25 1   
    24   13   14 ar  
    25   13   26 1   
    26   14   15 ar  
    27   14   27 1   
    28   15   16 ar  
    29   15   28 1   
    30   16   17 ar  
    31   17   29 1   
@<TRIPOS>SUBSTRUCTURE
     1 0BV         1 TEMP              0 ****  ****    0 ROOT
