@<TRIPOS>MOLECULE
0BV
   29    31     1     0     0
SMALL
bcc


@<TRIPOS>ATOM
      1 OAA         0.2310    0.7740   -0.2000 o         1 0BV     -0.528100
      2 CAB         1.3010    0.1870   -0.0400 c         1 0BV      0.566900
      3 CAL         1.8850   -0.0610    1.3220 c3        1 0BV     -0.162100
      4 CAM         2.8540   -1.1910    1.3320 ca        1 0BV     -0.075300
      5 CAO         4.1540   -1.0440    0.7240 ca        1 0BV     -0.028000
      6 CAH         4.5350    0.1640    0.0930 ca        1 0BV     -0.129000
      7 CAD         5.7800    0.3050   -0.4840 ca        1 0BV     -0.122000
      8 CAF         6.6910   -0.7640   -0.4510 ca        1 0BV     -0.127000
      9 CAJ         6.3410   -1.9520    0.1580 ca        1 0BV     -0.116000
     10 CAQ         5.0720   -2.1230    0.7580 ca        1 0BV     -0.018000
     11 CAP         4.6970   -3.3650    1.3980 ca        1 0BV     -0.017000
     12 CAI         5.5630   -4.4810    1.4640 ca        1 0BV     -0.119000
     13 CAE         5.1700   -5.6510    2.0850 ca        1 0BV     -0.124000
     14 CAC         3.8940   -5.7540    2.6670 ca        1 0BV     -0.126000
     15 CAG         3.0290   -4.6800    2.6170 ca        1 0BV     -0.115000
     16 CAN         3.4160   -3.4760    1.9840 ca        1 0BV     -0.038000
     17 CAK         2.5130   -2.3650    1.9360 ca        1 0BV     -0.104000
     18 H1          1.9020   -0.1860   -0.8990 h4        1 0BV      0.008200
     19 H2          2.3910    0.8840    1.6640 hc        1 0BV      0.082700
     20 H3          1.0490   -0.2570    2.0490 hc        1 0BV      0.082700
     21 H4          3.8260    1.0060    0.0620 ha        1 0BV      0.130000
     22 H5          6.0650    1.2500   -0.9710 ha        1 0BV      0.135000
     23 H6          7.6830   -0.6470   -0.9120 ha        1 0BV      0.135000
     24 H7          7.0700   -2.7760    0.1720 ha        1 0BV      0.134000
     25 H8          6.5670   -4.4290    1.0170 ha        1 0BV      0.133000
     26 H9          5.8540   -6.5110    2.1280 ha        1 0BV      0.134000
     27 H10         3.5940   -6.6910    3.1580 ha        1 0BV      0.135000
     28 H11         2.0270   -4.7470    3.0670 ha        1 0BV      0.135000
     29 H12         1.5240   -2.4910    2.4070 ha        1 0BV      0.136000
@<TRIPOS>BOND
     1    1    2 2   
     2    2    3 1   
     3    2   18 1   
     4    3    4 1   
     5    3   19 1   
     6    3   20 1   
     7    4    5 ar  
     8    4   17 ar  
     9    5    6 ar  
    10    5   10 ar  
    11    6    7 ar  
    12    6   21 1   
    13    7    8 ar  
    14    7   22 1   
    15    8    9 ar  
    16    8   23 1   
    17    9   10 ar  
    18    9   24 1   
    19   10   11 ar  
    20   11   12 ar  
    21   11   16 ar  
    22   12   13 ar  
    23   12   25 1   
    24   13   14 ar  
    25   13   26 1   
    26   14   15 ar  
    27   14   27 1   
    28   15   16 ar  
    29   15   28 1   
    30   16   17 ar  
    31   17   29 1   
@<TRIPOS>SUBSTRUCTURE
     1 0BV         1 TEMP              0 ****  ****    0 ROOT
