@<TRIPOS>MOLECULE
0BV
   29    23     1     0     0
SMALL
bcc


@<TRIPOS>ATOM
      1 OAA        -2.6480    1.2370   -1.8470 o         1 0BV     -0.289000
      2 CAB        -3.1130    1.7680   -0.8560 c1        1 0BV      0.185000
      3 CAL        -2.2500    1.9630    0.3720 c2        1 0BV     -0.198000
      4 CAM        -1.0740    1.0140    0.3180 c1        1 0BV     -0.068000
      5 CAO         0.2670    1.2040   -0.0860 c1        1 0BV     -0.023000
      6 CAH         0.7070    2.4790   -0.4850 c1        1 0BV     -0.122500
      7 CAD         2.0150    2.6580   -0.9190 c1        1 0BV     -0.122167
      8 CAF         2.8900    1.5760   -0.9580 c1        1 0BV     -0.122167
      9 CAJ         2.4570    0.3170   -0.5640 c1        1 0BV     -0.122500
     10 CAQ         1.1330    0.1340   -0.1250 c1        1 0BV     -0.023000
     11 CAP         0.6750   -1.1690    0.2430 c1        1 0BV     -0.017000
     12 CAI         1.5520   -2.2670    0.1840 c1        1 0BV     -0.122167
     13 CAE         1.1010   -3.5360    0.5230 c1        1 0BV     -0.122167
     14 CAC        -0.2210   -3.7230    0.9210 c1        1 0BV     -0.122167
     15 CAG        -1.0880   -2.6390    0.9790 c1        1 0BV     -0.122167
     16 CAN        -0.6320   -1.3530    0.6360 c1        1 0BV     -0.038000
     17 CAK        -1.5200   -0.2550    0.6760 c2        1 0BV     -0.104000
     18 H1         -4.0380    2.0840   -0.8590 ha        1 0BV      0.101000
     19 H2         -2.7790    1.7820    1.1740 ha        1 0BV      0.122000
     20 H3         -1.9240    2.8850    0.3980 ha        1 0BV      0.122000
     21 H4          0.0940    3.2380   -0.4580 ha        1 0BV      0.132000
     22 H5          2.3200    3.5430   -1.1950 ha        1 0BV      0.134500
     23 H6          3.8090    1.7030   -1.2630 ha        1 0BV      0.134500
     24 H7          3.0700   -0.4410   -0.5920 ha        1 0BV      0.132000
     25 H8          2.4780   -2.1370   -0.0940 ha        1 0BV      0.134500
     26 H9          1.7100   -4.2980    0.4830 ha        1 0BV      0.134500
     27 H10        -0.5370   -4.6150    1.1590 ha        1 0BV      0.134500
     28 H11        -2.0150   -2.7710    1.2580 ha        1 0BV      0.134500
     29 H12        -2.4390   -0.3810    0.9790 ha        1 0BV      0.136000
@<TRIPOS>BOND
     1    1    2 1   
     2    2   18 1   
     3    3    4 1   
     4    3   19 1   
     5    3   20 1   
     6    4   17 1   
     7    5    6 1   
     8    5   10 1   
     9    6   21 1   
    10    7    8 1   
    11    7   22 1   
    12    8   23 1   
    13    9   10 1   
    14    9   24 1   
    15   11   16 1   
    16   12   13 1   
    17   12   25 1   
    18   13   26 1   
    19   14   15 1   
    20   14   27 1   
    21   15   28 1   
    22   16   17 1   
    23   17   29 1   
@<TRIPOS>SUBSTRUCTURE
     1 0BV         1 TEMP              0 ****  ****    0 ROOT
