@<TRIPOS>MOLECULE
0BW
   54    56     1     0     0
SMALL
bcc


@<TRIPOS>ATOM
      1 CAO         0.5610    0.1920   -0.1110 c3        1 0BW      0.163800
      2 CAM         1.9910   -0.2880    0.2080 c3        1 0BW      0.168300
      3 NBA         2.0660   -1.0250    1.4590 n3        1 0BW     -0.735600
      4 CAC         3.3920   -1.5250    1.7410 c3        1 0BW      0.155100
      5 CAN         1.4950   -0.2750    2.5660 c3        1 0BW      0.168300
      6 CAP         0.0530    0.1900    2.2760 c3        1 0BW      0.163800
      7 NBB        -0.0510    0.9120    1.0080 nh        1 0BW     -0.670000
      8 CAZ        -1.3760    1.3620    0.7160 ca        1 0BW      0.169600
      9 CAJ        -2.5210    0.5500    0.8160 ca        1 0BW     -0.155000
     10 CAI        -3.7930    1.0520    0.5610 ca        1 0BW     -0.014000
     11 CAX        -3.9580    2.3920    0.1940 ca        1 0BW     -0.116600
     12 CAU        -5.2880    2.9670   -0.0840 c         1 0BW      0.639700
     13 OAE        -5.5300    4.1260   -0.4300 o         1 0BW     -0.526000
     14 OAR        -6.3180    2.0890    0.0730 os        1 0BW     -0.426900
     15 CAA        -7.6350    2.5970   -0.1830 c3        1 0BW      0.125700
     16 CAL        -2.8470    3.2300    0.0770 ca        1 0BW     -0.055000
     17 CAY        -1.5630    2.7240    0.3320 ca        1 0BW     -0.062400
     18 NAQ        -0.4120    3.6230    0.2170 n4        1 0BW     -0.541200
     19 CAT        -0.0910    3.9400   -1.2400 c         1 0BW      0.580700
     20 OAD         0.6710    3.1560   -1.7840 o         1 0BW     -0.414100
     21 CAW        -0.7430    5.1290   -1.7980 ca        1 0BW     -0.162600
     22 CAK        -1.2080    5.0410   -3.1130 ca        1 0BW     -0.088000
     23 CAH        -0.8600    6.3240   -1.0720 ca        1 0BW     -0.147000
     24 CAF        -1.4630    7.4290   -1.6670 ca        1 0BW     -0.076000
     25 CAG        -1.9560    7.3600   -2.9710 ca        1 0BW     -0.146000
     26 CAV        -1.8260    6.1670   -3.6950 ca        1 0BW      0.145100
     27 OAS        -2.2630    5.9750   -4.9810 os        1 0BW     -0.309900
     28 CAB        -2.8750    7.0940   -5.6240 c3        1 0BW      0.105700
     29 H1          0.6160    0.8970   -0.9870 h1        1 0BW      0.055200
     30 H2         -0.0640   -0.6990   -0.4090 h1        1 0BW      0.055200
     31 H3          2.6840    0.6040    0.2010 h1        1 0BW      0.049200
     32 H4          2.3070   -0.9790   -0.6230 h1        1 0BW      0.049200
     33 H6          3.7240   -2.1660    0.8820 h1        1 0BW      0.044367
     34 H7          4.1510   -0.7100    1.8960 h1        1 0BW      0.044367
     35 H8          3.3490   -2.1570    2.6660 h1        1 0BW      0.044367
     36 H9          1.4560   -0.9530    3.4650 h1        1 0BW      0.049200
     37 H10         2.1210    0.6250    2.8370 h1        1 0BW      0.049200
     38 H11        -0.2640    0.8890    3.0990 h1        1 0BW      0.055200
     39 H12        -0.6240   -0.7120    2.2980 h1        1 0BW      0.055200
     40 H13        -2.4100   -0.5120    1.0990 ha        1 0BW      0.176000
     41 H14        -4.6800    0.3970    0.6440 ha        1 0BW      0.188000
     42 H15        -7.7070    2.9420   -1.2420 h1        1 0BW      0.064700
     43 H16        -7.8570    3.4380    0.5150 h1        1 0BW      0.064700
     44 H17        -8.2910    1.7120    0.0100 h1        1 0BW      0.064700
     45 H18        -3.0060    4.2840   -0.2210 ha        1 0BW      0.180000
     46 H19         0.4100    3.1710    0.6510 hn        1 0BW      0.470300
     47 H20        -1.0990    4.1160   -3.7030 ha        1 0BW      0.179000
     48 H21        -0.4500    6.4260   -0.0570 ha        1 0BW      0.132000
     49 H22        -1.5520    8.3720   -1.1030 ha        1 0BW      0.164000
     50 H23        -2.4360    8.2440   -3.4210 ha        1 0BW      0.168000
     51 H24        -2.1550    7.9440   -5.7000 h1        1 0BW      0.062033
     52 H25        -3.1260    6.6930   -6.6400 h1        1 0BW      0.062033
     53 H26        -3.8000    7.3990   -5.0780 h1        1 0BW      0.062033
     54 HAQ2       -0.6270    4.4910    0.7200 hn        1 0BW      0.470300
@<TRIPOS>BOND
     1    1    2 1   
     2    1    7 1   
     3    1   29 1   
     4    1   30 1   
     5    2    3 1   
     6    2   31 1   
     7    2   32 1   
     8    3    4 1   
     9    3    5 1   
    10    4   33 1   
    11    4   34 1   
    12    4   35 1   
    13    5    6 1   
    14    5   36 1   
    15    5   37 1   
    16    6    7 1   
    17    6   38 1   
    18    6   39 1   
    19    7    8 1   
    20    8    9 ar  
    21    8   17 ar  
    22    9   10 ar  
    23    9   40 1   
    24   10   11 ar  
    25   10   41 1   
    26   11   12 1   
    27   11   16 ar  
    28   12   13 2   
    29   12   14 1   
    30   14   15 1   
    31   15   42 1   
    32   15   43 1   
    33   15   44 1   
    34   16   17 ar  
    35   16   45 1   
    36   17   18 1   
    37   18   19 1   
    38   18   46 1   
    39   18   54 1   
    40   19   20 2   
    41   19   21 1   
    42   21   22 ar  
    43   21   23 ar  
    44   22   26 ar  
    45   22   47 1   
    46   23   24 ar  
    47   23   48 1   
    48   24   25 ar  
    49   24   49 1   
    50   25   26 ar  
    51   25   50 1   
    52   26   27 1   
    53   27   28 1   
    54   28   51 1   
    55   28   52 1   
    56   28   53 1   
@<TRIPOS>SUBSTRUCTURE
     1 0BW         1 TEMP              0 ****  ****    0 ROOT
