@<TRIPOS>MOLECULE
0BW
   53    55     1     0     0
SMALL
bcc


@<TRIPOS>ATOM
      1 CAO        -0.0600    0.2190   -0.2680 c3        1 0BW      0.170300
      2 CAM         1.4800    0.1840   -0.3130 c3        1 0BW      0.167300
      3 NBA         2.0850    0.1060    1.0080 n3        1 0BW     -0.733600
      4 CAC         3.5290    0.0870    0.9550 c3        1 0BW      0.157100
      5 CAN         1.5730    1.1270    1.9110 c3        1 0BW      0.167300
      6 CAP         0.0340    1.1600    1.9660 c3        1 0BW      0.170300
      7 NBB        -0.5690    1.2430    0.6400 nh        1 0BW     -0.636000
      8 CAZ        -2.0050    1.2730    0.6800 ca        1 0BW      0.066600
      9 CAJ        -2.7510    0.2320    1.2610 ca        1 0BW     -0.150000
     10 CAI        -4.1380    0.2680    1.3040 ca        1 0BW     -0.093000
     11 CAX        -4.8140    1.3660    0.7650 ca        1 0BW     -0.110600
     12 CAU        -6.2820    1.4490    0.8080 c         1 0BW      0.643700
     13 OAE        -7.0040    2.4090    0.5250 o         1 0BW     -0.532000
     14 OAR        -6.8960    0.2940    1.2250 os        1 0BW     -0.441900
     15 CAA        -8.3220    0.3190    1.2810 c3        1 0BW      0.127700
     16 CAL        -4.1080    2.4170    0.1790 ca        1 0BW     -0.097000
     17 CAY        -2.6970    2.3960    0.1200 ca        1 0BW      0.076600
     18 NAQ        -1.9770    3.4640   -0.4370 ns        1 0BW     -0.462100
     19 CAT        -2.4340    4.3210   -1.4340 c         1 0BW      0.673700
     20 OAD        -3.5890    4.2700   -1.8940 o         1 0BW     -0.574100
     21 CAW        -1.4440    5.3270   -1.9260 ca        1 0BW     -0.114600
     22 CAK        -1.3850    5.5660   -3.2980 ca        1 0BW     -0.105000
     23 CAH        -0.6190    6.0340   -1.0420 ca        1 0BW     -0.140000
     24 CAF         0.2740    6.9800   -1.5400 ca        1 0BW     -0.102000
     25 CAG         0.3610    7.2270   -2.9100 ca        1 0BW     -0.184000
     26 CAV        -0.4700    6.5190   -3.7850 ca        1 0BW      0.118100
     27 OAS        -0.4740    6.6710   -5.1580 os        1 0BW     -0.321900
     28 CAB         0.3830    7.6790   -5.6810 c3        1 0BW      0.112700
     29 H1         -0.4380   -0.8070    0.0120 h1        1 0BW      0.045200
     30 H2         -0.4350    0.4590   -1.3010 h1        1 0BW      0.045200
     31 H3          1.8460    1.0850   -0.8880 h1        1 0BW      0.038450
     32 H4          1.7830   -0.7370   -0.8860 h1        1 0BW      0.038450
     33 H6          3.9730    1.0320    0.5370 h1        1 0BW      0.033700
     34 H7          3.9260   -0.0640    1.9930 h1        1 0BW      0.033700
     35 H8          3.8550   -0.7740    0.3150 h1        1 0BW      0.033700
     36 H9          1.9470    0.8890    2.9460 h1        1 0BW      0.038450
     37 H10         1.9490    2.1550    1.6350 h1        1 0BW      0.038450
     38 H11        -0.2760    2.0780    2.5400 h1        1 0BW      0.045200
     39 H12        -0.3270    0.2550    2.5360 h1        1 0BW      0.045200
     40 H13        -2.2260   -0.6390    1.6870 ha        1 0BW      0.142000
     41 H14        -4.7060   -0.5600    1.7570 ha        1 0BW      0.157000
     42 H15        -8.6620    1.1000    2.0030 h1        1 0BW      0.051033
     43 H16        -8.7400    0.5290    0.2670 h1        1 0BW      0.051033
     44 H17        -8.5900   -0.7080    1.6310 h1        1 0BW      0.051033
     45 H18        -4.6750    3.2680   -0.2450 ha        1 0BW      0.193000
     46 H19        -0.9990    3.4890   -0.2380 hn        1 0BW      0.338500
     47 H20        -2.0490    5.0320   -3.9950 ha        1 0BW      0.171000
     48 H21        -0.6840    5.8630    0.0420 ha        1 0BW      0.141000
     49 H22         0.9180    7.5420   -0.8470 ha        1 0BW      0.137000
     50 H23         1.0730    7.9750   -3.2850 ha        1 0BW      0.141000
     51 H24         0.1170    8.6810   -5.2650 h1        1 0BW      0.046367
     52 H25         1.4520    7.4370   -5.4650 h1        1 0BW      0.046367
     53 H26         0.1840    7.6420   -6.7820 h1        1 0BW      0.046367
@<TRIPOS>BOND
     1    1    2 1   
     2    1    7 1   
     3    1   29 1   
     4    1   30 1   
     5    2    3 1   
     6    2   31 1   
     7    2   32 1   
     8    3    4 1   
     9    3    5 1   
    10    4   33 1   
    11    4   34 1   
    12    4   35 1   
    13    5    6 1   
    14    5   36 1   
    15    5   37 1   
    16    6    7 1   
    17    6   38 1   
    18    6   39 1   
    19    7    8 1   
    20    8    9 ar  
    21    8   17 ar  
    22    9   10 ar  
    23    9   40 1   
    24   10   11 ar  
    25   10   41 1   
    26   11   12 1   
    27   11   16 ar  
    28   12   13 2   
    29   12   14 1   
    30   14   15 1   
    31   15   42 1   
    32   15   43 1   
    33   15   44 1   
    34   16   17 ar  
    35   16   45 1   
    36   17   18 1   
    37   18   19 1   
    38   18   46 1   
    39   19   20 2   
    40   19   21 1   
    41   21   22 ar  
    42   21   23 ar  
    43   22   26 ar  
    44   22   47 1   
    45   23   24 ar  
    46   23   48 1   
    47   24   25 ar  
    48   24   49 1   
    49   25   26 ar  
    50   25   50 1   
    51   26   27 1   
    52   27   28 1   
    53   28   51 1   
    54   28   52 1   
    55   28   53 1   
@<TRIPOS>SUBSTRUCTURE
     1 0BW         1 TEMP              0 ****  ****    0 ROOT
