@<TRIPOS>MOLECULE
0BW
   53    55     1     0     0
SMALL
bcc


@<TRIPOS>ATOM
      1 CAO        -0.0520    0.2240   -0.2630 c3        1 0BW      0.170300
      2 CAM         1.4880    0.1950   -0.3070 c3        1 0BW      0.167300
      3 NBA         2.0920    0.1200    1.0150 n3        1 0BW     -0.733600
      4 CAC         3.5360    0.1060    0.9620 c3        1 0BW      0.157100
      5 CAN         1.5770    1.1410    1.9150 c3        1 0BW      0.167300
      6 CAP         0.0370    1.1690    1.9700 c3        1 0BW      0.170300
      7 NBB        -0.5650    1.2480    0.6430 nh        1 0BW     -0.636000
      8 CAZ        -2.0010    1.2740    0.6830 ca        1 0BW      0.066600
      9 CAJ        -2.7440    0.2310    1.2650 ca        1 0BW     -0.150000
     10 CAI        -4.1310    0.2630    1.3080 ca        1 0BW     -0.093000
     11 CAX        -4.8100    1.3570    0.7660 ca        1 0BW     -0.110600
     12 CAU        -6.2790    1.4350    0.8080 c         1 0BW      0.643700
     13 OAE        -7.0040    2.3920    0.5230 o         1 0BW     -0.532000
     14 OAR        -6.8890    0.2790    1.2270 os        1 0BW     -0.441900
     15 CAA        -8.3160    0.2990    1.2810 c3        1 0BW      0.127700
     16 CAL        -4.1070    2.4100    0.1780 ca        1 0BW     -0.097000
     17 CAY        -2.6960    2.3930    0.1200 ca        1 0BW      0.076600
     18 NAQ        -1.9800    3.4620   -0.4390 n         1 0BW     -0.462100
     19 CAT        -2.4390    4.3150   -1.4380 c         1 0BW      0.673700
     20 OAD        -3.5930    4.2590   -1.8990 o         1 0BW     -0.574100
     21 CAW        -1.4520    5.3240   -1.9310 ca        1 0BW     -0.114600
     22 CAK        -1.3920    5.5590   -3.3040 ca        1 0BW     -0.105000
     23 CAH        -0.6320    6.0370   -1.0480 ca        1 0BW     -0.140000
     24 CAF         0.2580    6.9850   -1.5470 ca        1 0BW     -0.102000
     25 CAG         0.3470    7.2290   -2.9170 ca        1 0BW     -0.184000
     26 CAV        -0.4800    6.5140   -3.7920 ca        1 0BW      0.118100
     27 OAS        -0.4820    6.6630   -5.1650 os        1 0BW     -0.321900
     28 CAB         0.3720    7.6730   -5.6890 c3        1 0BW      0.112700
     29 H1         -0.4270   -0.8030    0.0180 h1        1 0BW      0.045200
     30 H2         -0.4280    0.4620   -1.2960 h1        1 0BW      0.045200
     31 H3          1.7950   -0.7260   -0.8780 h1        1 0BW      0.038450
     32 H4          1.8510    1.0960   -0.8830 h1        1 0BW      0.038450
     33 H6          3.9330   -0.0420    2.0010 h1        1 0BW      0.033700
     34 H7          3.8660   -0.7540    0.3230 h1        1 0BW      0.033700
     35 H8          3.9780    1.0530    0.5430 h1        1 0BW      0.033700
     36 H9          1.9510    0.9060    2.9510 h1        1 0BW      0.038450
     37 H10         1.9500    2.1700    1.6380 h1        1 0BW      0.038450
     38 H11        -0.2750    2.0860    2.5430 h1        1 0BW      0.045200
     39 H12        -0.3200    0.2640    2.5410 h1        1 0BW      0.045200
     40 H13        -2.2160   -0.6370    1.6940 ha        1 0BW      0.142000
     41 H14        -4.6960   -0.5670    1.7620 ha        1 0BW      0.157000
     42 H15        -8.5800   -0.7280    1.6320 h1        1 0BW      0.051033
     43 H16        -8.7340    0.5060    0.2670 h1        1 0BW      0.051033
     44 H17        -8.6580    1.0800    2.0020 h1        1 0BW      0.051033
     45 H18        -4.6780    3.2570   -0.2480 ha        1 0BW      0.193000
     46 H19        -1.0020    3.4910   -0.2390 hn        1 0BW      0.338500
     47 H20        -2.0530    5.0200   -4.0000 ha        1 0BW      0.171000
     48 H21        -0.6980    5.8690    0.0370 ha        1 0BW      0.141000
     49 H22         0.8990    7.5510   -0.8540 ha        1 0BW      0.137000
     50 H23         1.0570    7.9780   -3.2930 ha        1 0BW      0.141000
     51 H24         0.1760    7.6320   -6.7910 h1        1 0BW      0.046367
     52 H25         1.4420    7.4350   -5.4710 h1        1 0BW      0.046367
     53 H26         0.1010    8.6750   -5.2770 h1        1 0BW      0.046367
@<TRIPOS>BOND
     1    1    2 1   
     2    1    7 1   
     3    1   29 1   
     4    1   30 1   
     5    2    3 1   
     6    2   31 1   
     7    2   32 1   
     8    3    4 1   
     9    3    5 1   
    10    4   33 1   
    11    4   34 1   
    12    4   35 1   
    13    5    6 1   
    14    5   36 1   
    15    5   37 1   
    16    6    7 1   
    17    6   38 1   
    18    6   39 1   
    19    7    8 1   
    20    8    9 ar  
    21    8   17 ar  
    22    9   10 ar  
    23    9   40 1   
    24   10   11 ar  
    25   10   41 1   
    26   11   12 1   
    27   11   16 ar  
    28   12   13 2   
    29   12   14 1   
    30   14   15 1   
    31   15   42 1   
    32   15   43 1   
    33   15   44 1   
    34   16   17 ar  
    35   16   45 1   
    36   17   18 1   
    37   18   19 1   
    38   18   46 1   
    39   19   20 2   
    40   19   21 1   
    41   21   22 ar  
    42   21   23 ar  
    43   22   26 ar  
    44   22   47 1   
    45   23   24 ar  
    46   23   48 1   
    47   24   25 ar  
    48   24   49 1   
    49   25   26 ar  
    50   25   50 1   
    51   26   27 1   
    52   27   28 1   
    53   28   51 1   
    54   28   52 1   
    55   28   53 1   
@<TRIPOS>SUBSTRUCTURE
     1 0BW         1 TEMP              0 ****  ****    0 ROOT
