@<TRIPOS>MOLECULE
0BW
   53    55     1     0     0
SMALL
bcc


@<TRIPOS>ATOM
      1 CAO        -1.7400   -2.7180   -1.3450 c3        1 0BW      0.169800
      2 CAM        -1.2010   -4.1610   -1.3410 c3        1 0BW      0.167300
      3 NBA        -1.5640   -4.8990   -0.1400 n3        1 0BW     -0.733600
      4 CAC        -1.0470   -6.2480   -0.1410 c3        1 0BW      0.157100
      5 CAN        -1.2290   -4.1730    1.0760 c3        1 0BW      0.167300
      6 CAP        -1.7670   -2.7300    1.0810 c3        1 0BW      0.169800
      7 NBB        -1.4000   -1.9930   -0.1240 nh        1 0BW     -0.635000
      8 CAZ        -1.9090   -0.6480   -0.1200 ca        1 0BW      0.064600
      9 CAJ        -3.2900   -0.3820   -0.1680 ca        1 0BW     -0.149000
     10 CAI        -3.7790    0.9170   -0.1630 ca        1 0BW     -0.094000
     11 CAX        -2.8840    1.9890   -0.1170 ca        1 0BW     -0.109600
     12 CAU        -3.3630    3.3800   -0.1270 c         1 0BW      0.643700
     13 OAE        -2.7050    4.4160   -0.2470 o         1 0BW     -0.532000
     14 OAR        -4.7230    3.5030    0.0150 os        1 0BW     -0.441900
     15 CAA        -5.2420    4.8340    0.0160 c3        1 0BW      0.127700
     16 CAL        -1.5070    1.7630   -0.0730 ca        1 0BW     -0.097000
     17 CAY        -0.9900    0.4490   -0.0710 ca        1 0BW      0.077600
     18 NAQ         0.3930    0.2110   -0.0610 n         1 0BW     -0.461100
     19 CAT         1.3640    1.0530    0.4710 c         1 0BW      0.673700
     20 OAD         1.1100    2.1880    0.9100 o         1 0BW     -0.575100
     21 CAW         2.7620    0.5230    0.4460 ca        1 0BW     -0.112600
     22 CAK         3.7780    1.3790    0.0240 ca        1 0BW     -0.103000
     23 CAH         3.0550   -0.7820    0.8630 ca        1 0BW     -0.143000
     24 CAF         4.3730   -1.2300    0.8490 ca        1 0BW     -0.101000
     25 CAG         5.4060   -0.3970    0.4190 ca        1 0BW     -0.185000
     26 CAV         5.1040    0.9070    0.0080 ca        1 0BW      0.119100
     27 OAS         6.0350    1.8230   -0.4390 os        1 0BW     -0.321900
     28 CAB         7.3940    1.4000   -0.4200 c3        1 0BW      0.112700
     29 H1         -1.2710   -2.1710   -2.2090 h1        1 0BW      0.045450
     30 H2         -2.8550   -2.7480   -1.5160 h1        1 0BW      0.045450
     31 H3         -1.6530   -4.6960   -2.2230 h1        1 0BW      0.037950
     32 H4         -0.0820   -4.1310   -1.4910 h1        1 0BW      0.037950
     33 H6          0.0770   -6.2950   -0.1290 h1        1 0BW      0.033367
     34 H7         -1.4360   -6.7840    0.7640 h1        1 0BW      0.033367
     35 H8         -1.4160   -6.7750   -1.0600 h1        1 0BW      0.033367
     36 H9         -1.7000   -4.7170    1.9420 h1        1 0BW      0.037950
     37 H10        -0.1130   -4.1460    1.2510 h1        1 0BW      0.037950
     38 H11        -2.8850   -2.7600    1.2260 h1        1 0BW      0.045450
     39 H12        -1.3170   -2.1920    1.9620 h1        1 0BW      0.045450
     40 H13        -4.0030   -1.2220   -0.2060 ha        1 0BW      0.142000
     41 H14        -4.8640    1.1070   -0.1930 ha        1 0BW      0.157000
     42 H15        -4.8010    5.4140    0.8620 h1        1 0BW      0.051033
     43 H16        -5.0080    5.3350   -0.9540 h1        1 0BW      0.051033
     44 H17        -6.3420    4.6870    0.1480 h1        1 0BW      0.051033
     45 H18        -0.8270    2.6360   -0.0330 ha        1 0BW      0.194000
     46 H19         0.6830   -0.7110   -0.3100 hn        1 0BW      0.337500
     47 H20         3.5560    2.4130   -0.2810 ha        1 0BW      0.171000
     48 H21         2.2570   -1.4490    1.2190 ha        1 0BW      0.140000
     49 H22         4.6070   -2.2530    1.1810 ha        1 0BW      0.137000
     50 H23         6.4400   -0.7680    0.4100 ha        1 0BW      0.141000
     51 H24         7.5450    0.5310   -1.1050 h1        1 0BW      0.046367
     52 H25         7.9490    2.2980   -0.7920 h1        1 0BW      0.046367
     53 H26         7.7130    1.1410    0.6190 h1        1 0BW      0.046367
@<TRIPOS>BOND
     1    1    2 1   
     2    1    7 1   
     3    1   29 1   
     4    1   30 1   
     5    2    3 1   
     6    2   31 1   
     7    2   32 1   
     8    3    4 1   
     9    3    5 1   
    10    4   33 1   
    11    4   34 1   
    12    4   35 1   
    13    5    6 1   
    14    5   36 1   
    15    5   37 1   
    16    6    7 1   
    17    6   38 1   
    18    6   39 1   
    19    7    8 1   
    20    8    9 ar  
    21    8   17 ar  
    22    9   10 ar  
    23    9   40 1   
    24   10   11 ar  
    25   10   41 1   
    26   11   12 1   
    27   11   16 ar  
    28   12   13 2   
    29   12   14 1   
    30   14   15 1   
    31   15   42 1   
    32   15   43 1   
    33   15   44 1   
    34   16   17 ar  
    35   16   45 1   
    36   17   18 1   
    37   18   19 1   
    38   18   46 1   
    39   19   20 2   
    40   19   21 1   
    41   21   22 ar  
    42   21   23 ar  
    43   22   26 ar  
    44   22   47 1   
    45   23   24 ar  
    46   23   48 1   
    47   24   25 ar  
    48   24   49 1   
    49   25   26 ar  
    50   25   50 1   
    51   26   27 1   
    52   27   28 1   
    53   28   51 1   
    54   28   52 1   
    55   28   53 1   
@<TRIPOS>SUBSTRUCTURE
     1 0BW         1 TEMP              0 ****  ****    0 ROOT
