@<TRIPOS>MOLECULE
0BW
   53    46     1     0     0
SMALL
bcc


@<TRIPOS>ATOM
      1 CAO         1.6070    1.9960   -2.0560 c3        1 0BW     -0.085000
      2 CAM         3.1030    2.1850   -2.2530 c3        1 0BW     -0.098500
      3 NBA         3.6730    2.6210   -1.1530 n3        1 0BW     -0.245000
      4 CAC         5.0630    2.9450   -1.4360 c3        1 0BW     -0.131000
      5 CAN         3.2030    3.4790   -0.3370 c3        1 0BW     -0.098500
      6 CAP         1.6950    3.2870   -0.1340 c3        1 0BW     -0.085000
      7 NBB         1.2010    1.8820   -0.5360 n3        1 0BW     -0.247000
      8 CAZ        -0.2740    1.8300   -0.4270 c1        1 0BW      0.026000
      9 CAJ        -1.0410    2.9410   -0.7990 c1        1 0BW     -0.133500
     10 CAI        -2.4290    2.8580   -0.8030 c1        1 0BW     -0.133500
     11 CAX        -3.0700    1.6460   -0.4310 c1        1 0BW     -0.017000
     12 CAU        -4.5770    1.5560   -0.4290 c1        1 0BW      0.347000
     13 OAE        -5.2020    1.8050    0.5900 o         1 0BW     -0.346000
     14 OAR        -5.2520    1.3370   -1.6160 o         1 0BW     -0.242500
     15 CAA        -6.6660    1.6180   -1.5500 c3        1 0BW     -0.069500
     16 CAL        -2.3130    0.5470   -0.0630 c1        1 0BW     -0.089500
     17 CAY        -0.9120    0.6290   -0.0580 c1        1 0BW      0.052000
     18 NAQ        -0.1520   -0.4470    0.4290 n         1 0BW     -0.325000
     19 CAT        -0.7300   -1.7450    0.5120 c2        1 0BW      0.347000
     20 OAD        -1.8780   -1.9200    0.1610 o         1 0BW     -0.338000
     21 CAW         0.1060   -2.9570    1.1610 c1        1 0BW     -0.092000
     22 CAK        -0.4570   -3.7280    2.1750 c1        1 0BW     -0.089500
     23 CAH         1.3780   -3.2920    0.6390 c1        1 0BW     -0.145000
     24 CAF         2.0750   -4.4020    1.1400 c1        1 0BW     -0.133500
     25 CAG         1.5160   -5.1760    2.1540 c1        1 0BW     -0.133500
     26 CAV         0.2400   -4.8430    2.6800 c1        1 0BW     -0.017000
     27 OAS        -0.2960   -5.5800    3.7710 o         1 0BW     -0.242500
     28 CAB        -0.7740   -6.8740    3.4180 c3        1 0BW     -0.069500
     29 H1          1.1310    2.7610   -2.4570 h1        1 0BW      0.095250
     30 H2          1.3360    1.1970   -2.5050 h1        1 0BW      0.095250
     31 H3          3.5220    1.2850   -2.5170 h1        1 0BW      0.095750
     32 H4          3.2440    2.7850   -2.9210 h1        1 0BW      0.095750
     33 H6          5.4940    2.1780   -1.8870 h1        1 0BW      0.076000
     34 H7          5.5490    3.1420   -0.5690 h1        1 0BW      0.076000
     35 H8          5.1040    3.7550   -2.0350 h1        1 0BW      0.076000
     36 H9          3.3500    4.3020   -0.6580 h1        1 0BW      0.095750
     37 H10         3.6720    3.3830    0.5540 h1        1 0BW      0.095750
     38 H11         1.4800    3.4390    0.8350 h1        1 0BW      0.095250
     39 H12         1.1910    3.9890   -0.7050 h1        1 0BW      0.095250
     40 H13        -0.5500    3.8700   -1.0850 ha        1 0BW      0.143500
     41 H14        -2.9360    3.5940   -1.0490 ha        1 0BW      0.143500
     42 H15        -7.0830    1.0530   -0.8620 h1        1 0BW      0.088000
     43 H16        -6.8010    2.5730   -1.3220 h1        1 0BW      0.088000
     44 H17        -7.0680    1.4320   -2.3980 h1        1 0BW      0.088000
     45 H18        -2.7810   -0.3310    0.2070 ha        1 0BW      0.180000
     46 H19         0.6740   -0.3010    0.7590 hn        1 0BW      0.248000
     47 H20        -1.4250   -3.4690    2.5760 ha        1 0BW      0.180000
     48 H21         1.7660   -2.7580   -0.0620 ha        1 0BW      0.135000
     49 H22         2.9410   -4.6260    0.7840 ha        1 0BW      0.143500
     50 H23         1.9810   -5.9170    2.4880 ha        1 0BW      0.143500
     51 H24        -1.4220   -7.1950    4.1180 h1        1 0BW      0.088000
     52 H25        -0.0050   -7.5100    3.3610 h1        1 0BW      0.088000
     53 H26        -1.2010   -6.8310    2.5980 h1        1 0BW      0.088000
@<TRIPOS>BOND
     1    1    2 1   
     2    1    7 1   
     3    1   29 1   
     4    1   30 1   
     5    2    3 1   
     6    2   31 1   
     7    2   32 1   
     8    3    4 1   
     9    3    5 1   
    10    4   33 1   
    11    4   34 1   
    12    4   35 1   
    13    5    6 1   
    14    5   36 1   
    15    5   37 1   
    16    6    7 1   
    17    6   38 1   
    18    6   39 1   
    19    7    8 1   
    20    8   17 1   
    21    9   10 1   
    22    9   40 1   
    23   10   41 1   
    24   11   16 1   
    25   12   13 1   
    26   14   15 1   
    27   15   42 1   
    28   15   43 1   
    29   15   44 1   
    30   16   45 1   
    31   17   18 1   
    32   18   19 1   
    33   18   46 1   
    34   19   20 1   
    35   19   21 1   
    36   21   23 1   
    37   22   26 1   
    38   22   47 1   
    39   23   48 1   
    40   24   25 1   
    41   24   49 1   
    42   25   50 1   
    43   27   28 1   
    44   28   51 1   
    45   28   52 1   
    46   28   53 1   
@<TRIPOS>SUBSTRUCTURE
     1 0BW         1 TEMP              0 ****  ****    0 ROOT
