@<TRIPOS>MOLECULE
0BX
   36    38     1     0     0
SMALL
bcc


@<TRIPOS>ATOM
      1 C06        -0.0270   -0.0290   -0.1980 ca        1 0BX     -0.118600
      2 C11        -0.5750   -0.1120   -1.6160 c         1 0BX      0.908200
      3 C05         1.3470   -0.1500    0.0360 ca        1 0BX     -0.103500
      4 C10         1.8600   -0.0720    1.3250 ca        1 0BX     -0.153000
      5 C09         0.9930    0.1400    2.4200 ca        1 0BX      0.070600
      6 C08        -0.3900    0.2590    2.1870 ca        1 0BX     -0.153000
      7 C07        -0.8820    0.1700    0.8860 ca        1 0BX     -0.103500
      8 N01         1.5420    0.3120    3.7220 nu        1 0BX     -0.687300
      9 C12         1.2660   -0.5720    4.7710 ca        1 0BX      0.903900
     10 N03         0.0960   -1.3300    4.7430 nb        1 0BX     -0.734000
     11 C15        -0.1530   -2.0640    5.8330 ca        1 0BX      0.480200
     12 C14         0.6750   -2.1100    6.9630 ca        1 0BX     -0.487600
     13 C13         1.8690   -1.3260    6.9120 ca        1 0BX      0.696200
     14 N02         2.1730   -0.5600    5.8290 nb        1 0BX     -0.814000
     15 N04         2.7560   -1.4160    8.0070 nu        1 0BX     -0.724300
     16 C16         3.8750   -0.5720    8.1690 ca        1 0BX      0.146600
     17 C17         4.0830    0.0850    9.4040 ca        1 0BX     -0.148000
     18 C18         5.2290    0.8440    9.6130 ca        1 0BX     -0.115500
     19 C19         6.1840    0.9770    8.6070 ca        1 0BX     -0.155000
     20 C20         5.9870    0.3350    7.3850 ca        1 0BX     -0.115500
     21 C21         4.8520   -0.4390    7.1590 ca        1 0BX     -0.148000
     22 O22        -1.8220    0.0090   -1.7760 o         1 0BX     -0.828800
     23 O23         0.2490   -0.2940   -2.5570 o         1 0BX     -0.828800
     24 H1          2.0110   -0.3090   -0.8300 ha        1 0BX      0.155000
     25 H2          2.9440   -0.1700    1.4840 ha        1 0BX      0.118000
     26 H3         -1.0850    0.4180    3.0230 ha        1 0BX      0.118000
     27 H4         -1.9630    0.2600    0.6880 ha        1 0BX      0.155000
     28 H5          2.4740    0.6760    3.7170 hn        1 0BX      0.428800
     29 H6         -1.0840   -2.6590    5.7960 h4        1 0BX      0.020100
     30 H7          0.4210   -2.7300    7.8270 ha        1 0BX      0.141000
     31 H8          2.2800   -1.6230    8.8620 hn        1 0BX      0.415800
     32 H9          3.3400    0.0010   10.2110 ha        1 0BX      0.141000
     33 H10         5.3760    1.3480   10.5800 ha        1 0BX      0.127500
     34 H11         7.0830    1.5850    8.7740 ha        1 0BX      0.126000
     35 H12         6.7360    0.4370    6.5860 ha        1 0BX      0.127500
     36 H13         4.7250   -0.9400    6.1870 ha        1 0BX      0.141000
@<TRIPOS>BOND
     1    1    2 1   
     2    1    3 ar  
     3    1    7 ar  
     4    2   22 1   
     5    2   23 1   
     6    3    4 ar  
     7    3   24 1   
     8    4    5 ar  
     9    4   25 1   
    10    5    6 ar  
    11    5    8 1   
    12    6    7 ar  
    13    6   26 1   
    14    7   27 1   
    15    8    9 1   
    16    8   28 1   
    17    9   10 ar  
    18    9   14 ar  
    19   10   11 ar  
    20   11   12 ar  
    21   11   29 1   
    22   12   13 ar  
    23   12   30 1   
    24   13   14 ar  
    25   13   15 1   
    26   15   16 1   
    27   15   31 1   
    28   16   17 ar  
    29   16   21 ar  
    30   17   18 ar  
    31   17   32 1   
    32   18   19 ar  
    33   18   33 1   
    34   19   20 ar  
    35   19   34 1   
    36   20   21 ar  
    37   20   35 1   
    38   21   36 1   
@<TRIPOS>SUBSTRUCTURE
     1 0BX         1 TEMP              0 ****  ****    0 ROOT
