@<TRIPOS>MOLECULE
0BX
   36    38     1     0     0
SMALL
bcc


@<TRIPOS>ATOM
      1 C06        -4.7100    0.5010    0.0350 ca        1 0BX     -0.118600
      2 C11        -6.2210    0.5950   -0.1240 c         1 0BX      0.908200
      3 C05        -3.8750    1.4360   -0.5860 ca        1 0BX     -0.103500
      4 C10        -2.4950    1.3640   -0.4460 ca        1 0BX     -0.153000
      5 C09        -1.9160    0.3410    0.3390 ca        1 0BX      0.070600
      6 C08        -2.7530   -0.6020    0.9620 ca        1 0BX     -0.153000
      7 C07        -4.1350   -0.5140    0.8010 ca        1 0BX     -0.103500
      8 N01        -0.5090    0.3370    0.5510 nh        1 0BX     -0.687300
      9 C12         0.3080   -0.7120    0.1120 ca        1 0BX      0.903900
     10 N03        -0.2420   -1.9780   -0.0820 nb        1 0BX     -0.734000
     11 C15         0.6230   -2.9510   -0.3900 ca        1 0BX      0.480200
     12 C14         2.0060   -2.7690   -0.5230 ca        1 0BX     -0.487600
     13 C13         2.4960   -1.4400   -0.3340 ca        1 0BX      0.696200
     14 N02         1.6630   -0.4110   -0.0180 nb        1 0BX     -0.814000
     15 N04         3.8750   -1.2180   -0.5380 nh        1 0BX     -0.724300
     16 C16         4.5200   -0.0050   -0.2180 ca        1 0BX      0.146600
     17 C17         5.7090   -0.0250    0.5480 ca        1 0BX     -0.148000
     18 C18         6.4100    1.1510    0.7920 ca        1 0BX     -0.115500
     19 C19         5.9460    2.3670    0.2960 ca        1 0BX     -0.155000
     20 C20         4.7740    2.3980   -0.4590 ca        1 0BX     -0.115500
     21 C21         4.0640    1.2320   -0.7250 ca        1 0BX     -0.148000
     22 O22        -6.9310   -0.2710    0.4610 o         1 0BX     -0.828800
     23 O23        -6.6820    1.5350   -0.8300 o         1 0BX     -0.828800
     24 H1         -4.3430    2.2310   -1.1900 ha        1 0BX      0.155000
     25 H2         -1.8590    2.1110   -0.9440 ha        1 0BX      0.118000
     26 H3         -2.3270   -1.4110    1.5720 ha        1 0BX      0.118000
     27 H4         -4.8040   -1.2470    1.2820 ha        1 0BX      0.155000
     28 H5         -0.0920    1.2450    0.4880 hn        1 0BX      0.428800
     29 H6          0.1720   -3.9500   -0.5410 h4        1 0BX      0.020100
     30 H7          2.6650   -3.6030   -0.7790 ha        1 0BX      0.141000
     31 H8          4.4230   -2.0310   -0.3380 hn        1 0BX      0.415800
     32 H9          6.0920   -0.9730    0.9570 ha        1 0BX      0.141000
     33 H10         7.3330    1.1170    1.3890 ha        1 0BX      0.127500
     34 H11         6.4980    3.2950    0.4990 ha        1 0BX      0.126000
     35 H12         4.4020    3.3560   -0.8530 ha        1 0BX      0.127500
     36 H13         3.1450    1.2840   -1.3290 ha        1 0BX      0.141000
@<TRIPOS>BOND
     1    1    2 1   
     2    1    3 ar  
     3    1    7 ar  
     4    2   22 1   
     5    2   23 1   
     6    3    4 ar  
     7    3   24 1   
     8    4    5 ar  
     9    4   25 1   
    10    5    6 ar  
    11    5    8 1   
    12    6    7 ar  
    13    6   26 1   
    14    7   27 1   
    15    8    9 1   
    16    8   28 1   
    17    9   10 ar  
    18    9   14 ar  
    19   10   11 ar  
    20   11   12 ar  
    21   11   29 1   
    22   12   13 ar  
    23   12   30 1   
    24   13   14 ar  
    25   13   15 1   
    26   15   16 1   
    27   15   31 1   
    28   16   17 ar  
    29   16   21 ar  
    30   17   18 ar  
    31   17   32 1   
    32   18   19 ar  
    33   18   33 1   
    34   19   20 ar  
    35   19   34 1   
    36   20   21 ar  
    37   20   35 1   
    38   21   36 1   
@<TRIPOS>SUBSTRUCTURE
     1 0BX         1 TEMP              0 ****  ****    0 ROOT
