@<TRIPOS>MOLECULE
0BX
   36    27     1     0     0
SMALL
bcc


@<TRIPOS>ATOM
      1 C06         2.0520   -0.2500   -5.2620 c1        1 0BX     -0.097000
      2 C11         2.5840    0.1030   -6.6330 c1        1 0BX      0.357000
      3 C05         2.9280   -0.4260   -4.2030 c2        1 0BX     -0.108000
      4 C10         2.4390   -0.7200   -2.9400 c1        1 0BX     -0.122000
      5 C09         1.0730   -0.8390   -2.7370 c1        1 0BX     -0.015000
      6 C08         0.1970   -0.6630   -3.7960 c1        1 0BX     -0.183000
      7 C07         0.6860   -0.3680   -5.0580 c1        1 0BX     -0.101000
      8 N01         0.5750   -1.1850   -1.4550 n2        1 0BX     -0.205000
      9 C12         0.3240   -0.1720   -0.4940 c1        1 0BX      0.178000
     10 N03         1.1950    0.8660   -0.3560 n1        1 0BX     -0.196000
     11 C15         0.9820    1.8010    0.5820 c1        1 0BX     -0.144500
     12 C14        -0.1080    1.7130    1.3980 c1        1 0BX     -0.144500
     13 C13        -0.9810    0.6720    1.2590 c1        1 0BX      0.158000
     14 N02        -0.7660   -0.2610    0.3200 n1        1 0BX     -0.294000
     15 N04        -2.1460    0.6110    2.0670 n2        1 0BX     -0.242000
     16 C16        -2.0500    0.2000    3.4230 c1        1 0BX      0.071000
     17 C17        -2.1070    1.1420    4.4380 c1        1 0BX     -0.144500
     18 C18        -2.0440    0.7390    5.7630 c1        1 0BX     -0.144500
     19 C19        -1.9250   -0.6070    6.0730 c1        1 0BX     -0.144500
     20 C20        -1.8680   -1.5490    5.0580 c1        1 0BX     -0.144500
     21 C21        -1.9300   -1.1460    3.7330 c1        1 0BX     -0.176000
     22 O22         2.8760   -0.8110   -7.4490 o         1 0BX     -0.563000
     23 O23         2.7600    1.3080   -6.9490 o         1 0BX     -0.563000
     24 H1          3.8910   -0.3530   -4.3490 ha        1 0BX      0.156000
     25 H2          3.0560   -0.8440   -2.1950 ha        1 0BX      0.129000
     26 H3         -0.7650   -0.7460   -3.6520 ha        1 0BX      0.107000
     27 H4          0.0680   -0.2270   -5.8010 ha        1 0BX      0.155000
     28 H5          0.4430   -2.0610   -1.2390 hn        1 0BX      0.221000
     29 H6          1.6070    2.5450    0.6810 ha        1 0BX      0.141000
     30 H7         -0.2750    2.4040    2.0660 ha        1 0BX      0.141000
     31 H8         -2.9590    0.8260    1.7120 hn        1 0BX      0.220000
     32 H9         -2.1910    2.0900    4.2210 ha        1 0BX      0.141000
     33 H10        -2.0650    1.4040    6.4770 ha        1 0BX      0.141000
     34 H11        -1.8810   -0.8910    7.0050 ha        1 0BX      0.141000
     35 H12        -1.7840   -2.4970    5.2750 ha        1 0BX      0.141000
     36 H13        -1.8900   -1.8090    3.0180 ha        1 0BX      0.133000
@<TRIPOS>BOND
     1    1    3 1   
     2    1    7 1   
     3    2   22 1   
     4    2   23 1   
     5    3    4 1   
     6    3   24 1   
     7    4   25 1   
     8    5    6 1   
     9    6   26 1   
    10    7   27 1   
    11    8    9 1   
    12    8   28 1   
    13    9   10 1   
    14   11   12 1   
    15   11   29 1   
    16   12   30 1   
    17   13   14 1   
    18   15   16 1   
    19   15   31 1   
    20   16   21 1   
    21   17   18 1   
    22   17   32 1   
    23   18   33 1   
    24   19   20 1   
    25   19   34 1   
    26   20   35 1   
    27   21   36 1   
@<TRIPOS>SUBSTRUCTURE
     1 0BX         1 TEMP              0 ****  ****    0 ROOT
