@<TRIPOS>MOLECULE
0BX
   38    40     1     0     0
SMALL
bcc


@<TRIPOS>ATOM
      1 C06         0.8180   -1.1980    2.6040 ca        1 0BX     -0.038600
      2 C11        -0.2690   -1.3150    3.6850 c         1 0BX      0.923200
      3 C05         0.9940    0.0170    1.9230 ca        1 0BX     -0.111000
      4 C10         2.2090    0.3140    1.3230 ca        1 0BX     -0.098000
      5 C09         3.2400   -0.6460    1.3860 ca        1 0BX     -0.141400
      6 C08         3.0000   -1.9460    1.8750 ca        1 0BX     -0.098000
      7 C07         1.7740   -2.2140    2.4670 ca        1 0BX     -0.111000
      8 N01         4.6210   -0.2290    1.1240 n4        1 0BX     -0.585100
      9 C12         5.1450    0.4670    2.3530 ca        1 0BX      0.757900
     10 N03         5.7730    1.6800    2.1740 nb        1 0BX     -0.637000
     11 C15         6.1190    2.3310    3.2960 ca        1 0BX      0.487200
     12 C14         5.8410    1.8380    4.5950 ca        1 0BX     -0.286600
     13 C13         5.2110    0.5780    4.6630 ca        1 0BX      0.542200
     14 N02         4.8890   -0.1440    3.5510 nb        1 0BX     -0.639000
     15 N04         4.8240   -0.0080    5.9710 n4        1 0BX     -0.611100
     16 C16         3.6360    0.6510    6.5380 ca        1 0BX     -0.105400
     17 C17         2.3590    0.1780    6.1970 ca        1 0BX     -0.100000
     18 C18         1.2400    0.7760    6.7860 ca        1 0BX     -0.092500
     19 C19         1.3970    1.8230    7.6900 ca        1 0BX     -0.074000
     20 C20         2.6770    2.2900    8.0170 ca        1 0BX     -0.092500
     21 C21         3.8060    1.7160    7.4460 ca        1 0BX     -0.100000
     22 O22         0.2030   -1.1280    4.8470 o         1 0BX     -0.781800
     23 O23        -1.4480   -1.5380    3.3650 o         1 0BX     -0.781800
     24 H1          0.1660    0.7460    1.9030 ha        1 0BX      0.179000
     25 H2          2.3620    1.2900    0.8360 ha        1 0BX      0.140000
     26 H3          3.7730   -2.7280    1.8250 ha        1 0BX      0.140000
     27 H4          1.5590   -3.2150    2.8760 ha        1 0BX      0.179000
     28 H5          5.2120   -1.0480    0.9310 hn        1 0BX      0.478800
     29 H6          6.6300    3.3080    3.1510 h4        1 0BX      0.092100
     30 H7          6.0920    2.4330    5.4870 ha        1 0BX      0.203000
     31 H8          5.6170    0.1020    6.6170 hn        1 0BX      0.478300
     32 H9          2.1750   -0.6520    5.4810 ha        1 0BX      0.177000
     33 H10         0.2400    0.3800    6.5010 ha        1 0BX      0.199000
     34 H11         0.5100    2.2880    8.1540 ha        1 0BX      0.173000
     35 H12         2.7930    3.1160    8.7370 ha        1 0BX      0.199000
     36 H13         4.8050    2.0870    7.7200 ha        1 0BX      0.177000
     37 H012        4.6540    0.4240    0.3270 hn        1 0BX      0.478800
     38 H042        4.6080   -1.0140    5.8610 hn        1 0BX      0.478300
@<TRIPOS>BOND
     1    1    2 1   
     2    1    3 ar  
     3    1    7 ar  
     4    2   22 1   
     5    2   23 1   
     6    3    4 ar  
     7    3   24 1   
     8    4    5 ar  
     9    4   25 1   
    10    5    6 ar  
    11    5    8 1   
    12    6    7 ar  
    13    6   26 1   
    14    7   27 1   
    15    8    9 1   
    16    8   28 1   
    17    8   37 1   
    18    9   10 ar  
    19    9   14 ar  
    20   10   11 ar  
    21   11   12 ar  
    22   11   29 1   
    23   12   13 ar  
    24   12   30 1   
    25   13   14 ar  
    26   13   15 1   
    27   15   16 1   
    28   15   31 1   
    29   15   38 1   
    30   16   17 ar  
    31   16   21 ar  
    32   17   18 ar  
    33   17   32 1   
    34   18   19 ar  
    35   18   33 1   
    36   19   20 ar  
    37   19   34 1   
    38   20   21 ar  
    39   20   35 1   
    40   21   36 1   
@<TRIPOS>SUBSTRUCTURE
     1 0BX         1 TEMP              0 ****  ****    0 ROOT
