@<TRIPOS>MOLECULE
0BY
   36    36     1     0     0
SMALL
bcc


@<TRIPOS>ATOM
      1 N01         0.9180    0.6130   -0.2650 n7        1 0BY     -0.260000
      2 N02        -1.1480    0.9840   -1.3570 n2        1 0BY     -0.278000
      3 N03         0.5190    2.7540   -1.3700 n7        1 0BY     -0.185000
      4 C05         3.0120   -1.2020    1.0720 c2        1 0BY      0.213000
      5 C06         1.8080   -1.7270    1.2920 c1        1 0BY     -0.589000
      6 C07         0.6930   -2.2760    1.5170 c1        1 0BY      0.064000
      7 C08         2.0380    2.2180    1.1980 c2        1 0BY     -0.284000
      8 C09         2.0190    1.0680    0.4960 c2        1 0BY      0.031000
      9 C10         3.2190    0.1560    0.5040 c3        1 0BY     -0.157000
     10 C12         0.0810    1.4610   -0.9790 c2        1 0BY      0.205000
     11 C13        -1.9210    1.7930   -2.1640 c2        1 0BY      0.169000
     12 C14        -1.4990    3.0720   -2.5770 c2        1 0BY     -0.343000
     13 C15        -0.2350    3.5530   -2.1510 c1        1 0BY     -0.088000
     14 C16        -3.7150    0.0850   -2.5680 c2        1 0BY      0.205000
     15 C17        -2.8410   -1.1230   -2.5110 c3        1 0BY     -0.223000
     16 C18        -4.4940   -3.2660   -2.2520 c1        1 0BY      0.152000
     17 C19        -5.5360   -2.5360   -1.8840 c2        1 0BY     -0.377000
     18 C20        -5.8170   -1.2300   -2.3090 c1        1 0BY     -0.164000
     19 C21        -5.1140   -0.1370   -2.6680 c2        1 0BY     -0.196000
     20 O25         4.7780   -2.6790    0.4570 o         1 0BY     -0.519000
     21 O26         4.9100   -1.6150    2.4390 o         1 0BY     -0.519000
     22 Cl2        -6.0710    1.2140   -3.2090 cl        1 0BY     -0.092000
     23 H1          0.5890   -0.3160   -0.0420 hn        1 0BY      0.297000
     24 H2         -3.8550    2.0990   -2.7340 hn        1 0BY      0.264000
     25 H3          3.6030    0.0150   -0.5470 hc        1 0BY      0.142000
     26 H4          1.1890    2.9070    1.2780 ha        1 0BY      0.129500
     27 H5          2.9290    2.5100    1.7680 ha        1 0BY      0.129500
     28 H6          4.0440    0.6460    1.0980 hc        1 0BY      0.142000
     29 H7         -2.1060    3.7200   -3.2190 ha        1 0BY      0.159000
     30 H8          1.4150    3.0770   -1.0680 hn        1 0BY      0.268000
     31 H9         -1.7710   -0.9160   -2.7550 hc        1 0BY      0.132000
     32 H10        -2.8830   -1.5870   -1.4890 hc        1 0BY      0.132000
     33 H11        -3.2090   -1.8660   -3.2730 hc        1 0BY      0.132000
     34 H12        -6.3260   -2.9860   -1.2410 ha        1 0BY      0.185000
     35 C11         4.3480   -1.9190    1.3580 c2        1 0BY      0.349000
     36 N04        -3.2100    1.3490   -2.5510 n7        1 0BY     -0.227000
@<TRIPOS>BOND
     1    1    8 1   
     2    1   10 1   
     3    1   23 1   
     4    2   10 1   
     5    2   11 1   
     6    3   10 1   
     7    3   13 1   
     8    3   30 1   
     9    4    5 1   
    10    4    9 1   
    11    4   35 1   
    12    5    6 1   
    13    7    8 1   
    14    7   26 1   
    15    7   27 1   
    16    8    9 1   
    17    9   25 1   
    18    9   28 1   
    19   11   12 1   
    20   11   36 1   
    21   12   13 1   
    22   12   29 1   
    23   14   15 1   
    24   14   19 1   
    25   14   36 1   
    26   15   31 1   
    27   15   32 1   
    28   15   33 1   
    29   16   17 1   
    30   17   18 1   
    31   17   34 1   
    32   18   19 1   
    33   19   22 1   
    34   20   35 1   
    35   21   35 1   
    36   24   36 1   
@<TRIPOS>SUBSTRUCTURE
     1 0BY         1 TEMP              0 ****  ****    0 ROOT
