@<TRIPOS>MOLECULE
0BY
   36    36     1     0     0
SMALL
bcc


@<TRIPOS>ATOM
      1 N01        -0.0000    0.0240    0.2160 n3        1 0BY     -0.258000
      2 N02        -1.6650    0.6690   -1.3430 n2        1 0BY     -0.291000
      3 N03         0.4910    1.7930   -1.3990 n3        1 0BY     -0.171000
      4 C05         3.5270    0.3270    1.4460 c1        1 0BY     -0.086000
      5 C06         4.8030   -0.0490    1.3900 c1        1 0BY     -0.281000
      6 C07         6.0030   -0.3050    1.4530 c1        1 0BY      0.021000
      7 C08         0.9810    1.1630    2.1310 c2        1 0BY     -0.186000
      8 C09         1.1110    0.3970    1.0350 c2        1 0BY     -0.054000
      9 C10         2.4390   -0.1980    0.6320 c3        1 0BY     -0.107000
     10 C12        -0.4060    0.8490   -0.8360 c2        1 0BY      0.193000
     11 C13        -2.0110    1.4150   -2.4550 c2        1 0BY      0.154000
     12 C14        -1.1400    2.3500   -3.0340 c2        1 0BY     -0.325000
     13 C15         0.1540    2.5340   -2.4710 c1        1 0BY     -0.069000
     14 C16        -4.1430    0.1930   -2.9170 c2        1 0BY      0.205000
     15 C17        -3.6400   -1.1630   -2.5510 c3        1 0BY     -0.221000
     16 C18        -5.8220   -2.7450   -2.2300 c1        1 0BY      0.130000
     17 C19        -6.6690   -1.7300   -2.1640 c2        1 0BY     -0.369000
     18 C20        -6.5330   -0.5020   -2.8290 c1        1 0BY     -0.168000
     19 C21        -5.5290    0.3060   -3.2170 c2        1 0BY     -0.197000
     20 O25         8.2130    0.0350    0.7800 o         1 0BY     -0.527000
     21 O26         7.7790   -1.5390    2.3270 o         1 0BY     -0.527000
     22 CL2        -6.0100    1.7260   -4.0980 cl        1 0BY     -0.083000
     23 H1         -0.7200   -0.4930    0.6770 hn        1 0BY      0.242000
     24 H2         -3.6950    2.1170   -3.3800 hn        1 0BY      0.267000
     25 H3          2.3720   -1.3200    0.7410 hc        1 0BY      0.109500
     26 H4          0.0290    1.5950    2.4650 ha        1 0BY      0.144500
     27 H5          1.8690    1.3880    2.7470 ha        1 0BY      0.144500
     28 H6          2.6400    0.0110   -0.4580 hc        1 0BY      0.109500
     29 H7         -1.4060    2.9520   -3.9100 ha        1 0BY      0.164000
     30 H8          1.3990    1.9050   -0.9930 hn        1 0BY      0.281000
     31 H9         -2.5300   -1.2660   -2.6380 hc        1 0BY      0.127667
     32 H10        -3.9370   -1.4150   -1.4980 hc        1 0BY      0.127667
     33 H11        -4.0930   -1.9150   -3.2550 hc        1 0BY      0.127667
     34 H12        -7.6280   -1.8430   -1.6090 ha        1 0BY      0.184000
     35 C11         7.4450   -0.6260    1.5270 c2        1 0BY      0.407000
     36 N04        -3.3200    1.2700   -2.9890 n3        1 0BY     -0.223000
@<TRIPOS>BOND
     1    1    8 1   
     2    1   10 1   
     3    1   23 1   
     4    2   10 1   
     5    2   11 1   
     6    3   10 1   
     7    3   13 1   
     8    3   30 1   
     9    4    5 1   
    10    4    9 1   
    11    5    6 1   
    12    6   35 1   
    13    7    8 1   
    14    7   26 1   
    15    7   27 1   
    16    8    9 1   
    17    9   25 1   
    18    9   28 1   
    19   11   12 1   
    20   11   36 1   
    21   12   13 1   
    22   12   29 1   
    23   14   15 1   
    24   14   19 1   
    25   14   36 1   
    26   15   31 1   
    27   15   32 1   
    28   15   33 1   
    29   16   17 1   
    30   17   18 1   
    31   17   34 1   
    32   18   19 1   
    33   19   22 1   
    34   20   35 1   
    35   21   35 1   
    36   24   36 1   
@<TRIPOS>SUBSTRUCTURE
     1 0BY         1 TEMP              0 ****  ****    0 ROOT
