@<TRIPOS>MOLECULE
0BY
   36    38     1     0     0
SMALL
bcc


@<TRIPOS>ATOM
      1 N01        -1.2420    0.4650   -0.5980 nh        1 0BY     -0.686300
      2 N02         1.0030   -0.2440   -0.3550 nb        1 0BY     -0.816000
      3 N03        -0.8260   -1.8980   -0.3080 nb        1 0BY     -0.732000
      4 C05        -4.8390   -0.5320   -0.6370 ca        1 0BY     -0.103500
      5 C06        -5.3760    0.3360    0.3160 ca        1 0BY     -0.118600
      6 C07        -4.5220    1.2180    0.9860 ca        1 0BY     -0.103500
      7 C08        -3.1590    1.2380    0.7140 ca        1 0BY     -0.152500
      8 C09        -2.6200    0.3650   -0.2590 ca        1 0BY      0.068600
      9 C10        -3.4770   -0.5250   -0.9320 ca        1 0BY     -0.152500
     10 C12        -0.3460   -0.5910   -0.3910 ca        1 0BY      0.902900
     11 C13         1.9010   -1.2640   -0.2830 ca        1 0BY      0.698200
     12 C14         1.4830   -2.6270   -0.1960 ca        1 0BY     -0.482600
     13 C15         0.1000   -2.8570   -0.2140 ca        1 0BY      0.479200
     14 C16         3.8370    0.2860   -0.2690 ca        1 0BY      0.162600
     15 C17         3.4240    1.2950   -1.1690 ca        1 0BY     -0.111000
     16 C18         4.0280    2.5460   -1.1570 ca        1 0BY     -0.113000
     17 C19         5.0640    2.8310   -0.2680 ca        1 0BY     -0.149000
     18 C20         5.4990    1.8520    0.6200 ca        1 0BY     -0.108000
     19 C21         4.8930    0.5950    0.6260 ca        1 0BY     -0.035600
     20 O25        -7.5960   -0.4820   -0.0160 o         1 0BY     -0.828300
     21 O26        -7.2940    1.1380    1.4920 o         1 0BY     -0.828300
     22 CL2         5.4600   -0.5700    1.7390 cl        1 0BY     -0.114400
     23 H1         -0.8570    1.3750   -0.4360 hn        1 0BY      0.427800
     24 H2          3.8210   -1.7050    0.1640 hn        1 0BY      0.428800
     25 H3         -5.5220   -1.2250   -1.1550 ha        1 0BY      0.155500
     26 H4         -4.9600    1.8950    1.7380 ha        1 0BY      0.155500
     27 H5         -2.5080    1.9390    1.2550 ha        1 0BY      0.118000
     28 H6         -3.0800   -1.2180   -1.6870 ha        1 0BY      0.118000
     29 H7          2.1950   -3.4530   -0.1240 ha        1 0BY      0.144000
     30 H8         -0.2960   -3.8880   -0.1450 h4        1 0BY      0.021100
     31 H9          2.6120    1.0940   -1.8870 ha        1 0BY      0.164000
     32 H10         3.6810    3.3180   -1.8600 ha        1 0BY      0.135000
     33 H11         5.5350    3.8240   -0.2650 ha        1 0BY      0.132000
     34 H12         6.3170    2.0680    1.3240 ha        1 0BY      0.141000
     35 C11        -6.8680    0.3290    0.6210 c         1 0BY      0.908200
     36 N04         3.2910   -1.0100   -0.3230 nh        1 0BY     -0.726300
@<TRIPOS>BOND
     1    1    8 1   
     2    1   10 1   
     3    1   23 1   
     4    2   10 ar  
     5    2   11 ar  
     6    3   10 ar  
     7    3   13 ar  
     8    4    5 ar  
     9    4    9 ar  
    10    4   25 1   
    11    5    6 ar  
    12    5   35 1   
    13    6    7 ar  
    14    6   26 1   
    15    7    8 ar  
    16    7   27 1   
    17    8    9 ar  
    18    9   28 1   
    19   11   12 ar  
    20   11   36 1   
    21   12   13 ar  
    22   12   29 1   
    23   13   30 1   
    24   14   15 ar  
    25   14   19 ar  
    26   14   36 1   
    27   15   16 ar  
    28   15   31 1   
    29   16   17 ar  
    30   16   32 1   
    31   17   18 ar  
    32   17   33 1   
    33   18   19 ar  
    34   18   34 1   
    35   19   22 1   
    36   20   35 1   
    37   21   35 1   
    38   24   36 1   
@<TRIPOS>SUBSTRUCTURE
     1 0BY         1 TEMP              0 ****  ****    0 ROOT
