@<TRIPOS>MOLECULE
0BY
   36    28     1     0     0
SMALL
bcc


@<TRIPOS>ATOM
      1 N01         0.6740   -1.3570    1.3750 n3        1 0BY     -0.208000
      2 N02        -0.9440   -0.4990   -0.1910 n1        1 0BY     -0.290000
      3 N03         1.3070    0.1930   -0.3580 n1        1 0BY     -0.194000
      4 N04        -2.5880    0.2750   -1.7470 n3        1 0BY     -0.240000
      5 C05         3.8350   -3.2740    1.2390 c1        1 0BY     -0.135750
      6 C06         4.6650   -2.4740    2.0100 c1        1 0BY     -0.097000
      7 C07         4.1730   -1.3070    2.5750 c1        1 0BY     -0.107000
      8 C08         2.8520   -0.9410    2.3690 c1        1 0BY     -0.123000
      9 C09         2.0230   -1.7410    1.5990 c1        1 0BY     -0.013000
     10 C10         2.5140   -2.9070    1.0340 c1        1 0BY     -0.135750
     11 C11         6.1230   -2.8400    2.1790 c1        1 0BY      0.357000
     12 C12         0.3420   -0.5480    0.2560 c1        1 0BY      0.180000
     13 C13        -1.2630    0.2800   -1.2360 c2        1 0BY      0.158000
     14 C14        -0.2980    1.0230   -1.8510 c2        1 0BY     -0.320000
     15 C15         0.9910    0.9730   -1.4030 c1        1 0BY      0.003000
     16 C16        -3.4490    1.3760   -1.4970 c2        1 0BY      0.091000
     17 C17        -4.2840    1.3650   -0.3900 c2        1 0BY     -0.174000
     18 C18        -5.1810    2.4020   -0.1890 c1        1 0BY     -0.097000
     19 C19        -5.2450    3.4490   -1.0940 c1        1 0BY     -0.135750
     20 C20        -4.4110    3.4600   -2.2010 c1        1 0BY     -0.135750
     21 C21        -3.5130    2.4240   -2.4030 c1        1 0BY     -0.116000
     22 O25         6.4720   -3.6290    3.0960 o         1 0BY     -0.564000
     23 O26         6.9910   -2.3380    1.4170 os        1 0BY     -0.561000
     24 CL2        -3.1340    2.6560   -4.0880 cl        1 0BY     -0.024000
     25 H1          0.0220   -1.6270    1.9520 hn        1 0BY      0.225000
     26 H2         -2.8740   -0.4190   -2.2640 hn        1 0BY      0.232000
     27 H3          4.1810   -4.0950    0.8410 ha        1 0BY      0.134250
     28 H4          4.7510   -0.7570    3.1370 ha        1 0BY      0.156000
     29 H5          2.5060   -0.1190    2.7670 ha        1 0BY      0.127000
     30 H6          1.9300   -3.4700    0.4910 ha        1 0BY      0.134250
     31 H7         -0.5200    1.5560   -2.6390 ha        1 0BY      0.154000
     32 H8          1.6820    1.5040   -1.8430 ha        1 0BY      0.161000
     33 H9         -4.2290    0.6350    0.2550 ha        1 0BY      0.155000
     34 H10        -5.7690    2.3940    0.5910 ha        1 0BY      0.133000
     35 H11        -5.8770    4.1790   -0.9520 ha        1 0BY      0.134250
     36 H12        -4.4560    4.1980   -2.8380 ha        1 0BY      0.134250
@<TRIPOS>BOND
     1    1    9 1   
     2    1   12 1   
     3    1   25 1   
     4    2   13 1   
     5    3   12 1   
     6    4   13 1   
     7    4   16 1   
     8    4   26 1   
     9    5   10 1   
    10    5   27 1   
    11    6    7 1   
    12    7   28 1   
    13    8    9 1   
    14    8   29 1   
    15   10   30 1   
    16   11   22 1   
    17   13   14 1   
    18   14   15 1   
    19   14   31 1   
    20   15   32 1   
    21   16   17 1   
    22   16   21 1   
    23   17   18 1   
    24   17   33 1   
    25   18   34 1   
    26   19   20 1   
    27   19   35 1   
    28   20   36 1   
@<TRIPOS>SUBSTRUCTURE
     1 0BY         1 TEMP              0 ****  ****    0 ROOT
