@<TRIPOS>MOLECULE
0BZ
   38    33     1     0     0
SMALL
bcc


@<TRIPOS>ATOM
      1 F24        -1.5660    2.1190    2.4090 f         1 0BZ     -0.067000
      2 N02         4.7180   -0.2830   -1.3670 n3        1 0BZ     -0.215000
      3 N03         5.7680    1.1690   -2.9850 n3        1 0BZ     -0.221000
      4 N04         2.3570   -0.1560    0.5950 n1        1 0BZ     -0.190000
      5 C05         8.9490    4.2560   -5.5610 c1        1 0BZ      0.264000
      6 C06         8.2510    3.5120   -4.7560 c1        1 0BZ     -0.409000
      7 C07         7.5580    2.7950   -4.0050 c1        1 0BZ      0.096000
      8 C08         8.7630    1.9230   -0.0720 c2        1 0BZ     -0.216000
      9 C09         7.6600    1.9090   -0.8360 c2        1 0BZ     -0.070000
     10 C10         9.6390    4.9920   -6.3640 c2        1 0BZ     -0.227000
     11 C12         5.7320    0.6280   -1.6790 cz        1 0BZ      0.253000
     12 C13         3.7520   -0.6050   -2.3110 c2        1 0BZ      0.022000
     13 C14         3.7930   -0.0610   -3.5680 c2        1 0BZ     -0.240000
     14 C15         4.8510    0.8570   -3.9010 c1        1 0BZ     -0.030000
     15 C16         1.3430    0.0860    1.1060 c1        1 0BZ     -0.135000
     16 C17         6.5850   -1.7970    1.3430 c1        1 0BZ     -0.229500
     17 C18         5.6340   -1.1620    1.6980 c1        1 0BZ     -0.229500
     18 C19        -3.4920    0.2490    3.6660 c1        1 0BZ      0.363000
     19 C20        -2.3350   -0.0100    3.0820 c2        1 0BZ     -0.636000
     20 C21        -1.3440    0.8360    2.4490 c1        1 0BZ      0.136000
     21 O25        12.9090    5.7080   -6.0170 o         1 0BZ     -0.214500
     22 O26        15.1930    6.3640   -6.1200 o         1 0BZ     -0.214500
     23 H1          7.4740    2.6880   -1.6010 h4        1 0BZ      0.170000
     24 H2          2.9790   -1.3160   -1.9560 h4        1 0BZ      0.193000
     25 H3         10.7140    5.2130   -6.2020 ha        1 0BZ      0.224000
     26 H4          8.9910    1.1830    0.7070 ha        1 0BZ      0.145500
     27 H5          9.5080    2.7210   -0.1950 ha        1 0BZ      0.145500
     28 H6          9.2060    5.4540   -7.2710 ha        1 0BZ      0.224000
     29 H7          3.0440   -0.3060   -4.3340 ha        1 0BZ      0.196000
     30 H8          6.5950    1.8740   -3.3190 hn        1 0BZ      0.383000
     31 H9          7.4250   -2.3770    1.0440 ha        1 0BZ      0.235500
     32 H10         4.6420   -0.6680   -0.4400 hn        1 0BZ      0.294000
     33 H11         4.7880   -0.6240    2.0550 ha        1 0BZ      0.235500
     34 H12        -2.0200   -1.0830    3.0470 ha        1 0BZ      0.231000
     35 H042        0.3880    0.3180    1.5870 ha        1 0BZ      0.300000
     36 H012        6.6250    0.4300    0.1690 hn        1 0BZ      0.264000
     37 N01         6.6400    0.9500   -0.6920 n3        1 0BZ     -0.261000
     38 C11        14.0550    6.0380   -6.0700 c1        1 0BZ      0.429000
@<TRIPOS>BOND
     1    1   20 1   
     2    2   11 1   
     3    2   12 1   
     4    2   32 1   
     5    3   11 1   
     6    3   14 1   
     7    3   30 1   
     8    4   15 1   
     9    5    6 1   
    10    5   10 1   
    11    6    7 1   
    12    8    9 1   
    13    8   26 1   
    14    8   27 1   
    15    9   23 1   
    16    9   37 1   
    17   10   25 1   
    18   10   28 1   
    19   11   37 1   
    20   12   13 1   
    21   12   24 1   
    22   13   14 1   
    23   13   29 1   
    24   15   35 1   
    25   16   17 1   
    26   16   31 1   
    27   17   33 1   
    28   18   19 1   
    29   19   20 1   
    30   19   34 1   
    31   21   38 1   
    32   22   38 1   
    33   36   37 1   
@<TRIPOS>SUBSTRUCTURE
     1 0BZ         1 TEMP              0 ****  ****    0 ROOT
