@<TRIPOS>MOLECULE
0BZ
   36    52     1     0     0
SMALL
bcc


@<TRIPOS>ATOM
      1 F24         0.0000    0.0000    0.0000 f         1 0BZ     -0.066000
      2 N02         4.5640    0.9160   -1.4190 n2        1 0BZ     -0.371000
      3 N03         5.7500    1.2040   -3.3840 n7        1 0BZ     -0.035000
      4 N04         2.3900    0.0030   -1.4000 n7        1 0BZ     -0.243000
      5 C05         8.7480    3.4900   -3.9100 c3        1 0BZ      0.145000
      6 C06        10.0240    3.3670   -3.3520 c2        1 0BZ     -0.158000
      7 C07        10.1850    2.7280   -2.1190 c3        1 0BZ      0.165000
      8 C08         9.0900    2.2210   -1.4600 c3        1 0BZ     -0.039000
      9 C09         7.8200    2.3440   -2.0190 DU        1 0BZ     -0.158000
     10 C10         7.6550    2.9860   -3.2430 c3        1 0BZ     -0.092000
     11 C12         5.6520    1.3050   -2.0670 c3        1 0BZ      0.050000
     12 C13         3.5280    0.4090   -2.0790 c2        1 0BZ      0.273000
     13 C14         3.6030    0.2890   -3.4690 c2        1 0BZ     -0.297000
     14 C15         4.7560    0.7070   -4.1050 c3        1 0BZ     -0.093000
     15 C16         2.3760    0.0000    0.0000 c3        1 0BZ     -0.143000
     16 C17         3.5700    0.0000    0.7080 c2        1 0BZ     -0.083000
     17 C18         3.5530   -0.0030    2.0900 c2        1 0BZ      0.086000
     18 C19         2.3480   -0.0080    2.7680 c2        1 0BZ      0.163000
     19 C20         1.1550   -0.0090    2.0670 c2        1 0BZ     -0.112000
     20 C21         1.1650    0.0010    0.6840 c2        1 0BZ      0.071000
     21 O25        12.4250    3.7920   -3.5230 o         1 0BZ     -0.566000
     22 O26        11.0540    4.4660   -5.1340 o         1 0BZ     -0.566000
     23 H1          6.5590    0.8680   -1.5750 DU        1 0BZ      0.106000
     24 H2          3.2760    0.3780   -1.6770 hn        1 0BZ      0.171000
     25 H3          8.2820    2.9220   -3.1140 DU        1 0BZ     -0.095000
     26 H4          9.1640    2.3660   -2.0950 DU        1 0BZ     -0.075000
     27 H5          8.9580    2.7160   -2.4140 DU        1 0BZ      0.079000
     28 H6          8.6410    2.8860   -2.8060 DU        1 0BZ     -0.012000
     29 H7          4.5370    0.5280   -2.9750 DU        1 0BZ      0.079000
     30 H8          5.4270    1.5430   -3.9540 DU        1 0BZ      0.241000
     31 H9          3.4130   -0.0730   -0.3620 DU        1 0BZ      0.248000
     32 H10         3.7410    0.0890    1.0270 ha        1 0BZ      0.056000
     33 H11         3.0430   -0.0040    1.9370 ha        1 0BZ     -0.255000
     34 H12         2.2220   -0.0080    2.2520 ha        1 0BZ     -0.028000
     35 N01         6.7140    1.8310   -1.3480 n7        1 0BZ      0.142000
     36 C11        11.1960    3.9110   -4.0620 c2        1 0BZ      0.414000
@<TRIPOS>BOND
     1    1   20 1   
     2    2   11 1   
     3    2   12 1   
     4    3   11 1   
     5    3   14 1   
     6    3   30 1   
     7    4   12 1   
     8    4   15 1   
     9    4   24 1   
    10    5    6 1   
    11    5   10 1   
    12    5   25 1   
    13    5   28 1   
    14    6    7 1   
    15    6   36 1   
    16    7    8 1   
    17    7   26 1   
    18    7   27 1   
    19    8    9 1   
    20    8   26 1   
    21    8   27 1   
    22    9   10 1   
    23    9   25 1   
    24    9   27 1   
    25    9   28 1   
    26    9   35 1   
    27   10   25 1   
    28   10   28 1   
    29   11   23 1   
    30   11   35 1   
    31   12   13 1   
    32   13   14 1   
    33   13   29 1   
    34   14   29 1   
    35   14   30 1   
    36   15   16 1   
    37   15   20 1   
    38   15   31 1   
    39   16   17 1   
    40   16   31 1   
    41   17   18 1   
    42   17   32 1   
    43   18   19 1   
    44   18   33 1   
    45   19   20 1   
    46   19   34 1   
    47   21   36 1   
    48   22   36 1   
    49   23   35 1   
    50   25   28 1   
    51   26   27 1   
    52   27   28 1   
@<TRIPOS>SUBSTRUCTURE
     1 0BZ         1 TEMP              0 ****  ****    0 ROOT
