@<TRIPOS>MOLECULE
0BZ
   36    38     1     0     0
SMALL
bcc


@<TRIPOS>ATOM
      1 F24         5.9170    0.9660   -0.7930 f         1 0BZ     -0.153900
      2 N02         1.3210    0.3210    0.1070 nb        1 0BZ     -0.816000
      3 N03        -0.5340    1.9450    0.1890 nb        1 0BZ     -0.731000
      4 N04         3.5420    1.0290    0.7350 nh        1 0BZ     -0.717300
      5 C05        -4.4490    0.6390   -0.8400 ca        1 0BZ     -0.103500
      6 C06        -5.0690   -0.3940   -0.1350 ca        1 0BZ     -0.118600
      7 C07        -4.2740   -1.3830    0.4550 ca        1 0BZ     -0.103500
      8 C08        -2.8890   -1.3440    0.3450 ca        1 0BZ     -0.152500
      9 C09        -2.2660   -0.3020   -0.3770 ca        1 0BZ      0.068600
     10 C10        -3.0630    0.6950   -0.9700 ca        1 0BZ     -0.152500
     11 C12        -0.0180    0.6720   -0.0490 ca        1 0BZ      0.903900
     12 C13         2.1750    1.3070    0.4950 ca        1 0BZ      0.694200
     13 C14         1.7240    2.6410    0.7320 ca        1 0BZ     -0.480600
     14 C15         0.3510    2.8740    0.5650 ca        1 0BZ      0.479200
     15 C16         4.1460   -0.1920    0.3750 ca        1 0BZ      0.120600
     16 C17         3.6330   -1.4320    0.8080 ca        1 0BZ     -0.096000
     17 C18         4.2930   -2.6190    0.5060 ca        1 0BZ     -0.128000
     18 C19         5.4830   -2.6130   -0.2180 ca        1 0BZ     -0.132000
     19 C20         6.0270   -1.4080   -0.6490 ca        1 0BZ     -0.148000
     20 C21         5.3680   -0.2020   -0.3650 ca        1 0BZ      0.064900
     21 O25        -7.0860   -1.4110    0.6400 o         1 0BZ     -0.827800
     22 O26        -7.2580    0.4620   -0.5660 o         1 0BZ     -0.827800
     23 H1         -0.4660   -1.2500   -0.5330 hn        1 0BZ      0.427800
     24 H2          4.1250    1.8270    0.5710 hn        1 0BZ      0.424800
     25 H3         -5.0880    1.4140   -1.2970 ha        1 0BZ      0.155500
     26 H4         -4.7770   -2.1910    1.0110 ha        1 0BZ      0.155500
     27 H5         -2.2860   -2.1320    0.8180 ha        1 0BZ      0.118000
     28 H6         -2.6010    1.5190   -1.5320 ha        1 0BZ      0.118000
     29 H7          2.4010    3.4410    1.0420 ha        1 0BZ      0.144000
     30 H8         -0.0720    3.8800    0.7490 h4        1 0BZ      0.021100
     31 H9          2.6980   -1.4680    1.3890 ha        1 0BZ      0.164000
     32 H10         3.8640   -3.5740    0.8470 ha        1 0BZ      0.136000
     33 H11         5.9950   -3.5580   -0.4520 ha        1 0BZ      0.132000
     34 H12         6.9660   -1.3830   -1.2200 ha        1 0BZ      0.142000
     35 N01        -0.8550   -0.3280   -0.5610 nh        1 0BZ     -0.686300
     36 C11        -6.5850   -0.4510   -0.0100 c         1 0BZ      0.908200
@<TRIPOS>BOND
     1    1   20 1   
     2    2   11 ar  
     3    2   12 ar  
     4    3   11 ar  
     5    3   14 ar  
     6    4   12 1   
     7    4   15 1   
     8    4   24 1   
     9    5    6 ar  
    10    5   10 ar  
    11    5   25 1   
    12    6    7 ar  
    13    6   36 1   
    14    7    8 ar  
    15    7   26 1   
    16    8    9 ar  
    17    8   27 1   
    18    9   10 ar  
    19    9   35 1   
    20   10   28 1   
    21   11   35 1   
    22   12   13 ar  
    23   13   14 ar  
    24   13   29 1   
    25   14   30 1   
    26   15   16 ar  
    27   15   20 ar  
    28   16   17 ar  
    29   16   31 1   
    30   17   18 ar  
    31   17   32 1   
    32   18   19 ar  
    33   18   33 1   
    34   19   20 ar  
    35   19   34 1   
    36   21   36 1   
    37   22   36 1   
    38   23   35 1   
@<TRIPOS>SUBSTRUCTURE
     1 0BZ         1 TEMP              0 ****  ****    0 ROOT
