@<TRIPOS>MOLECULE
0BZ
   36    30     1     0     0
SMALL
bcc


@<TRIPOS>ATOM
      1 F24        -2.5620   -1.5780    2.9620 f         1 0BZ     -0.112000
      2 N01         1.0250    1.1290    0.6420 n3        1 0BZ     -0.208000
      3 N02        -1.0240   -0.0710    0.2450 n1        1 0BZ     -0.287000
      4 N03         0.3580    0.4950   -1.5830 n1        1 0BZ     -0.191000
      5 N04        -3.0800   -1.2450   -0.0850 n3        1 0BZ     -0.229000
      6 C05         2.7000    4.2300   -0.4710 c1        1 0BZ     -0.100000
      7 C06         4.0000    3.7810   -0.6450 c1        1 0BZ     -0.097000
      8 C07         4.3080    2.4480   -0.4260 c1        1 0BZ     -0.137833
      9 C08         3.3160    1.5630   -0.0340 c1        1 0BZ     -0.137833
     10 C09         2.0160    2.0110    0.1400 c1        1 0BZ     -0.014000
     11 C10         1.7080    3.3450   -0.0790 c1        1 0BZ     -0.181000
     12 C11         5.0760    4.7410   -1.1000 c2        1 0BZ      0.357000
     13 C12         0.1000    0.5230   -0.2450 c1        1 0BZ      0.179000
     14 C13        -1.8780   -0.6850   -0.5880 c1        1 0BZ      0.150000
     15 C14        -1.6200   -0.7130   -1.9280 c1        1 0BZ     -0.137833
     16 C15        -0.4940   -0.1180   -2.4180 c1        1 0BZ     -0.137833
     17 C16        -3.0470   -2.4690    0.6360 c2        1 0BZ      0.048000
     18 C17        -3.4440   -3.6460    0.0210 c2        1 0BZ     -0.159000
     19 C18        -3.4820   -4.8280    0.7440 c1        1 0BZ     -0.111000
     20 C19        -3.1220   -4.8330    2.0830 c1        1 0BZ     -0.137833
     21 C20        -2.7240   -3.6560    2.6980 c1        1 0BZ     -0.137833
     22 C21        -2.6860   -2.4740    1.9740 c1        1 0BZ      0.031000
     23 O25         5.3280    4.8690   -2.3260 o         1 0BZ     -0.562000
     24 O26         5.7330    5.3990   -0.2500 o         1 0BZ     -0.562000
     25 H1          0.9890    0.9450    1.5340 hn        1 0BZ      0.226000
     26 H2         -3.8730   -0.8130   -0.2130 hn        1 0BZ      0.224000
     27 H3          2.4830    5.1690   -0.6250 ha        1 0BZ      0.156000
     28 H4          5.2240    2.1320   -0.5490 ha        1 0BZ      0.145667
     29 H5          3.5340    0.6240    0.1200 ha        1 0BZ      0.145667
     30 H6          0.7930    3.6610    0.0440 ha        1 0BZ      0.108000
     31 H7         -2.2270   -1.1820   -2.5320 ha        1 0BZ      0.145667
     32 H8         -0.3090   -0.1380   -3.3760 ha        1 0BZ      0.145667
     33 H9         -3.6980   -3.6420   -0.9220 ha        1 0BZ      0.155000
     34 H10        -3.7860   -5.6520    0.3170 ha        1 0BZ      0.134000
     35 H11        -3.1490   -5.6650    2.5920 ha        1 0BZ      0.145667
     36 H12        -2.4880   -3.6560    3.6450 ha        1 0BZ      0.145667
@<TRIPOS>BOND
     1    1   22 1   
     2    2   10 1   
     3    2   13 1   
     4    2   25 1   
     5    3   14 1   
     6    4   13 1   
     7    5   14 1   
     8    5   17 1   
     9    5   26 1   
    10    6    7 1   
    11    6   27 1   
    12    7   12 1   
    13    8    9 1   
    14    8   28 1   
    15    9   29 1   
    16   10   11 1   
    17   11   30 1   
    18   12   23 1   
    19   12   24 1   
    20   15   16 1   
    21   15   31 1   
    22   16   32 1   
    23   17   18 1   
    24   17   22 1   
    25   18   19 1   
    26   18   33 1   
    27   19   34 1   
    28   20   21 1   
    29   20   35 1   
    30   21   36 1   
@<TRIPOS>SUBSTRUCTURE
     1 0BZ         1 TEMP              0 ****  ****    0 ROOT
