@<TRIPOS>MOLECULE
0C
   33    34     1     0     0
SMALL
bcc


@<TRIPOS>ATOM
      1 OP3         3.7930    1.5250    1.3780 o         1 0C      -0.925500
      2 P           2.7010    0.5180    1.2340 p5        1 0C       1.339900
      3 OP1         2.9170   -0.9080    1.6860 o         1 0C      -0.925500
      4 OP2         1.2800    0.9630    1.5290 o         1 0C      -0.925500
      5 O5'         2.5970    0.1940   -0.4680 os        1 0C      -0.569200
      6 C5'         1.3640    0.2170   -1.0550 c3        1 0C       0.224400
      7 C4'         0.6850   -1.1740   -1.1060 c3        1 0C       0.061100
      8 O4'        -0.6420   -1.0230   -1.6610 os        1 0C      -0.438600
      9 C3'         0.5390   -1.8520    0.2720 c3        1 0C       0.073100
     10 O3'         1.3780   -2.9790    0.3790 oh        1 0C      -0.663800
     11 C2'        -0.9390   -2.2620    0.3800 c3        1 0C       0.108100
     12 O2'        -1.2020   -3.6220    0.0980 oh        1 0C      -0.616800
     13 C1'        -1.6400   -1.3840   -0.7070 c3        1 0C       0.259500
     14 N1         -2.3040   -0.1980   -0.1540 n         1 0C      -0.367000
     15 C2         -3.6480    0.1100   -0.5670 c         1 0C       0.822900
     16 O2         -4.2570   -0.7020   -1.3080 o         1 0C      -0.682500
     17 N3         -4.2780    1.2900   -0.1430 nc        1 0C      -0.761100
     18 C4         -3.6060    2.1080    0.6900 cd        1 0C       0.703500
     19 N4         -4.2420    3.2600    1.1890 nh        1 0C      -0.893800
     20 C5         -2.2630    1.8260    1.1300 cd        1 0C      -0.455600
     21 C6         -1.6440    0.6800    0.6670 cc        1 0C       0.084600
     22 H5'         0.6730    0.9400   -0.5370 h1        1 0C      -0.001800
     23 H5''        1.4790    0.5470   -2.1310 h1        1 0C      -0.001800
     24 H4'         1.2320   -1.8480   -1.8180 h1        1 0C       0.047700
     25 H3'         0.8090   -1.1000    1.0870 h1        1 0C       0.162700
     26 HO3'        2.1830   -2.6470    0.8380 ho        1 0C       0.492000
     27 H2'        -1.3470   -2.0810    1.4080 h1        1 0C       0.074700
     28 HO2'       -0.4220   -3.9800   -0.3450 ho        1 0C       0.420000
     29 H1'        -2.4130   -1.9770   -1.2800 h2        1 0C       0.109700
     30 H41        -5.0310    3.5760    0.6710 hn        1 0C       0.388300
     31 H42        -3.6000    3.9850    1.4200 hn        1 0C       0.388300
     32 H5         -1.7100    2.4950    1.7990 ha        1 0C       0.170000
     33 H6         -0.5650    0.4760    0.9690 h4        1 0C       0.297000
@<TRIPOS>BOND
     1    1    2 1   
     2    2    3 1   
     3    2    4 1   
     4    2    5 1   
     5    5    6 1   
     6    6    7 1   
     7    6   22 1   
     8    6   23 1   
     9    7    8 1   
    10    7    9 1   
    11    7   24 1   
    12    8   13 1   
    13    9   10 1   
    14    9   11 1   
    15    9   25 1   
    16   10   26 1   
    17   11   12 1   
    18   11   13 1   
    19   11   27 1   
    20   12   28 1   
    21   13   14 1   
    22   13   29 1   
    23   14   15 1   
    24   14   21 1   
    25   15   16 2   
    26   15   17 1   
    27   17   18 2   
    28   18   19 1   
    29   18   20 1   
    30   19   30 1   
    31   19   31 1   
    32   20   21 2   
    33   20   32 1   
    34   21   33 1   
@<TRIPOS>SUBSTRUCTURE
     1 0C          1 TEMP              0 ****  ****    0 ROOT
