@<TRIPOS>MOLECULE
0C
   33    33     1     0     0
SMALL
bcc


@<TRIPOS>ATOM
      1 OP3        -2.2700   -2.9640    3.9620 o         1 0C      -0.928167
      2 P          -0.7680   -3.0900    4.0550 p5        1 0C       1.566500
      3 OP1        -0.3000   -2.5630    5.3910 o         1 0C      -0.928167
      4 OP2        -0.3750   -4.5420    3.9210 o         1 0C      -0.928167
      5 O5'        -0.0960   -2.2530    2.8940 os        1 0C      -0.717000
      6 C5'        -0.6630   -2.3150    1.6070 c3        1 0C       0.075000
      7 C4'         0.3530   -1.8450    0.5840 c3        1 0C      -0.063000
      8 O4'         0.6200   -0.2740    0.7550 os        1 0C      -0.294000
      9 C3'        -0.1130   -2.0070   -0.6110 c3        1 0C       0.012000
     10 O3'         0.3540   -3.3050   -1.1750 oh        1 0C      -0.406000
     11 C2'         0.4660   -0.8280   -1.4300 c3        1 0C      -0.011000
     12 O2'         1.4270   -1.2660   -2.2650 oh        1 0C      -0.339000
     13 C1'         1.0620    0.1440   -0.3900 c3        1 0C       0.107000
     14 N1          0.6050    1.4900   -0.6420 n         1 0C      -0.259000
     15 C2         -0.5220    2.0320    0.1140 c2        1 0C       0.345000
     16 O2         -1.0110    1.3880    1.0200 o         1 0C      -0.380000
     17 N3         -1.0720    3.3420   -0.2310 n2        1 0C      -0.323000
     18 C4         -0.4150    4.1570   -1.1880 c1        1 0C       0.190000
     19 N4         -0.8440    5.4930   -1.3960 n2        1 0C      -0.337000
     20 C5          0.7710    3.6490   -1.8920 c2        1 0C      -0.374000
     21 C6          1.2700    2.2960   -1.6020 c2        1 0C       0.095000
     22 H5'        -0.9230   -3.2390    1.4090 h1        1 0C       0.039000
     23 H5''       -1.4540   -1.7390    1.5700 h1        1 0C       0.039000
     24 H4'         1.1890   -2.3410    0.6880 h1        1 0C       0.111000
     25 H3'        -1.0900   -1.9700   -0.6030 h1        1 0C       0.153000
     26 HO3'       -0.3380   -3.7440   -1.5220 ho        1 0C       0.313000
     27 H2'        -0.2460   -0.3860   -1.9350 h1        1 0C       0.102000
     28 HO2'        1.0780   -1.4080   -3.0710 ho        1 0C       0.227000
     29 H1'         2.0390    0.1060   -0.4110 h2        1 0C       0.148000
     30 H41        -0.4250    6.0170   -2.0170 hn        1 0C       0.193000
     31 H42        -1.5500    5.8260   -0.9190 hn        1 0C       0.193000
     32 H5          1.2260    4.2070   -2.5520 ha        1 0C       0.159000
     33 H6          2.0150    1.9300   -2.1150 h4        1 0C       0.221000
@<TRIPOS>BOND
     1    1    2 1   
     2    2    3 1   
     3    2    4 1   
     4    2    5 1   
     5    5    6 1   
     6    6    7 1   
     7    6   22 1   
     8    6   23 1   
     9    7    8 1   
    10    7    9 1   
    11    7   24 1   
    12    8   13 1   
    13    9   10 1   
    14    9   11 1   
    15    9   25 1   
    16   10   26 1   
    17   11   12 1   
    18   11   13 1   
    19   11   27 1   
    20   12   28 1   
    21   13   14 1   
    22   13   29 1   
    23   14   15 1   
    24   14   21 1   
    25   15   16 1   
    26   15   17 1   
    27   17   18 1   
    28   18   20 1   
    29   19   30 1   
    30   19   31 1   
    31   20   21 1   
    32   20   32 1   
    33   21   33 1   
@<TRIPOS>SUBSTRUCTURE
     1 0C          1 TEMP              0 ****  ****    0 ROOT
