@<TRIPOS>MOLECULE
0C0
   46    37     1     0     0
SMALL
bcc


@<TRIPOS>ATOM
      1 N01        -1.1330   -1.4040   -2.0510 n1        1 0C0     -0.191000
      2 N02         0.0710   -0.2530   -0.2420 n1        1 0C0     -0.288000
      3 N03         0.8090   -1.4660    1.7310 n3        1 0C0     -0.237000
      4 N04        -0.5670    0.9640   -2.2210 n3        1 0C0     -0.207000
      5 C05        -1.0840   -2.5540   -1.3570 c1        1 0C0     -0.001000
      6 C06        -0.5480   -0.2140   -1.5020 c1        1 0C0      0.177000
      7 C07         0.1180   -1.4100    0.4530 c2        1 0C0      0.150000
      8 C08        -0.4580   -2.5880   -0.0860 c2        1 0C0     -0.308000
      9 C09         0.0430   -1.3490    2.9960 c1        1 0C0      0.094000
     10 C10        -0.8360   -2.3090    3.3400 c1        1 0C0     -0.181000
     11 C11        -1.4600   -2.2650    4.5760 c1        1 0C0     -0.126167
     12 C12        -1.1820   -1.2450    5.4460 c1        1 0C0     -0.126167
     13 C13        -0.3000   -0.2810    5.1000 c1        1 0C0     -0.088000
     14 C14         0.3220   -0.3200    3.8760 c1        1 0C0     -0.101000
     15 C15         1.5120    0.6740    3.5700 c2        1 0C0     -0.032000
     16 C16        -0.8530    0.9420   -3.6670 c1        1 0C0     -0.014000
     17 C17        -2.1500    1.1250   -4.1250 c1        1 0C0     -0.126167
     18 C18        -2.4270    1.0160   -5.4930 c1        1 0C0     -0.126167
     19 C19        -1.4110    0.7280   -6.3720 c1        1 0C0     -0.097000
     20 C20        -0.1660    0.5530   -5.9230 c1        1 0C0     -0.100000
     21 C21         0.1170    0.6650   -4.5210 c1        1 0C0     -0.182000
     22 C22        -1.7060    0.5380   -7.8300 c1        1 0C0      0.357000
     23 C23         2.7440    0.4340    3.9400 c2        1 0C0     -0.117000
     24 C24         3.7820    1.4550    3.7330 c1        1 0C0     -0.133000
     25 C25         3.4650    2.6300    3.1640 c1        1 0C0     -0.126167
     26 C26         2.1600    2.8780    2.7750 c1        1 0C0     -0.126167
     27 C27         1.1780    1.9050    2.9740 c1        1 0C0     -0.129000
     28 O28        -1.7350    1.5660   -8.6210 o         1 0C0     -0.561000
     29 O29        -2.0390   -0.5050   -8.2180 os        1 0C0     -0.564000
     30 H1          1.6530   -1.6790    1.7570 hn        1 0C0      0.224000
     31 H2         -0.3480    1.8380   -1.7710 hn        1 0C0      0.223000
     32 H3         -1.4670   -3.3410   -1.7170 ha        1 0C0      0.160000
     33 H4         -0.4290   -3.3300    0.3600 ha        1 0C0      0.155000
     34 H5         -1.0500   -3.0960    2.6670 ha        1 0C0      0.150000
     35 H6         -2.1640   -2.9010    4.7870 ha        1 0C0      0.133667
     36 H7         -1.6300   -1.2150    6.3350 ha        1 0C0      0.133667
     37 H8         -0.0940    0.4960    5.7600 ha        1 0C0      0.131000
     38 H9         -2.9130    1.3390   -3.4540 ha        1 0C0      0.133667
     39 H10        -3.3220    1.1420   -5.8170 ha        1 0C0      0.133667
     40 H11         0.5650    0.3440   -6.5590 ha        1 0C0      0.155000
     41 H12         1.0130    0.4770   -4.1930 ha        1 0C0      0.107000
     42 H13         2.9790   -0.4400    4.3460 ha        1 0C0      0.136000
     43 H14         4.6470    1.2880    3.9920 ha        1 0C0      0.128000
     44 H15         4.1840    3.3390    3.0200 ha        1 0C0      0.133667
     45 H16         1.9210    3.7400    2.3610 ha        1 0C0      0.133667
     46 H17         0.1880    2.0910    2.6810 ha        1 0C0      0.143000
@<TRIPOS>BOND
     1    1    6 1   
     2    2    7 1   
     3    3    7 1   
     4    3    9 1   
     5    3   30 1   
     6    4    6 1   
     7    4   16 1   
     8    4   31 1   
     9    5    8 1   
    10    5   32 1   
    11    7    8 1   
    12    8   33 1   
    13    9   10 1   
    14   10   34 1   
    15   11   12 1   
    16   11   35 1   
    17   12   36 1   
    18   13   14 1   
    19   13   37 1   
    20   14   15 1   
    21   15   23 1   
    22   15   27 1   
    23   16   21 1   
    24   17   18 1   
    25   17   38 1   
    26   18   39 1   
    27   19   20 1   
    28   20   40 1   
    29   21   41 1   
    30   22   28 1   
    31   23   24 1   
    32   23   42 1   
    33   24   43 1   
    34   25   26 1   
    35   25   44 1   
    36   26   45 1   
    37   27   46 1   
@<TRIPOS>SUBSTRUCTURE
     1 0C0         1 TEMP              0 ****  ****    0 ROOT
