@<TRIPOS>MOLECULE
0C0
   46    49     1     0     0
SMALL
bcc


@<TRIPOS>ATOM
      1 N01         0.3230    0.4700   -0.0870 nb        1 0C0     -0.733000
      2 N02        -0.0230    0.4840    2.3550 nb        1 0C0     -0.816000
      3 N03         1.8870    0.6670    3.8180 nu        1 0C0     -0.726300
      4 N04        -1.8850    0.5140    0.8920 nu        1 0C0     -0.685300
      5 C05         1.6400    0.5250    0.1410 ca        1 0C0      0.478200
      6 C06        -0.4920    0.4640    1.0430 ca        1 0C0      0.900900
      7 C07         1.3250    0.5660    2.5270 ca        1 0C0      0.694200
      8 C08         2.2230    0.5760    1.4150 ca        1 0C0     -0.482600
      9 C09         1.1310    0.5650    5.0030 ca        1 0C0      0.165600
     10 C10        -0.0070    1.3770    5.2100 ca        1 0C0     -0.119000
     11 C11        -0.6850    1.3450    6.4230 ca        1 0C0     -0.112000
     12 C12        -0.2460    0.5260    7.4620 ca        1 0C0     -0.158000
     13 C13         0.8780   -0.2720    7.2790 ca        1 0C0     -0.102000
     14 C14         1.5670   -0.2780    6.0610 cp        1 0C0     -0.096000
     15 C15         2.7310   -1.1550    5.9180 cp        1 0C0     -0.040000
     16 C16        -2.5300    0.0630   -0.2940 ca        1 0C0      0.067600
     17 C17        -3.4300   -1.0240   -0.2230 ca        1 0C0     -0.152500
     18 C18        -4.1360   -1.4170   -1.3530 ca        1 0C0     -0.104500
     19 C19        -3.9640   -0.7550   -2.5740 ca        1 0C0     -0.118600
     20 C20        -3.0680    0.3130   -2.6430 ca        1 0C0     -0.104500
     21 C21        -2.3540    0.7300   -1.5200 ca        1 0C0     -0.152500
     22 C22        -4.7470   -1.1940   -3.8030 c         1 0C0      0.908200
     23 C23         2.7800   -2.1230    4.9050 ca        1 0C0     -0.123500
     24 C24         3.8840   -2.9660    4.7920 ca        1 0C0     -0.132000
     25 C25         4.9490   -2.8520    5.6860 ca        1 0C0     -0.132000
     26 C26         4.9040   -1.8950    6.6990 ca        1 0C0     -0.132000
     27 C27         3.8010   -1.0520    6.8180 ca        1 0C0     -0.123500
     28 O28        -4.5620   -0.5590   -4.8790 o         1 0C0     -0.828800
     29 O29        -5.5420   -2.1680   -3.6790 o         1 0C0     -0.828800
     30 H1          2.7940    0.2470    3.8750 hn        1 0C0      0.427800
     31 H2         -2.3990    0.3070    1.7260 hn        1 0C0      0.426800
     32 H3          2.2740    0.5260   -0.7650 h4        1 0C0      0.021100
     33 H4          3.3070    0.6290    1.5420 ha        1 0C0      0.144000
     34 H5         -0.3660    2.0420    4.4100 ha        1 0C0      0.160000
     35 H6         -1.5760    1.9770    6.5600 ha        1 0C0      0.132000
     36 H7         -0.7850    0.5080    8.4190 ha        1 0C0      0.128000
     37 H8          1.2310   -0.9220    8.0950 ha        1 0C0      0.130000
     38 H9         -3.5810   -1.5610    0.7250 ha        1 0C0      0.118000
     39 H10        -4.8460   -2.2600   -1.3140 ha        1 0C0      0.155500
     40 H11        -2.9400    0.8250   -3.6110 ha        1 0C0      0.155500
     41 H12        -1.6550    1.5740   -1.6020 ha        1 0C0      0.118000
     42 H13         1.9350   -2.2250    4.2060 ha        1 0C0      0.141500
     43 H14         3.9120   -3.7230    3.9940 ha        1 0C0      0.131500
     44 H15         5.8190   -3.5170    5.5930 ha        1 0C0      0.128000
     45 H16         5.7410   -1.8050    7.4070 ha        1 0C0      0.131500
     46 H17         3.7640   -0.2990    7.6190 ha        1 0C0      0.141500
@<TRIPOS>BOND
     1    1    5 ar  
     2    1    6 ar  
     3    2    6 ar  
     4    2    7 ar  
     5    3    7 1   
     6    3    9 1   
     7    3   30 1   
     8    4    6 1   
     9    4   16 1   
    10    4   31 1   
    11    5    8 ar  
    12    5   32 1   
    13    7    8 ar  
    14    8   33 1   
    15    9   10 ar  
    16    9   14 ar  
    17   10   11 ar  
    18   10   34 1   
    19   11   12 ar  
    20   11   35 1   
    21   12   13 ar  
    22   12   36 1   
    23   13   14 ar  
    24   13   37 1   
    25   14   15 1   
    26   15   23 ar  
    27   15   27 ar  
    28   16   17 ar  
    29   16   21 ar  
    30   17   18 ar  
    31   17   38 1   
    32   18   19 ar  
    33   18   39 1   
    34   19   20 ar  
    35   19   22 1   
    36   20   21 ar  
    37   20   40 1   
    38   21   41 1   
    39   22   28 1   
    40   22   29 1   
    41   23   24 ar  
    42   23   42 1   
    43   24   25 ar  
    44   24   43 1   
    45   25   26 ar  
    46   25   44 1   
    47   26   27 ar  
    48   26   45 1   
    49   27   46 1   
@<TRIPOS>SUBSTRUCTURE
     1 0C0         1 TEMP              0 ****  ****    0 ROOT
