@<TRIPOS>MOLECULE
0C0
   46    49     1     0     0
SMALL
bcc


@<TRIPOS>ATOM
      1 N01        -1.3940   -1.5050   -1.2010 nb        1 0C0     -0.733000
      2 N02         0.2920    0.2560   -0.8300 nb        1 0C0     -0.816000
      3 N03         2.6150   -0.2150   -1.2850 nh        1 0C0     -0.726300
      4 N04        -2.0110    0.7490   -0.5900 nh        1 0C0     -0.685300
      5 C05        -0.3970   -2.3290   -1.5440 ca        1 0C0      0.478200
      6 C06        -1.0220   -0.2060   -0.8590 ca        1 0C0      0.900900
      7 C07         1.2630   -0.6180   -1.2120 ca        1 0C0      0.694200
      8 C08         0.9560   -1.9650   -1.5750 ca        1 0C0     -0.482600
      9 C09         3.0710    1.0480   -0.8580 ca        1 0C0      0.165600
     10 C10         2.4770    2.2350   -1.3410 ca        1 0C0     -0.119000
     11 C11         3.0000    3.4760   -0.9980 ca        1 0C0     -0.112000
     12 C12         4.1300    3.5720   -0.1860 ca        1 0C0     -0.158000
     13 C13         4.7330    2.4130    0.2900 ca        1 0C0     -0.102000
     14 C14         4.2150    1.1510   -0.0210 cp        1 0C0     -0.096000
     15 C15         4.8780   -0.0340    0.5270 cp        1 0C0     -0.040000
     16 C16        -3.3120    0.3800   -0.1450 ca        1 0C0      0.067600
     17 C17        -3.7560    0.8030    1.1280 ca        1 0C0     -0.152500
     18 C18        -5.0550    0.5290    1.5380 ca        1 0C0     -0.104500
     19 C19        -5.9370   -0.1730    0.7100 ca        1 0C0     -0.118600
     20 C20        -5.4930   -0.5980   -0.5440 ca        1 0C0     -0.104500
     21 C21        -4.1970   -0.3280   -0.9800 ca        1 0C0     -0.152500
     22 C22        -7.3590   -0.4640    1.1710 c         1 0C0      0.908200
     23 C23         4.1730   -0.9490    1.3220 ca        1 0C0     -0.123500
     24 C24         4.8210   -2.0620    1.8540 ca        1 0C0     -0.132000
     25 C25         6.1750   -2.2740    1.6010 ca        1 0C0     -0.132000
     26 C26         6.8850   -1.3650    0.8150 ca        1 0C0     -0.132000
     27 C27         6.2420   -0.2490    0.2830 ca        1 0C0     -0.123500
     28 O28        -8.1180   -1.0950    0.3830 o         1 0C0     -0.828800
     29 O29        -7.7010   -0.0560    2.3160 o         1 0C0     -0.828800
     30 H1          3.2480   -0.9660   -1.0920 hn        1 0C0      0.427800
     31 H2         -1.6700    1.5890   -0.1630 hn        1 0C0      0.426800
     32 H3         -0.7080   -3.3570   -1.8100 h4        1 0C0      0.021100
     33 H4          1.7290   -2.6800   -1.8720 ha        1 0C0      0.144000
     34 H5          1.5920    2.1860   -1.9950 ha        1 0C0      0.160000
     35 H6          2.5160    4.3890   -1.3750 ha        1 0C0      0.132000
     36 H7          4.5400    4.5560    0.0790 ha        1 0C0      0.128000
     37 H8          5.6250    2.4800    0.9320 ha        1 0C0      0.130000
     38 H9         -3.0810    1.3560    1.7980 ha        1 0C0      0.118000
     39 H10        -5.4190    0.8570    2.5260 ha        1 0C0      0.155500
     40 H11        -6.1970   -1.1530   -1.1860 ha        1 0C0      0.155500
     41 H12        -3.8730   -0.6730   -1.9710 ha        1 0C0      0.118000
     42 H13         3.1060   -0.7780    1.5360 ha        1 0C0      0.141500
     43 H14         4.2590   -2.7730    2.4780 ha        1 0C0      0.131500
     44 H15         6.6840   -3.1540    2.0200 ha        1 0C0      0.128000
     45 H16         7.9540   -1.5280    0.6150 ha        1 0C0      0.131500
     46 H17         6.8020    0.4690   -0.3340 ha        1 0C0      0.141500
@<TRIPOS>BOND
     1    1    5 ar  
     2    1    6 ar  
     3    2    6 ar  
     4    2    7 ar  
     5    3    7 1   
     6    3    9 1   
     7    3   30 1   
     8    4    6 1   
     9    4   16 1   
    10    4   31 1   
    11    5    8 ar  
    12    5   32 1   
    13    7    8 ar  
    14    8   33 1   
    15    9   10 ar  
    16    9   14 ar  
    17   10   11 ar  
    18   10   34 1   
    19   11   12 ar  
    20   11   35 1   
    21   12   13 ar  
    22   12   36 1   
    23   13   14 ar  
    24   13   37 1   
    25   14   15 1   
    26   15   23 ar  
    27   15   27 ar  
    28   16   17 ar  
    29   16   21 ar  
    30   17   18 ar  
    31   17   38 1   
    32   18   19 ar  
    33   18   39 1   
    34   19   20 ar  
    35   19   22 1   
    36   20   21 ar  
    37   20   40 1   
    38   21   41 1   
    39   22   28 1   
    40   22   29 1   
    41   23   24 ar  
    42   23   42 1   
    43   24   25 ar  
    44   24   43 1   
    45   25   26 ar  
    46   25   44 1   
    47   26   27 ar  
    48   26   45 1   
    49   27   46 1   
@<TRIPOS>SUBSTRUCTURE
     1 0C0         1 TEMP              0 ****  ****    0 ROOT
