@<TRIPOS>MOLECULE
0C0
   48    51     1     0     0
SMALL
bcc


@<TRIPOS>ATOM
      1 N01        -2.0290   -2.9590    1.4290 nb        1 0C0     -0.718000
      2 N02        -1.3630   -1.2520    3.0790 nb        1 0C0     -0.755000
      3 N03         0.3120   -1.7910    4.7110 nh        1 0C0     -0.696300
      4 N04        -3.1000   -0.7750    1.4630 n4        1 0C0     -0.616100
      5 C05        -1.1030   -3.7970    1.9650 ca        1 0C0      0.481200
      6 C06        -2.0920   -1.7370    2.0340 ca        1 0C0      0.752900
      7 C07        -0.4360   -2.1320    3.6100 ca        1 0C0      0.730200
      8 C08        -0.2850   -3.4500    3.0330 ca        1 0C0     -0.382600
      9 C09         0.3520   -0.4970    5.2910 ca        1 0C0      0.104600
     10 C10        -0.8260    0.1340    5.7330 ca        1 0C0     -0.117000
     11 C11        -0.7620    1.3870    6.3380 ca        1 0C0     -0.120000
     12 C12         0.4650    2.0230    6.5160 ca        1 0C0     -0.115000
     13 C13         1.6380    1.4010    6.0950 ca        1 0C0     -0.099000
     14 C14         1.6040    0.1420    5.4880 cp        1 0C0     -0.042000
     15 C15         2.8600   -0.4970    5.0850 cp        1 0C0     -0.074000
     16 C16        -2.5680   -0.0980    0.2740 ca        1 0C0     -0.024400
     17 C17        -1.9880    1.1760    0.4050 ca        1 0C0     -0.096500
     18 C18        -1.5120    1.8230   -0.7340 ca        1 0C0     -0.073500
     19 C19        -1.6070    1.2090   -1.9870 ca        1 0C0     -0.119600
     20 C20        -2.1850   -0.0610   -2.1070 ca        1 0C0     -0.073500
     21 C21        -2.6620   -0.7270   -0.9800 ca        1 0C0     -0.096500
     22 C22        -1.1440    1.8930   -3.2190 c         1 0C0      0.626700
     23 C23         3.3130   -1.6480    5.7450 ca        1 0C0     -0.127500
     24 C24         4.5190   -2.2390    5.3730 ca        1 0C0     -0.123000
     25 C25         5.2800   -1.6890    4.3410 ca        1 0C0     -0.114000
     26 C26         4.8360   -0.5410    3.6850 ca        1 0C0     -0.123000
     27 C27         3.6320    0.0570    4.0560 ca        1 0C0     -0.127500
     28 O28        -0.0400    2.6890   -3.1840 oh        1 0C0     -0.548100
     29 O29        -1.6800    1.8110   -4.3210 o         1 0C0     -0.440000
     30 H1          1.1090   -2.3720    4.8970 hn        1 0C0      0.469800
     31 H2         -3.3400   -0.0730    2.1790 hn        1 0C0      0.478300
     32 H3         -1.0430   -4.7940    1.4820 h4        1 0C0      0.066100
     33 H4          0.4530   -4.1600    3.4330 ha        1 0C0      0.186000
     34 H5         -1.8030   -0.3600    5.6190 ha        1 0C0      0.140000
     35 H6         -1.6880    1.8680    6.6880 ha        1 0C0      0.146000
     36 H7          0.5100    3.0130    6.9970 ha        1 0C0      0.152000
     37 H8          2.6110    1.8960    6.2450 ha        1 0C0      0.157000
     38 H9         -1.8990    1.6710    1.3870 ha        1 0C0      0.173000
     39 H10        -1.0770    2.8320   -0.6370 ha        1 0C0      0.181000
     40 H11        -2.2710   -0.5290   -3.1050 ha        1 0C0      0.181000
     41 H12        -3.0990   -1.7350   -1.0870 ha        1 0C0      0.173000
     42 H13         2.7330   -2.0660    6.5830 ha        1 0C0      0.137500
     43 H14         4.8770   -3.1340    5.9040 ha        1 0C0      0.144500
     44 H15         6.2350   -2.1550    4.0520 ha        1 0C0      0.147000
     45 H16         5.4410   -0.0990    2.8790 ha        1 0C0      0.144500
     46 H17         3.2900    0.9700    3.5470 ha        1 0C0      0.137500
     47 H032        0.3830    2.6520   -2.3140 ho        1 0C0      0.430000
     48 H042       -3.9450   -1.3030    1.2030 hn        1 0C0      0.478300
@<TRIPOS>BOND
     1    1    5 ar  
     2    1    6 ar  
     3    2    6 ar  
     4    2    7 ar  
     5    3    7 1   
     6    3    9 1   
     7    3   30 1   
     8    4    6 1   
     9    4   16 1   
    10    4   31 1   
    11    4   48 1   
    12    5    8 ar  
    13    5   32 1   
    14    7    8 ar  
    15    8   33 1   
    16    9   10 ar  
    17    9   14 ar  
    18   10   11 ar  
    19   10   34 1   
    20   11   12 ar  
    21   11   35 1   
    22   12   13 ar  
    23   12   36 1   
    24   13   14 ar  
    25   13   37 1   
    26   14   15 1   
    27   15   23 ar  
    28   15   27 ar  
    29   16   17 ar  
    30   16   21 ar  
    31   17   18 ar  
    32   17   38 1   
    33   18   19 ar  
    34   18   39 1   
    35   19   20 ar  
    36   19   22 1   
    37   20   21 ar  
    38   20   40 1   
    39   21   41 1   
    40   22   28 1   
    41   22   29 2   
    42   23   24 ar  
    43   23   42 1   
    44   24   25 ar  
    45   24   43 1   
    46   25   26 ar  
    47   25   44 1   
    48   26   27 ar  
    49   26   45 1   
    50   27   46 1   
    51   28   47 1   
@<TRIPOS>SUBSTRUCTURE
     1 0C0         1 TEMP              0 ****  ****    0 ROOT
