@<TRIPOS>MOLECULE
0C1
   55    58     1     0     0
SMALL
bcc


@<TRIPOS>ATOM
      1 C1         -0.4530    1.3670    0.6010 ca        1 0C1     -0.091000
      2 C2          0.8370    1.9120    0.6690 ca        1 0C1     -0.068000
      3 C3          5.4000    1.4880   -2.1220 c2        1 0C1     -0.096000
      4 C4          4.3360    2.2160   -1.7400 c2        1 0C1     -0.170000
      5 C5          6.4510    1.5490    0.1110 c2        1 0C1     -0.195000
      6 C6          1.3150    0.3500    2.5260 ca        1 0C1     -0.078000
      7 C7          2.4650    0.0900    3.4100 c2        1 0C1      0.130000
      8 C8         -0.8760    0.3440    1.4550 ca        1 0C1     -0.012000
      9 C9          5.3140    2.3020    0.6310 cx        1 0C1     -0.083000
     10 C10         1.6970    1.3940    1.6210 ca        1 0C1     -0.102000
     11 C11         0.0240   -0.1550    2.4300 ca        1 0C1      0.116000
     12 C12         6.4710    1.1400   -1.1870 c2        1 0C1      0.106000
     13 C13         4.1860    2.6640   -0.3400 cx        1 0C1      0.121000
     14 C14         3.4810    0.9440    3.0580 c2        1 0C1     -0.164000
     15 C15         0.0850   -2.4380    7.5660 c1        1 0C1      0.253000
     16 C16         2.4630   -2.2200    4.2290 c2        1 0C1     -0.086000
     17 C17         0.7330   -1.6670    6.6900 c2        1 0C1     -0.376000
     18 C18         2.4940   -0.9030    4.4710 c2        1 0C1     -0.166000
     19 C19         2.6350   -0.3540    5.8590 c2        1 0C1      0.342000
     20 C20         4.8260    1.2260    3.6430 c2        1 0C1      0.422000
     21 C21        -2.2500   -0.1920    1.3350 c3        1 0C1     -0.195000
     22 C22        -1.5720   -1.2430    3.7250 c1        1 0C1      0.011000
     23 C23         7.5430    1.2570    5.4910 c3        1 0C1     -0.977000
     24 N1          3.0940    1.8020    1.8900 n4        1 0C1      0.127000
     25 N2          1.7810   -0.7650    6.8570 n         1 0C1     -0.272000
     26 N3          5.5740    0.1690    4.1080 n         1 0C1     -0.809000
     27 O1          3.5330    0.4700    6.1300 o         1 0C1     -0.362000
     28 O2          5.2520    2.3970    3.6330 o         1 0C1     -0.340000
     29 O3          7.7970    0.5780    3.0660 o         1 0C1     -0.911000
     30 O4          7.5540   -1.1550    4.7110 o         1 0C1     -0.911000
     31 O5         -0.3170   -1.2170    3.2840 os        1 0C1     -0.157000
     32 F1          7.5060    0.4320   -1.6900 f         1 0C1     -0.072000
     33 F2          3.5100    3.8410   -0.1690 f         1 0C1     -0.112000
     34 S1          7.2490    0.1420    4.2820 s6        1 0C1      2.826000
     35 H1          1.1420    2.7230   -0.0140 ha        1 0C1      0.179000
     36 H2         -1.1560    1.7640   -0.1530 ha        1 0C1      0.179000
     37 H5          5.5830    3.0260    1.4340 hc        1 0C1      0.189000
     38 H6          2.5060   -2.9640    5.0400 ha        1 0C1      0.153500
     39 H7          2.4040   -2.6340    3.2100 ha        1 0C1      0.153500
     40 H8          0.3390   -1.7580    5.6430 h4        1 0C1      0.179000
     41 H10        -2.2490   -1.3100    1.4110 hc        1 0C1      0.118000
     42 H11        -2.7120    0.0970    0.3590 hc        1 0C1      0.118000
     43 H12        -2.8880    0.2060    2.1690 hc        1 0C1      0.118000
     44 H13        -1.6550   -2.1670    4.3550 ha        1 0C1      0.058000
     45 H14         7.1230    2.2780    5.2840 h1        1 0C1      0.183667
     46 H15         8.6450    1.4150    5.6420 h1        1 0C1      0.183667
     47 H16         7.1430    0.9610    6.4950 h1        1 0C1      0.183667
     48 H19         5.0480   -0.6370    4.3730 hn        1 0C1      0.261000
     49 H9          1.9280   -0.3840    7.7700 hn        1 0C1      0.266000
     50 C24         3.9770    1.5700    0.7310 cx        1 0C1     -0.209000
     51 H3          5.5280    1.1560   -3.1680 ha        1 0C1      0.178000
     52 H17         3.9140    0.5120    0.3900 hx        1 0C1      0.193000
     53 H18         3.1390    2.7950    2.1730 hn        1 0C1      0.283000
     54 H32         7.2870    1.3480    0.8080 ha        1 0C1      0.212000
     55 H4          3.5630    2.5510   -2.4490 ha        1 0C1      0.171000
@<TRIPOS>BOND
     1    1    2 1   
     2    1    8 1   
     3    1   36 1   
     4    2   10 1   
     5    2   35 1   
     6    3    4 1   
     7    3   12 1   
     8    3   51 1   
     9    4   13 1   
    10    4   55 1   
    11    5    9 1   
    12    5   12 1   
    13    5   54 1   
    14    6    7 1   
    15    6   10 1   
    16    6   11 1   
    17    7   14 1   
    18    7   18 1   
    19    8   11 1   
    20    8   21 1   
    21    9   13 1   
    22    9   37 1   
    23    9   50 1   
    24   10   24 1   
    25   11   31 1   
    26   12   32 1   
    27   13   33 1   
    28   13   50 1   
    29   14   20 1   
    30   14   24 1   
    31   15   17 1   
    32   16   18 1   
    33   16   38 1   
    34   16   39 1   
    35   17   25 1   
    36   17   40 1   
    37   18   19 1   
    38   19   25 1   
    39   19   27 1   
    40   20   26 1   
    41   20   28 1   
    42   21   41 1   
    43   21   42 1   
    44   21   43 1   
    45   22   31 1   
    46   22   44 1   
    47   23   34 1   
    48   23   45 1   
    49   23   46 1   
    50   23   47 1   
    51   24   50 1   
    52   24   53 1   
    53   25   49 1   
    54   26   34 1   
    55   26   48 1   
    56   29   34 1   
    57   30   34 1   
    58   50   52 1   
@<TRIPOS>SUBSTRUCTURE
     1 0C1         1 TEMP              0 ****  ****    0 ROOT
