@<TRIPOS>MOLECULE
0C1
   54    41     1     0     0
SMALL
bcc


@<TRIPOS>ATOM
      1 C1         -3.0300    0.0520   -2.3680 c1        1 0C1     -0.045000
      2 C2         -1.6110   -0.0050   -2.3920 c1        1 0C1     -0.091500
      3 C3          2.4170    0.1510   -5.7430 c1        1 0C1     -0.124500
      4 C4          2.3100    1.3550   -5.0360 c1        1 0C1     -0.124500
      5 C5          1.6260   -1.0510   -3.8140 c1        1 0C1     -0.133000
      6 C6         -1.5600   -0.2130    0.0250 c1        1 0C1     -0.101000
      7 C7         -0.6070   -0.2980    1.0430 c1        1 0C1      0.001000
      8 C8         -3.7120   -0.0220   -1.1520 c1        1 0C1     -0.195000
      9 C9          1.5200    0.1520   -3.1100 c1        1 0C1     -0.009000
     10 C10        -0.8860   -0.1380   -1.1820 c1        1 0C1     -0.041500
     11 C11        -2.9930   -0.1550    0.0510 c1        1 0C1      0.135000
     12 C12         2.0730   -1.0490   -5.1280 c1        1 0C1      0.076000
     13 C13         1.8630    1.3510   -3.7250 c1        1 0C1     -0.009000
     14 C14         0.6620   -0.2750    0.4500 c1        1 0C1     -0.071000
     15 C15        -1.1950    2.3910    3.8410 c1        1 0C1     -0.124500
     16 C16        -0.8690    1.7910    2.5400 c1        1 0C1     -0.091500
     17 C17        -1.7220    1.5260    4.9590 c1        1 0C1     -0.124500
     18 C18        -1.0590    0.3460    2.3320 c1        1 0C1     -0.041500
     19 C19        -1.5860   -0.5130    3.4570 c1        1 0C1      0.369000
     20 C20         1.5480   -0.8590    1.5720 c1        1 0C1      0.369000
     21 C21        -5.1760   -0.0480   -0.8170 c3        1 0C1     -0.131000
     22 C22        -5.3010   -0.1990    0.6250 c3        1 0C1     -0.032000
     23 C23         5.4150   -0.8510    2.7420 c3        1 0C1     -0.958000
     24 C24         1.5790    0.5060   -1.6270 c2        1 0C1      0.015000
     25 N1          0.4930   -0.1770   -0.9150 n2        1 0C1     -0.144000
     26 N2         -1.9100    0.0910    4.7510 n1        1 0C1     -0.272000
     27 N3          2.9820   -1.0130    1.3600 n2        1 0C1     -0.853000
     28 O1         -1.6990   -1.7010    3.3050 o         1 0C1     -0.373000
     29 O2          1.0710   -1.0610    2.6800 o         1 0C1     -0.373000
     30 O3          3.2080   -1.8320    3.7900 o         1 0C1     -0.920500
     31 O4          4.1720   -3.1070    2.2400 o         1 0C1     -0.920500
     32 O5         -3.9850   -0.2200    1.1840 os        1 0C1     -0.198000
     33 F1          2.0820   -2.2170   -5.8500 f         1 0C1     -0.102000
     34 F2          2.1160    2.6340   -3.3110 f         1 0C1     -0.102000
     35 S1          3.9250   -1.7270    2.5390 s6        1 0C1      2.816000
     36 H1         -3.5320    0.1620   -3.2070 ha        1 0C1      0.138000
     37 H2         -1.1360    0.1450   -3.2260 ha        1 0C1      0.149000
     38 H3          2.7330    0.1530   -6.6690 ha        1 0C1      0.157000
     39 H4          2.5570    2.2180   -5.4770 ha        1 0C1      0.157000
     40 H5          1.3800   -1.9080   -3.3740 ha        1 0C1      0.159000
     41 H6         -1.0710    3.3450    3.9810 ha        1 0C1      0.157000
     42 H7         -0.5280    2.3480    1.8160 ha        1 0C1      0.149000
     43 H8         -1.9380    1.9240    5.8210 ha        1 0C1      0.157000
     44 H10        -5.6070   -0.8040   -1.2690 hc        1 0C1      0.101000
     45 H11        -5.5970    0.7920   -1.1000 hc        1 0C1      0.101000
     46 H12        -5.8140    0.5700    1.0000 h1        1 0C1      0.099500
     47 H13        -5.7700   -1.0520    0.8370 h1        1 0C1      0.099500
     48 H14         5.2430   -0.0250    3.2320 h1        1 0C1      0.166667
     49 H15         6.0490   -1.4020    3.2440 h1        1 0C1      0.166667
     50 H16         5.7930   -0.6380    1.8640 h1        1 0C1      0.166667
     51 H17         1.4800    1.4900   -1.5180 h4        1 0C1      0.130500
     52 H18         2.4550    0.2170   -1.2510 h4        1 0C1      0.130500
     53 H19         3.3680   -0.7290    0.5620 hn        1 0C1      0.288000
     54 H9         -2.2230   -0.4220    5.4190 hn        1 0C1      0.253000
@<TRIPOS>BOND
     1    1    8 1   
     2    1   36 1   
     3    2   10 1   
     4    2   37 1   
     5    3    4 1   
     6    3   38 1   
     7    4   39 1   
     8    5   12 1   
     9    5   40 1   
    10    6   11 1   
    11    7   14 1   
    12    8   21 1   
    13    9   13 1   
    14   11   32 1   
    15   12   33 1   
    16   14   25 1   
    17   15   17 1   
    18   15   41 1   
    19   16   18 1   
    20   16   42 1   
    21   17   43 1   
    22   19   28 1   
    23   20   29 1   
    24   21   22 1   
    25   21   44 1   
    26   21   45 1   
    27   22   32 1   
    28   22   46 1   
    29   22   47 1   
    30   23   35 1   
    31   23   48 1   
    32   23   49 1   
    33   23   50 1   
    34   24   25 1   
    35   24   51 1   
    36   24   52 1   
    37   26   54 1   
    38   27   35 1   
    39   27   53 1   
    40   30   35 1   
    41   31   35 1   
@<TRIPOS>SUBSTRUCTURE
     1 0C1         1 TEMP              0 ****  ****    0 ROOT
