@<TRIPOS>MOLECULE
0C1
   54    58     1     0     0
SMALL
bcc


@<TRIPOS>ATOM
      1 C1         -3.1620    3.2760   -0.4820 ca        1 0C1     -0.044000
      2 C2         -1.8950    2.9790   -0.9740 ca        1 0C1     -0.198000
      3 C3          3.6860    3.6060    0.9120 ca        1 0C1     -0.135000
      4 C4          4.1490    2.9300   -0.2070 ca        1 0C1     -0.142000
      5 C5          1.3890    3.1200    0.2440 ca        1 0C1     -0.130000
      6 C6         -2.2130    0.5930   -0.2870 ca        1 0C1     -0.110800
      7 C7         -1.4150   -0.6130   -0.3560 cc        1 0C1      0.010800
      8 C8         -3.9410    2.2750    0.0930 ca        1 0C1     -0.202300
      9 C9          1.8490    2.4340   -0.8800 ca        1 0C1     -0.127300
     10 C10        -1.4230    1.6570   -0.8800 ca        1 0C1      0.004800
     11 C11        -3.4710    0.9470    0.1870 ca        1 0C1      0.183100
     12 C12         2.3000    3.7040    1.1400 ca        1 0C1      0.117900
     13 C13         3.2390    2.3410   -1.1060 ca        1 0C1      0.116900
     14 C14        -0.2080   -0.2630   -0.9720 cd        1 0C1     -0.111300
     15 C15        -3.2210   -3.9080   -0.1170 cd        1 0C1     -0.247000
     16 C16        -2.7710   -2.6480   -0.6070 cd        1 0C1      0.006000
     17 C17        -2.7290   -4.3800    1.0750 cc        1 0C1      0.022600
     18 C18        -1.8450   -1.9190    0.0890 cc        1 0C1     -0.162200
     19 C19        -1.3010   -2.4370    1.3530 c         1 0C1      0.691700
     20 C20         0.9190   -1.1570   -1.3380 c         1 0C1      0.732300
     21 C21        -5.3080    2.3360    0.6890 c3        1 0C1     -0.046100
     22 C22        -5.5570    0.8830    1.1320 c3        1 0C1      0.118400
     23 C23         3.8340   -2.5270   -1.2490 c3        1 0C1     -0.376300
     24 N1         -0.2140    1.1050   -1.3200 na        1 0C1     -0.049400
     25 N2         -1.8010   -3.6760    1.7980 n         1 0C1     -0.427100
     26 N3          1.4200   -1.9970   -0.3520 n         1 0C1     -0.675300
     27 O1         -0.4240   -1.8860    2.0530 o         1 0C1     -0.662500
     28 O2          1.4120   -1.1610   -2.4820 o         1 0C1     -0.586100
     29 O3          1.9680   -4.2270   -1.3950 o         1 0C1     -0.644800
     30 O4          2.8330   -3.6930    0.7570 o         1 0C1     -0.644800
     31 O5         -4.3820    0.0930    0.7800 os        1 0C1     -0.313900
     32 F1          1.8420    4.3680    2.2280 f         1 0C1     -0.132900
     33 F2          3.7190    1.6880   -2.1920 f         1 0C1     -0.133900
     34 S1          2.4850   -3.2490   -0.5340 s6        1 0C1      1.464600
     35 H1         -3.5480    4.3040   -0.5460 ha        1 0C1      0.139000
     36 H2         -1.2770    3.7640   -1.4310 ha        1 0C1      0.140000
     37 H4          5.2290    2.8450   -0.4020 ha        1 0C1      0.157000
     38 H5          0.3070    3.2070    0.4400 ha        1 0C1      0.168000
     39 H6         -3.9570   -4.4870   -0.6890 ha        1 0C1      0.156000
     40 H7         -3.1870   -2.2700   -1.5550 ha        1 0C1      0.151000
     41 H8         -3.0530   -5.3460    1.5050 h4        1 0C1      0.156000
     42 H10        -5.3470    3.0350    1.5600 hc        1 0C1      0.062700
     43 H11        -6.0700    2.6660   -0.0600 hc        1 0C1      0.062700
     44 H12        -5.6750    0.7850    2.2380 h1        1 0C1      0.061200
     45 H13        -6.4170    0.4110    0.5960 h1        1 0C1      0.061200
     46 H14         3.5980   -1.9760   -2.1970 h1        1 0C1      0.127033
     47 H15         4.3590   -1.8020   -0.5820 h1        1 0C1      0.127033
     48 H16         4.5930   -3.3030   -1.5270 h1        1 0C1      0.127033
     49 H19         1.0570   -1.8110    0.5680 hn        1 0C1      0.373500
     50 H9         -1.4560   -4.0380    2.6610 hn        1 0C1      0.339500
     51 C24         0.8860    1.8410   -1.8730 c3        1 0C1      0.077600
     52 H3          4.3900    4.0660    1.6220 ha        1 0C1      0.157000
     53 H17         0.4560    2.6880   -2.4870 h1        1 0C1      0.093700
     54 H18         1.4470    1.1480   -2.5720 h1        1 0C1      0.093700
@<TRIPOS>BOND
     1    1    2 ar  
     2    1    8 ar  
     3    1   35 1   
     4    2   10 ar  
     5    2   36 1   
     6    3    4 ar  
     7    3   12 ar  
     8    3   52 1   
     9    4   13 ar  
    10    4   37 1   
    11    5    9 ar  
    12    5   12 ar  
    13    5   38 1   
    14    6    7 1   
    15    6   10 ar  
    16    6   11 ar  
    17    7   14 2   
    18    7   18 1   
    19    8   11 ar  
    20    8   21 1   
    21    9   13 ar  
    22    9   51 1   
    23   10   24 1   
    24   11   31 1   
    25   12   32 1   
    26   13   33 1   
    27   14   20 1   
    28   14   24 1   
    29   15   16 1   
    30   15   17 2   
    31   15   39 1   
    32   16   18 2   
    33   16   40 1   
    34   17   25 1   
    35   17   41 1   
    36   18   19 1   
    37   19   25 1   
    38   19   27 2   
    39   20   26 1   
    40   20   28 2   
    41   21   22 1   
    42   21   42 1   
    43   21   43 1   
    44   22   31 1   
    45   22   44 1   
    46   22   45 1   
    47   23   34 1   
    48   23   46 1   
    49   23   47 1   
    50   23   48 1   
    51   24   51 1   
    52   25   50 1   
    53   26   34 1   
    54   26   49 1   
    55   29   34 2   
    56   30   34 2   
    57   51   53 1   
    58   51   54 1   
@<TRIPOS>SUBSTRUCTURE
     1 0C1         1 TEMP              0 ****  ****    0 ROOT
