@<TRIPOS>MOLECULE
0C1
   55    59     1     0     0
SMALL
bcc


@<TRIPOS>ATOM
      1 C1         -0.3000    1.8550    0.8990 ca        1 0C1     -0.052000
      2 C2          1.0870    1.8250    0.6070 ca        1 0C1     -0.097000
      3 C3          5.7630    3.0050    0.0910 c2        1 0C1     -0.151000
      4 C4          6.0900    1.7010    0.1200 c2        1 0C1     -0.156000
      5 C5          3.7290    2.6060   -1.2450 c2        1 0C1     -0.242000
      6 C6          1.4580    0.4660    2.6520 ca        1 0C1     -0.123000
      7 C7          2.6230   -0.1160    3.3190 c2        1 0C1      0.146000
      8 C8         -0.7790    1.2120    2.0150 ca        1 0C1     -0.103000
      9 C9          3.9450    1.1670   -1.1920 cx        1 0C1     -0.099000
     10 C10         1.9230    1.1450    1.4660 ca        1 0C1     -0.070000
     11 C11         0.1050    0.5090    2.9030 ca        1 0C1      0.159000
     12 C12         4.5730    3.4730   -0.6170 c2        1 0C1      0.114000
     13 C13         5.2260    0.6720   -0.5020 cx        1 0C1      0.142000
     14 C14         3.7370    0.1740    2.5750 c2        1 0C1     -0.189000
     15 C15         0.1140   -1.3480    7.9100 c1        1 0C1      0.239000
     16 C16         2.3810   -2.1670    4.6480 c2        1 0C1     -0.087000
     17 C17         0.8210   -0.8260    6.9090 c2        1 0C1     -0.377000
     18 C18         2.5800   -0.8460    4.5760 c2        1 0C1     -0.158000
     19 C19         2.8360   -0.0020    5.7870 c2        1 0C1      0.352000
     20 C20         5.1550   -0.2570    2.7730 c2        1 0C1      0.393000
     21 C21        -2.1650    1.0820    2.5530 c3        1 0C1     -0.155000
     22 C22        -1.9800    0.2390    3.8260 c3        1 0C1     -0.032000
     23 C23         8.0490   -1.0870    4.0590 c3        1 0C1     -0.975000
     24 N1          3.4020    0.9980    1.3710 n4        1 0C1      0.132000
     25 N2          2.0120   -0.1040    6.8840 n         1 0C1     -0.270000
     26 N3          5.8930    0.3990    3.7350 n         1 0C1     -0.837000
     27 O1          3.8070    0.7840    5.8270 o         1 0C1     -0.378000
     28 O2          5.6270   -1.1630    2.0670 o         1 0C1     -0.297000
     29 O3          7.8750    1.2900    4.9200 o         1 0C1     -0.912500
     30 O4          8.0000    0.9490    2.5520 o         1 0C1     -0.912500
     31 O5         -0.5510   -0.0710    3.9590 os        1 0C1     -0.197000
     32 F1          4.3700    4.8070   -0.6620 f         1 0C1     -0.071000
     33 F2          5.8860   -0.4070   -1.0050 f         1 0C1     -0.075000
     34 S1          7.5660    0.4970    3.8110 s6        1 0C1      2.823000
     35 H1          1.4620    2.3400   -0.2930 ha        1 0C1      0.174000
     36 H2         -0.9770    2.3970    0.2180 ha        1 0C1      0.177000
     37 H5          3.5790    0.6250   -2.0940 hc        1 0C1      0.179000
     38 H6          2.3490   -2.7000    5.6120 ha        1 0C1      0.151500
     39 H7          2.2480   -2.7960    3.7550 ha        1 0C1      0.151500
     40 H8          0.3390   -0.9940    5.9060 h4        1 0C1      0.199000
     41 H10        -2.4980   -0.7500    3.7720 h1        1 0C1      0.127500
     42 H11        -2.6070    2.0830    2.7920 hc        1 0C1      0.135500
     43 H12        -2.8410    0.5690    1.8230 hc        1 0C1      0.135500
     44 H13        -2.2560    0.7910    4.7570 h1        1 0C1      0.127500
     45 H14         7.7740   -1.4940    5.0650 h1        1 0C1      0.180667
     46 H15         9.1670   -1.1820    3.9940 h1        1 0C1      0.180667
     47 H16         7.6470   -1.8130    3.3040 h1        1 0C1      0.180667
     48 H19         5.3530    0.8890    4.4290 hn        1 0C1      0.291000
     49 H9          2.2360    0.4560    7.6810 hn        1 0C1      0.264000
     50 C24         3.8370    0.3810    0.1080 cx        1 0C1     -0.196000
     51 H3          6.4150    3.7750    0.5400 ha        1 0C1      0.189000
     52 H17         3.4750   -0.6740    0.0450 hx        1 0C1      0.204000
     53 H18         3.8460    1.9270    1.4690 hn        1 0C1      0.266000
     54 H32         2.9080    2.9740   -1.8820 ha        1 0C1      0.173000
     55 H4          7.0420    1.3430    0.5660 ha        1 0C1      0.224000
@<TRIPOS>BOND
     1    1    2 1   
     2    1    8 1   
     3    1   36 1   
     4    2   10 1   
     5    2   35 1   
     6    3    4 1   
     7    3   12 1   
     8    3   51 1   
     9    4   13 1   
    10    4   55 1   
    11    5    9 1   
    12    5   12 1   
    13    5   54 1   
    14    6    7 1   
    15    6   10 1   
    16    6   11 1   
    17    7   14 1   
    18    7   18 1   
    19    8   11 1   
    20    8   21 1   
    21    9   13 1   
    22    9   37 1   
    23    9   50 1   
    24   10   24 1   
    25   11   31 1   
    26   12   32 1   
    27   13   33 1   
    28   13   50 1   
    29   14   20 1   
    30   14   24 1   
    31   15   17 1   
    32   16   18 1   
    33   16   38 1   
    34   16   39 1   
    35   17   25 1   
    36   17   40 1   
    37   18   19 1   
    38   19   25 1   
    39   19   27 1   
    40   20   26 1   
    41   20   28 1   
    42   21   22 1   
    43   21   42 1   
    44   21   43 1   
    45   22   31 1   
    46   22   41 1   
    47   22   44 1   
    48   23   34 1   
    49   23   45 1   
    50   23   46 1   
    51   23   47 1   
    52   24   50 1   
    53   24   53 1   
    54   25   49 1   
    55   26   34 1   
    56   26   48 1   
    57   29   34 1   
    58   30   34 1   
    59   50   52 1   
@<TRIPOS>SUBSTRUCTURE
     1 0C1         1 TEMP              0 ****  ****    0 ROOT
