@<TRIPOS>MOLECULE
0C2
   57    59     1     0     0
SMALL
bcc


@<TRIPOS>ATOM
      1 C1         -0.1200    1.4880    0.5130 ca        1 0C2     -0.084000
      2 C2          1.2740    1.6290    0.5270 ca        1 0C2     -0.087000
      3 C3          5.8100    2.8120   -2.4690 ca        1 0C2     -0.223000
      4 C4          6.0340    1.4430   -2.3400 ca        1 0C2     -0.094000
      5 C5          4.4770    2.7630   -0.4200 ca        1 0C2     -0.292000
      6 C6          1.2870    0.5370    2.7420 ca        1 0C2     -0.093000
      7 C7          2.3330    0.0950    3.6790 c2        1 0C2      0.148000
      8 C8         -0.8150    0.9000    1.5730 ca        1 0C2     -0.054000
      9 C9          4.7020    1.3840   -0.2680 ca        1 0C2      0.100000
     10 C10         1.9500    1.1530    1.6350 ca        1 0C2     -0.090000
     11 C11        -0.1020    0.4330    2.7120 ca        1 0C2      0.128000
     12 C12         5.0290    3.4650   -1.5040 ca        1 0C2      0.130000
     13 C13         5.4940    0.7300   -1.2680 ca        1 0C2     -0.001000
     14 C14         3.5640    0.4280    3.1510 c2        1 0C2     -0.167000
     15 C15        -0.0250   -2.8610    7.1150 c1        1 0C2     -0.222000
     16 C16         2.5980   -1.8060    5.1860 c2        1 0C2     -0.058000
     17 C17         0.2850   -1.7060    7.0180 c1        1 0C2     -0.075000
     18 C18         2.1000   -0.5850    4.9450 c2        1 0C2     -0.133000
     19 C19         1.3610    0.2150    5.9600 c2        1 0C2      0.370000
     20 C20         4.9030    0.1310    3.7170 c2        1 0C2      0.418000
     21 C21        -1.5780    0.6530    4.5420 c3        1 0C2     -0.085000
     22 C22        -2.2570    0.7140    1.5000 c2        1 0C2     -0.146000
     23 C23        -3.0940    1.5100    0.8320 c2        1 0C2     -0.186000
     24 C24         7.9640   -0.9200    4.0350 c3        1 0C2     -0.957000
     25 N1          3.4220    1.1640    1.8590 n4        1 0C2      0.230000
     26 N2          0.6010   -0.4030    6.9540 n         1 0C2     -0.254000
     27 N3          6.0480    0.6300    3.1140 n         1 0C2     -0.849000
     28 O1          1.4010    1.4600    5.9860 o         1 0C2     -0.347000
     29 O2          5.0020   -0.5720    4.7420 o         1 0C2     -0.353000
     30 O3          7.5450    1.3790    4.9990 o         1 0C2     -0.916000
     31 O4          8.4200    1.2270    2.7830 o         1 0C2     -0.916000
     32 O5         -0.7640   -0.2130    3.7410 os        1 0C2     -0.223000
     33 F1          4.7930    4.7960   -1.6180 f         1 0C2     -0.117000
     34 F2          5.7270   -0.6060   -1.1710 f         1 0C2     -0.118000
     35 S1          7.5700    0.7020    3.7730 s6        1 0C2      2.817000
     36 H1          1.8120    2.0830   -0.3220 ha        1 0C2      0.180000
     37 H2         -0.6780    1.8370   -0.3710 ha        1 0C2      0.155000
     38 H4          6.6440    0.9120   -3.0870 ha        1 0C2      0.143000
     39 H5          3.8690    3.3290    0.2970 ha        1 0C2      0.117000
     40 H6          2.4620   -2.3340    6.1410 ha        1 0C2      0.143500
     41 H7          3.2010   -2.3400    4.4360 ha        1 0C2      0.143500
     42 H8         -0.2970   -3.8820    7.1970 ha        1 0C2      0.242000
     43 H10        -0.9260    1.3580    5.1150 h1        1 0C2      0.094333
     44 H11        -2.1080   -0.0550    5.2280 h1        1 0C2      0.094333
     45 H12        -2.3060    1.2160    3.9100 h1        1 0C2      0.094333
     46 H13        -2.6310   -0.1710    2.0500 ha        1 0C2      0.145000
     47 H14        -4.1740    1.3130    0.7980 ha        1 0C2      0.121500
     48 H15        -2.7670    2.4040    0.2830 ha        1 0C2      0.121500
     49 H16         7.2260   -1.4560    4.6860 h1        1 0C2      0.166000
     50 H17         8.9530   -1.0060    4.5540 h1        1 0C2      0.166000
     51 H18         8.0550   -1.5170    3.0940 h1        1 0C2      0.166000
     52 H21         5.9410    0.9130    2.1510 hn        1 0C2      0.291000
     53 H9          0.1810    0.1950    7.6390 hn        1 0C2      0.258000
     54 C25         4.2210    0.6140    0.8150 c2        1 0C2     -0.603000
     55 H3          6.2370    3.3740   -3.3090 ha        1 0C2      0.146000
     56 H19         3.6970    2.1460    2.0180 hn        1 0C2      0.243000
     57 H20         4.2500   -0.4800    0.7800 hx        1 0C2      0.173000
@<TRIPOS>BOND
     1    1    2 1   
     2    1    8 1   
     3    1   37 1   
     4    2   10 1   
     5    2   36 1   
     6    3    4 1   
     7    3   12 1   
     8    3   55 1   
     9    4   13 1   
    10    4   38 1   
    11    5    9 1   
    12    5   12 1   
    13    5   39 1   
    14    6    7 1   
    15    6   10 1   
    16    6   11 1   
    17    7   14 1   
    18    7   18 1   
    19    8   11 1   
    20    8   22 1   
    21    9   13 1   
    22    9   54 1   
    23   10   25 1   
    24   11   32 1   
    25   12   33 1   
    26   13   34 1   
    27   14   20 1   
    28   14   25 1   
    29   15   17 1   
    30   15   42 1   
    31   16   18 1   
    32   16   40 1   
    33   16   41 1   
    34   17   26 1   
    35   18   19 1   
    36   19   26 1   
    37   19   28 1   
    38   20   27 1   
    39   20   29 1   
    40   21   32 1   
    41   21   43 1   
    42   21   44 1   
    43   21   45 1   
    44   22   23 1   
    45   22   46 1   
    46   23   47 1   
    47   23   48 1   
    48   24   35 1   
    49   24   49 1   
    50   24   50 1   
    51   24   51 1   
    52   25   54 1   
    53   25   56 1   
    54   26   53 1   
    55   27   35 1   
    56   27   52 1   
    57   30   35 1   
    58   31   35 1   
    59   54   57 1   
@<TRIPOS>SUBSTRUCTURE
     1 0C2         1 TEMP              0 ****  ****    0 ROOT
