@<TRIPOS>MOLECULE
0C2
   57    61     1     0     0
SMALL
bcc


@<TRIPOS>ATOM
      1 C1          3.3850    2.7250    0.8610 ca        1 0C2     -0.042000
      2 C2          2.0520    2.6060    1.2380 ca        1 0C2     -0.198000
      3 C3         -3.2010    4.0490   -1.0900 ca        1 0C2     -0.135000
      4 C4         -3.8500    3.4310   -0.0320 ca        1 0C2     -0.142000
      5 C5         -1.0620    3.2300   -0.2450 ca        1 0C2     -0.130000
      6 C6          2.0880    0.2090    0.5200 ca        1 0C2     -0.111800
      7 C7          1.1250   -0.8720    0.4910 cc        1 0C2      0.011800
      8 C8          4.0620    1.6310    0.3260 ca        1 0C2     -0.201300
      9 C9         -1.7090    2.6030    0.8180 ca        1 0C2     -0.127300
     10 C10         1.4070    1.3670    1.0720 ca        1 0C2      0.005800
     11 C11         3.4190    0.3860    0.1600 ca        1 0C2      0.184100
     12 C12        -1.8010    3.9500   -1.1990 ca        1 0C2      0.117900
     13 C13        -3.1130    2.7060    0.9250 ca        1 0C2      0.116900
     14 C14        -0.0700   -0.3620    1.0130 cd        1 0C2     -0.111300
     15 C15         2.4620   -4.3870    0.3200 cd        1 0C2     -0.247000
     16 C16         2.1530   -3.0830    0.8020 cd        1 0C2      0.006000
     17 C17         2.0130   -4.7680   -0.9210 cc        1 0C2      0.022600
     18 C18         1.4030   -2.2200    0.0490 cc        1 0C2     -0.162200
     19 C19         0.9030   -2.6380   -1.2680 c         1 0C2      0.691700
     20 C20        -1.3390   -1.0900    1.2610 c         1 0C2      0.732300
     21 C21         5.5460    0.0320   -0.6120 c3        1 0C2      0.118400
     22 C22         5.4800    1.5040   -0.1410 c3        1 0C2     -0.029400
     23 C23         5.8360    2.4690   -1.2450 c3        1 0C2     -0.088100
     24 C24        -4.3990   -2.0310    0.8920 c3        1 0C2     -0.376300
     25 N1          0.1000    0.9860    1.3950 na        1 0C2     -0.049400
     26 N2          1.2600   -3.9290   -1.7020 n         1 0C2     -0.427100
     27 N3         -1.8650   -1.8390    0.2150 n         1 0C2     -0.675300
     28 O1          0.1760   -1.9580   -2.0250 o         1 0C2     -0.662500
     29 O2         -1.9250   -1.0390    2.3590 o         1 0C2     -0.586100
     30 O3         -2.8100   -3.9810    1.1540 o         1 0C2     -0.644800
     31 O4         -3.4010   -3.3020   -1.0500 o         1 0C2     -0.644800
     32 O5          4.2470   -0.5840   -0.3740 os        1 0C2     -0.313900
     33 F1         -1.1610    4.5570   -2.2280 f         1 0C2     -0.132900
     34 F2         -3.7730    2.1140    1.9500 f         1 0C2     -0.133900
     35 S1         -3.1070   -2.9280    0.2760 s6        1 0C2      1.464600
     36 H1          3.9060    3.6860    0.9810 ha        1 0C2      0.138000
     37 H2          1.5140    3.4650    1.6620 ha        1 0C2      0.140000
     38 H4         -4.9440    3.4990    0.0700 ha        1 0C2      0.157000
     39 H5          0.0350    3.1640   -0.3480 ha        1 0C2      0.168000
     40 H6          3.0560   -5.0730    0.9360 ha        1 0C2      0.156000
     41 H7          2.5350   -2.7810    1.7910 ha        1 0C2      0.151000
     42 H8          2.2340   -5.7640   -1.3480 h4        1 0C2      0.156000
     43 H10         5.7370   -0.0600   -1.7090 h1        1 0C2      0.062200
     44 H11         6.2830   -0.5700   -0.0260 h1        1 0C2      0.062200
     45 H12         6.1830    1.6550    0.7230 hc        1 0C2      0.065700
     46 H13         5.7280    3.5200   -0.8830 hc        1 0C2      0.042033
     47 H14         6.8920    2.3090   -1.5710 hc        1 0C2      0.042033
     48 H15         5.1650    2.3290   -2.1270 hc        1 0C2      0.042033
     49 H16        -4.1700   -1.5310    1.8700 h1        1 0C2      0.127033
     50 H17        -4.7570   -1.2300    0.2010 h1        1 0C2      0.127033
     51 H18        -5.2810   -2.6930    1.0860 h1        1 0C2      0.127033
     52 H21        -1.4020   -1.6940   -0.6660 hn        1 0C2      0.373500
     53 H9          0.9430   -4.2260   -2.5990 hn        1 0C2      0.339500
     54 C25        -0.9290    1.8640    1.8730 c3        1 0C2      0.077600
     55 H3         -3.7690    4.6140   -1.8440 ha        1 0C2      0.157000
     56 H19        -0.4390    2.6330    2.5420 h1        1 0C2      0.093700
     57 H20        -1.6410    1.2490    2.5050 h1        1 0C2      0.093700
@<TRIPOS>BOND
     1    1    2 ar  
     2    1    8 ar  
     3    1   36 1   
     4    2   10 ar  
     5    2   37 1   
     6    3    4 ar  
     7    3   12 ar  
     8    3   55 1   
     9    4   13 ar  
    10    4   38 1   
    11    5    9 ar  
    12    5   12 ar  
    13    5   39 1   
    14    6    7 1   
    15    6   10 ar  
    16    6   11 ar  
    17    7   14 2   
    18    7   18 1   
    19    8   11 ar  
    20    8   22 1   
    21    9   13 ar  
    22    9   54 1   
    23   10   25 1   
    24   11   32 1   
    25   12   33 1   
    26   13   34 1   
    27   14   20 1   
    28   14   25 1   
    29   15   16 1   
    30   15   17 2   
    31   15   40 1   
    32   16   18 2   
    33   16   41 1   
    34   17   26 1   
    35   17   42 1   
    36   18   19 1   
    37   19   26 1   
    38   19   28 2   
    39   20   27 1   
    40   20   29 2   
    41   21   22 1   
    42   21   32 1   
    43   21   43 1   
    44   21   44 1   
    45   22   23 1   
    46   22   45 1   
    47   23   46 1   
    48   23   47 1   
    49   23   48 1   
    50   24   35 1   
    51   24   49 1   
    52   24   50 1   
    53   24   51 1   
    54   25   54 1   
    55   26   53 1   
    56   27   35 1   
    57   27   52 1   
    58   30   35 2   
    59   31   35 2   
    60   54   56 1   
    61   54   57 1   
@<TRIPOS>SUBSTRUCTURE
     1 0C2         1 TEMP              0 ****  ****    0 ROOT
