@<TRIPOS>MOLECULE
0C2
   57    44     1     0     0
SMALL
bcc


@<TRIPOS>ATOM
      1 C1         -2.7220   -0.1290   -2.5300 c1        1 0C2     -0.047000
      2 C2         -1.3170   -0.2110   -2.5530 c1        1 0C2     -0.089500
      3 C3          2.8220    3.7770   -3.2820 c1        1 0C2     -0.126250
      4 C4          2.7260    2.6790   -4.1400 c1        1 0C2     -0.126250
      5 C5          1.9670    2.4190   -1.4410 c1        1 0C2     -0.119000
      6 C6         -1.2550   -0.4070   -0.1240 c1        1 0C2     -0.100000
      7 C7         -0.3200   -0.5770    0.8760 c1        1 0C2     -0.017000
      8 C8         -3.4110   -0.1840   -1.3000 c1        1 0C2     -0.190000
      9 C9          1.8700    1.3040   -2.3120 c1        1 0C2     -0.018000
     10 C10        -0.5840   -0.3530   -1.3250 c1        1 0C2     -0.038000
     11 C11        -2.6920   -0.3230   -0.0980 c1        1 0C2      0.131000
     12 C12         2.4430    3.6510   -1.9260 c1        1 0C2      0.079000
     13 C13         2.2450    1.4300   -3.6510 c1        1 0C2     -0.018000
     14 C14         0.9300   -0.6260    0.2840 c1        1 0C2     -0.071000
     15 C15        -1.0910    0.9810    4.4430 c1        1 0C2     -0.126250
     16 C16        -0.7820    0.8750    3.0090 c1        1 0C2     -0.089500
     17 C17        -1.4710   -0.2630    5.2300 c1        1 0C2     -0.126250
     18 C18        -0.7420   -0.4490    2.3650 c1        1 0C2     -0.038000
     19 C19        -1.1210   -1.6850    3.1560 c1        1 0C2      0.372500
     20 C20         2.0100   -1.2080    1.2070 c1        1 0C2      0.372500
     21 C21        -4.9910   -0.2770    0.4780 c3        1 0C2     -0.032000
     22 C22        -4.8620   -0.2480   -0.9720 c3        1 0C2     -0.076000
     23 C23        -5.5910    1.0090   -1.5360 c3        1 0C2     -0.205000
     24 C24         5.5120   -3.2170    1.0060 c3        1 0C2     -0.952000
     25 C25         1.7860   -0.2240   -2.0480 c2        1 0C2      0.021000
     26 N1          0.7670   -0.4880   -1.0680 n2        1 0C2     -0.145000
     27 N2         -1.4280   -1.5730    4.5920 n1        1 0C2     -0.270000
     28 N3          3.3660   -1.3290    0.7430 n2        1 0C2     -0.856000
     29 O1         -1.2780   -2.7460    2.5850 o         1 0C2     -0.372500
     30 O2          1.7130   -1.6200    2.2800 o         1 0C2     -0.372500
     31 O3          4.0090   -2.3610    3.0320 o         1 0C2     -0.921000
     32 O4          5.4330   -0.8550    2.2470 o         1 0C2     -0.921000
     33 O5         -3.6860   -0.3870    1.0330 os        1 0C2     -0.200000
     34 F1          2.4120    4.7200   -1.1490 f         1 0C2     -0.098000
     35 F2          2.5250    0.6970   -4.7470 f         1 0C2     -0.107000
     36 S1          4.5730   -1.9160    1.7950 s6        1 0C2      2.825000
     37 H1         -3.2040   -0.0220   -3.3390 ha        1 0C2      0.138000
     38 H2         -0.8360   -0.2750   -3.4310 ha        1 0C2      0.151500
     39 H3          3.1560    4.6410   -3.6220 ha        1 0C2      0.155750
     40 H4          2.9890    2.7680   -5.0770 ha        1 0C2      0.155750
     41 H5          1.7050    2.3320   -0.5030 ha        1 0C2      0.188000
     42 H6         -1.1200    1.8920    4.8900 ha        1 0C2      0.155750
     43 H7         -0.5360    1.6800    2.4980 ha        1 0C2      0.151500
     44 H8         -1.6740   -0.1930    6.1780 ha        1 0C2      0.155750
     45 H10        -5.5410   -1.0620    0.7520 h1        1 0C2      0.100000
     46 H11        -5.4150    0.5510    0.7900 h1        1 0C2      0.100000
     47 H12        -5.2480   -1.0460   -1.3500 hc        1 0C2      0.107000
     48 H13        -6.5410    1.0300   -1.1910 hc        1 0C2      0.080667
     49 H14        -5.6000    0.9700   -2.5530 hc        1 0C2      0.080667
     50 H15        -5.1140    1.8280   -1.2410 hc        1 0C2      0.080667
     51 H16         5.9270   -2.8730    0.1960 h1        1 0C2      0.162667
     52 H17         4.8970   -3.9800    0.7710 h1        1 0C2      0.162667
     53 H18         6.2280   -3.5450    1.6370 h1        1 0C2      0.162667
     54 H19         2.6590   -0.5500   -1.7120 h4        1 0C2      0.124500
     55 H20         1.5730   -0.6680   -2.8450 h4        1 0C2      0.124500
     56 H21         3.5870   -1.0380   -0.0790 hn        1 0C2      0.281000
     57 H9         -1.6590   -2.3280    5.0740 hn        1 0C2      0.249000
@<TRIPOS>BOND
     1    1    8 1   
     2    1   37 1   
     3    2   10 1   
     4    2   38 1   
     5    3    4 1   
     6    3   39 1   
     7    4   40 1   
     8    5   12 1   
     9    5   41 1   
    10    6   11 1   
    11    7   14 1   
    12    8   22 1   
    13    9   13 1   
    14   11   33 1   
    15   12   34 1   
    16   14   26 1   
    17   15   17 1   
    18   15   42 1   
    19   16   18 1   
    20   16   43 1   
    21   17   44 1   
    22   19   29 1   
    23   20   30 1   
    24   21   22 1   
    25   21   33 1   
    26   21   45 1   
    27   21   46 1   
    28   22   23 1   
    29   22   47 1   
    30   23   48 1   
    31   23   49 1   
    32   23   50 1   
    33   24   36 1   
    34   24   51 1   
    35   24   52 1   
    36   24   53 1   
    37   25   26 1   
    38   25   54 1   
    39   25   55 1   
    40   27   57 1   
    41   28   36 1   
    42   28   56 1   
    43   31   36 1   
    44   32   36 1   
@<TRIPOS>SUBSTRUCTURE
     1 0C2         1 TEMP              0 ****  ****    0 ROOT
