@<TRIPOS>MOLECULE
0C2
   58    61     1     0     0
SMALL
bcc


@<TRIPOS>ATOM
      1 C1         -0.0530    1.1640    0.3520 c3        1 0C2     -0.185000
      2 C2          1.3970    1.3060    0.2950 c1        1 0C2     -0.060000
      3 C3          5.5950    2.4120   -2.8910 ca        1 0C2     -0.100000
      4 C4          4.5960    1.4680   -3.0610 ca        1 0C2     -0.135000
      5 C5          5.7480    1.8310   -0.5250 ca        1 0C2     -0.138000
      6 C6          1.5750    0.2960    2.5890 c2        1 0C2      0.095000
      7 C7          2.6790    0.0370    3.5330 c2        1 0C2      0.080000
      8 C8         -0.6180    0.5610    1.5630 c2        1 0C2     -0.041000
      9 C9          4.7300    0.8860   -0.6930 ca        1 0C2     -0.167000
     10 C10         2.1210    0.8380    1.4020 c2        1 0C2     -0.214000
     11 C11         0.1760    0.1560    2.6300 c2        1 0C2      0.007000
     12 C12         6.1780    2.5970   -1.6180 ca        1 0C2      0.093000
     13 C13         4.1520    0.6990   -1.9650 ca        1 0C2      0.134000
     14 C14         3.8490    0.4030    2.9090 c2        1 0C2     -0.118000
     15 C15        -0.5400   -0.1730    7.7820 c1        1 0C2      0.238000
     16 C16         2.2380   -1.7660    5.1410 c2        1 0C2     -0.078000
     17 C17         0.3890    0.0450    6.8510 c2        1 0C2     -0.379000
     18 C18         2.4840   -0.4760    4.8770 c2        1 0C2     -0.175000
     19 C19         2.6200    0.5450    5.9690 c2        1 0C2      0.342000
     20 C20         5.2720    0.4490    3.3820 c2        1 0C2      0.404000
     21 C21        -1.9560   -0.3320    3.3150 c3        1 0C2     -0.034000
     22 C22        -2.0520    0.2700    1.8910 c3        1 0C2     -0.110000
     23 C23        -2.9360    1.4920    1.8450 c3        1 0C2     -0.214000
     24 C24         7.8360    0.9110    5.3600 c3        1 0C2     -0.978000
     25 N1          3.5940    0.8930    1.5190 n4        1 0C2      0.083000
     26 N2          1.6110    0.7120    6.8860 n         1 0C2     -0.267000
     27 N3          5.6200   -0.2430    4.5120 n         1 0C2     -0.797000
     28 O1          3.6560    1.2360    6.0600 o         1 0C2     -0.367000
     29 O2          6.1010    1.1010    2.7160 o         1 0C2     -0.347000
     30 O3          7.8690   -1.2460    4.0380 o         1 0C2     -0.900000
     31 O4          6.9780   -1.3000    6.2610 o         1 0C2     -0.900000
     32 O5         -0.5410   -0.3830    3.6880 os        1 0C2     -0.212000
     33 F1          7.1570    3.5150   -1.4530 f         1 0C2     -0.080000
     34 F2          3.1830   -0.2270   -2.1510 f         1 0C2     -0.093000
     35 S1          7.1810   -0.6000    5.0660 s6        1 0C2      2.822000
     36 H1         -0.4990    2.1980    0.1870 hc        1 0C2      0.211500
     37 H2         -0.3660    0.5770   -0.5710 hc        1 0C2      0.211500
     38 H5          6.2340    1.9600    0.4590 ha        1 0C2      0.176000
     39 H6          2.0850   -2.1290    6.1700 ha        1 0C2      0.154500
     40 H7          2.1840   -2.5350    4.3560 ha        1 0C2      0.154500
     41 H8          0.0990   -0.3800    5.8500 h4        1 0C2      0.203000
     42 H10        -2.4570    0.3050    4.0850 h1        1 0C2      0.126000
     43 H11        -2.3210   -1.3870    3.3590 h1        1 0C2      0.126000
     44 H12        -2.5770    2.2760    2.5550 hc        1 0C2      0.099667
     45 H13        -2.4500   -0.5030    1.1770 hc        1 0C2      0.141000
     46 H14        -3.9810    1.2130    2.1240 hc        1 0C2      0.099667
     47 H15        -2.9470    1.9230    0.8140 hc        1 0C2      0.099667
     48 H16         7.8390    1.5880    4.4650 h1        1 0C2      0.182333
     49 H17         8.9120    0.8310    5.6740 h1        1 0C2      0.182333
     50 H18         7.3280    1.4800    6.1800 h1        1 0C2      0.182333
     51 H21         5.2250   -0.3810    0.9670 hx        1 0C2      0.155500
     52 H9          1.7630    1.3730    7.6210 hn        1 0C2      0.265000
     53 C25         4.3090    0.0600    0.4730 c3        1 0C2     -0.036000
     54 H3          5.9470    3.0180   -3.7420 ha        1 0C2      0.175000
     55 H19         3.6120   -0.7670    0.1550 hx        1 0C2      0.155500
     56 H20         3.9210    1.8710    1.4390 hn        1 0C2      0.287000
     57 H32         4.8580   -0.5160    5.1020 hn        1 0C2      0.265000
     58 H4          4.1380    1.3070   -4.0510 ha        1 0C2      0.174000
@<TRIPOS>BOND
     1    1    2 1   
     2    1    8 1   
     3    1   36 1   
     4    1   37 1   
     5    2   10 1   
     6    3    4 1   
     7    3   12 1   
     8    3   54 1   
     9    4   13 1   
    10    4   58 1   
    11    5    9 1   
    12    5   12 1   
    13    5   38 1   
    14    6    7 1   
    15    6   10 1   
    16    6   11 1   
    17    7   14 1   
    18    7   18 1   
    19    8   11 1   
    20    8   22 1   
    21    9   13 1   
    22    9   53 1   
    23   10   25 1   
    24   11   32 1   
    25   12   33 1   
    26   13   34 1   
    27   14   20 1   
    28   14   25 1   
    29   15   17 1   
    30   16   18 1   
    31   16   39 1   
    32   16   40 1   
    33   17   26 1   
    34   17   41 1   
    35   18   19 1   
    36   19   26 1   
    37   19   28 1   
    38   20   27 1   
    39   20   29 1   
    40   21   22 1   
    41   21   32 1   
    42   21   42 1   
    43   21   43 1   
    44   22   23 1   
    45   22   45 1   
    46   23   44 1   
    47   23   46 1   
    48   23   47 1   
    49   24   35 1   
    50   24   48 1   
    51   24   49 1   
    52   24   50 1   
    53   25   53 1   
    54   25   56 1   
    55   26   52 1   
    56   27   35 1   
    57   27   57 1   
    58   30   35 1   
    59   31   35 1   
    60   51   53 1   
    61   53   55 1   
@<TRIPOS>SUBSTRUCTURE
     1 0C2         1 TEMP              0 ****  ****    0 ROOT
