@<TRIPOS>MOLECULE
0C2
   58    61     1     0     0
SMALL
bcc


@<TRIPOS>ATOM
      1 C1         -0.5460    1.4520    0.6860 ca        1 0C2     -0.047000
      2 C2          0.8340    1.7490    0.5380 ca        1 0C2     -0.100000
      3 C3          6.6250    2.9030   -2.1920 ce        1 0C2     -0.184000
      4 C4          6.1590    1.5860   -2.5080 ce        1 0C2     -0.050000
      5 C5          5.2280    2.9050   -0.1050 c3        1 0C2     -0.083000
      6 C6          1.3220    0.3060    2.5080 ca        1 0C2     -0.143800
      7 C7          2.5260   -0.0560    3.2580 cc        1 0C2      0.166800
      8 C8         -0.9620    0.6170    1.6930 ca        1 0C2     -0.116300
      9 C9          4.7250    1.5610   -0.4920 cf        1 0C2      0.041800
     10 C10         1.7170    1.1860    1.4330 ca        1 0C2      0.016600
     11 C11        -0.0250    0.0320    2.6140 ca        1 0C2      0.211100
     12 C12         6.1820    3.5340   -1.0710 c2        1 0C2      0.159300
     13 C13         5.2530    0.9450   -1.7120 cf        1 0C2      0.081500
     14 C14         3.6050    0.5550    2.6670 cd        1 0C2     -0.128200
     15 C15         0.1270   -1.9910    7.0920 c1        1 0C2     -0.120500
     16 C16         2.2920   -2.2140    4.3950 c2        1 0C2     -0.070000
     17 C17         1.0690   -1.2620    6.9510 c1        1 0C2     -0.095800
     18 C18         2.5350   -0.8980    4.4450 ce        1 0C2     -0.186200
     19 C19         2.8680   -0.1930    5.7220 c         1 0C2      0.684300
     20 C20         5.0340    0.6610    3.0750 c         1 0C2      0.749300
     21 C21        -2.0670   -0.7640    3.2910 c3        1 0C2      0.116400
     22 C22        -2.3330    0.1300    2.0580 c3        1 0C2     -0.046400
     23 C23        -3.3010    1.2460    2.3650 c3        1 0C2     -0.095100
     24 C24         7.2900    0.8420    5.3290 c3        1 0C2     -0.397300
     25 N1          3.1920    1.3580    1.4680 nx        1 0C2     -0.304400
     26 N2          2.1190   -0.4250    6.8630 ns        1 0C2     -0.385700
     27 N3          5.6010   -0.3960    3.7430 ns        1 0C2     -0.615300
     28 O1          3.8210    0.6080    5.7960 o         1 0C2     -0.604100
     29 O2          5.6680    1.7020    2.8040 o         1 0C2     -0.607100
     30 O3          8.0800   -0.4220    3.2850 o         1 0C2     -0.624300
     31 O4          7.1750   -1.6830    5.1090 o         1 0C2     -0.624300
     32 O5         -0.6220   -0.7800    3.5390 os        1 0C2     -0.294900
     33 F1          6.5850    4.7780   -0.7420 f         1 0C2     -0.137500
     34 F2          4.8070   -0.2970   -2.0270 f         1 0C2     -0.153500
     35 S1          7.1760   -0.5080    4.3440 s6        1 0C2      1.471600
     36 H1          1.1610    2.4090   -0.2800 ha        1 0C2      0.171000
     37 H2         -1.2670    1.9000   -0.0170 ha        1 0C2      0.176000
     38 H5          4.3640    3.6160    0.0370 hc        1 0C2      0.114700
     39 H6          2.3000   -2.8470    5.2980 ha        1 0C2      0.153500
     40 H7          2.0760   -2.7400    3.4520 ha        1 0C2      0.153500
     41 H8         -0.7030   -2.6400    7.2200 ha        1 0C2      0.191500
     42 H10        -2.3530   -1.8310    3.1200 h1        1 0C2      0.088200
     43 H11        -2.5310   -0.3620    4.2260 h1        1 0C2      0.088200
     44 H12        -2.7450   -0.4980    1.2190 hc        1 0C2      0.094700
     45 H13        -3.4380    1.8940    1.4660 hc        1 0C2      0.057033
     46 H14        -4.2940    0.8200    2.6510 hc        1 0C2      0.057033
     47 H15        -2.9310    1.8790    3.2080 hc        1 0C2      0.057033
     48 H16         7.3230    1.8060    4.7560 h1        1 0C2      0.142033
     49 H17         8.2270    0.8200    5.9470 h1        1 0C2      0.142033
     50 H18         6.4480    0.9520    6.0620 h1        1 0C2      0.142033
     51 H21         4.9760   -1.1440    3.9600 hn        1 0C2      0.339500
     52 H9          2.3840    0.0610    7.6990 hn        1 0C2      0.361500
     53 C25         3.8120    0.8750    0.2430 c2        1 0C2     -0.166000
     54 H3          7.3440    3.3840   -2.8740 ha        1 0C2      0.181000
     55 H19         3.4700   -0.1400   -0.0400 hx        1 0C2      0.208000
     56 H20         3.4400    2.3440    1.6450 hn        1 0C2      0.471800
     57 H32         5.7630    2.8220    0.8930 hc        1 0C2      0.114700
     58 H4          6.5490    1.0980   -3.4180 ha        1 0C2      0.179000
@<TRIPOS>BOND
     1    1    2 ar  
     2    1    8 ar  
     3    1   37 1   
     4    2   10 ar  
     5    2   36 1   
     6    3    4 1   
     7    3   12 2   
     8    3   54 1   
     9    4   13 2   
    10    4   58 1   
    11    5    9 1   
    12    5   12 1   
    13    5   38 1   
    14    5   57 1   
    15    6    7 1   
    16    6   10 ar  
    17    6   11 ar  
    18    7   14 2   
    19    7   18 1   
    20    8   11 ar  
    21    8   22 1   
    22    9   13 1   
    23    9   53 2   
    24   10   25 1   
    25   11   32 1   
    26   12   33 1   
    27   13   34 1   
    28   14   20 1   
    29   14   25 1   
    30   15   17 3   
    31   15   41 1   
    32   16   18 2   
    33   16   39 1   
    34   16   40 1   
    35   17   26 1   
    36   18   19 1   
    37   19   26 1   
    38   19   28 2   
    39   20   27 1   
    40   20   29 2   
    41   21   22 1   
    42   21   32 1   
    43   21   42 1   
    44   21   43 1   
    45   22   23 1   
    46   22   44 1   
    47   23   45 1   
    48   23   46 1   
    49   23   47 1   
    50   24   35 1   
    51   24   48 1   
    52   24   49 1   
    53   24   50 1   
    54   25   53 1   
    55   25   56 1   
    56   26   52 1   
    57   27   35 1   
    58   27   51 1   
    59   30   35 2   
    60   31   35 2   
    61   53   55 1   
@<TRIPOS>SUBSTRUCTURE
     1 0C2         1 TEMP              0 ****  ****    0 ROOT
