@<TRIPOS>MOLECULE
0C3
   41    43     1     0     0
SMALL
bcc


@<TRIPOS>ATOM
      1 N01         0.6860    3.3210    0.9640 nb        1 0C3     -0.634000
      2 N02         0.5390    0.8960    0.6440 nb        1 0C3     -0.647000
      3 N03         1.2800   -0.6720    2.3400 n4        1 0C3     -0.622100
      4 N04        -0.4630    2.3950   -1.0060 n4        1 0C3     -0.586100
      5 C05         1.2660    3.1080    2.1550 ca        1 0C3      0.486200
      6 C06         0.3230    2.1920    0.2630 ca        1 0C3      0.757900
      7 C07         1.0980    0.7280    1.8790 ca        1 0C3      0.539200
      8 C08         1.4850    1.8140    2.6910 ca        1 0C3     -0.276600
      9 C09         0.3610   -1.0480    3.4290 ca        1 0C3     -0.055400
     10 C10        -0.9990   -1.2150    3.1450 ca        1 0C3     -0.069000
     11 C11        -1.8700   -1.6390    4.1610 ca        1 0C3     -0.046000
     12 C12        -1.3870   -1.8830    5.4400 ca        1 0C3     -0.086000
     13 C13        -0.0230   -1.7250    5.7210 ca        1 0C3     -0.058000
     14 C14         0.8610   -1.3150    4.7290 ca        1 0C3     -0.176300
     15 C15         2.3480   -1.2100    5.0550 c3        1 0C3      0.680200
     16 C16        -1.7000    1.6170   -0.8850 ca        1 0C3     -0.144400
     17 C17        -2.7490    2.1170   -0.0850 ca        1 0C3     -0.097500
     18 C18        -3.7210    1.2290    0.3530 ca        1 0C3     -0.112000
     19 C19        -3.6320   -0.1330    0.0290 ca        1 0C3     -0.038600
     20 C20        -2.7250   -0.5540   -0.9550 ca        1 0C3     -0.112000
     21 C21        -1.7380    0.3080   -1.4090 ca        1 0C3     -0.097500
     22 C22        -4.2950   -1.1740    0.9410 c         1 0C3      0.925200
     23 O23        -3.4760   -1.6020    1.8140 o         1 0C3     -0.784800
     24 O24        -5.4860   -1.4880    0.7960 o         1 0C3     -0.784800
     25 F25         2.7070   -1.5710    6.3190 f         1 0C3     -0.227967
     26 F26         3.1440   -1.9640    4.2180 f         1 0C3     -0.227967
     27 F27         2.8570    0.0610    4.8860 f         1 0C3     -0.227967
     28 H1          2.2630   -0.7760    2.6430 hn        1 0C3      0.485300
     29 H2          0.0950    2.0630   -1.8030 hn        1 0C3      0.479300
     30 H3          1.5630    4.0190    2.7220 h4        1 0C3      0.095100
     31 H4          1.9290    1.6900    3.6950 ha        1 0C3      0.220000
     32 H5         -1.4460   -1.0550    2.1380 ha        1 0C3      0.223000
     33 H6         -2.9430   -1.7850    3.8920 ha        1 0C3      0.244000
     34 H7         -2.0720   -2.2170    6.2400 ha        1 0C3      0.182000
     35 H8          0.3580   -1.9400    6.7360 ha        1 0C3      0.183000
     36 H9         -2.7850    3.1750    0.2170 ha        1 0C3      0.142500
     37 H10        -4.5480    1.5780    0.9940 ha        1 0C3      0.179500
     38 H11        -2.7750   -1.5910   -1.3270 ha        1 0C3      0.179500
     39 H12        -0.9840   -0.0430   -2.1300 ha        1 0C3      0.142500
     40 H032        1.1050   -1.3260    1.5550 hn        1 0C3      0.485300
     41 H042       -0.6760    3.3970   -1.1170 hn        1 0C3      0.479300
@<TRIPOS>BOND
     1    1    5 ar  
     2    1    6 ar  
     3    2    6 ar  
     4    2    7 ar  
     5    3    7 1   
     6    3    9 1   
     7    3   28 1   
     8    3   40 1   
     9    4    6 1   
    10    4   16 1   
    11    4   29 1   
    12    4   41 1   
    13    5    8 ar  
    14    5   30 1   
    15    7    8 ar  
    16    8   31 1   
    17    9   10 ar  
    18    9   14 ar  
    19   10   11 ar  
    20   10   32 1   
    21   11   12 ar  
    22   11   33 1   
    23   12   13 ar  
    24   12   34 1   
    25   13   14 ar  
    26   13   35 1   
    27   14   15 1   
    28   15   25 1   
    29   15   26 1   
    30   15   27 1   
    31   16   17 ar  
    32   16   21 ar  
    33   17   18 ar  
    34   17   36 1   
    35   18   19 ar  
    36   18   37 1   
    37   19   20 ar  
    38   19   22 1   
    39   20   21 ar  
    40   20   38 1   
    41   21   39 1   
    42   22   23 1   
    43   22   24 1   
@<TRIPOS>SUBSTRUCTURE
     1 0C3         1 TEMP              0 ****  ****    0 ROOT
