@<TRIPOS>MOLECULE
0C3
   39    41     1     0     0
SMALL
bcc


@<TRIPOS>ATOM
      1 N01         0.2550    0.4200   -0.1630 nb        1 0C3     -0.728000
      2 N02        -0.0960    0.2190    2.2700 nb        1 0C3     -0.820000
      3 N03         1.7920   -0.2310    3.7020 nh        1 0C3     -0.744300
      4 N04        -1.9120    0.7550    0.8490 nh        1 0C3     -0.685300
      5 C05         1.5580    0.2160    0.0500 ca        1 0C3      0.481200
      6 C06        -0.5560    0.4310    0.9710 ca        1 0C3      0.904900
      7 C07         1.2400    0.0150    2.4250 ca        1 0C3      0.706200
      8 C08         2.1350    0.0130    1.3130 ca        1 0C3     -0.477600
      9 C09         1.0640   -0.2720    4.8950 ca        1 0C3      0.228600
     10 C10        -0.1780   -0.9510    4.9860 ca        1 0C3     -0.138000
     11 C11        -0.8510   -1.0360    6.1950 ca        1 0C3     -0.081000
     12 C12        -0.3150   -0.4750    7.3570 ca        1 0C3     -0.170000
     13 C13         0.9100    0.1750    7.2970 ca        1 0C3     -0.065000
     14 C14         1.5990    0.2840    6.0870 ca        1 0C3     -0.236300
     15 C15         2.9390    1.0050    6.0770 c3        1 0C3      0.687200
     16 C16        -2.6300    0.5620   -0.3650 ca        1 0C3      0.066600
     17 C17        -3.7180   -0.3400   -0.3880 ca        1 0C3     -0.152000
     18 C18        -4.4850   -0.4730   -1.5390 ca        1 0C3     -0.103500
     19 C19        -4.1900    0.2680   -2.6880 ca        1 0C3     -0.117600
     20 C20        -3.1090    1.1510   -2.6640 ca        1 0C3     -0.103500
     21 C21        -2.3310    1.3080   -1.5190 ca        1 0C3     -0.152000
     22 C22        -5.0410    0.1130   -3.9420 c         1 0C3      0.908200
     23 O23        -4.7380    0.8090   -4.9510 o         1 0C3     -0.827300
     24 O24        -6.0060   -0.7020   -3.9000 o         1 0C3     -0.827300
     25 F25         3.3250    1.5460    7.2790 f         1 0C3     -0.242967
     26 F26         4.0090    0.2150    5.7180 f         1 0C3     -0.242967
     27 F27         3.0200    2.0630    5.2010 f         1 0C3     -0.242967
     28 H1          2.7470    0.0540    3.7770 hn        1 0C3      0.439800
     29 H2         -2.4590    0.5780    1.6690 hn        1 0C3      0.427800
     30 H3          2.1890    0.2110   -0.8590 h4        1 0C3      0.024100
     31 H4          3.2100   -0.1480    1.4270 ha        1 0C3      0.147000
     32 H5         -0.6200   -1.4200    4.0920 ha        1 0C3      0.168000
     33 H6         -1.8190   -1.5600    6.2380 ha        1 0C3      0.138000
     34 H7         -0.8570   -0.5480    8.3100 ha        1 0C3      0.137000
     35 H8          1.3470    0.6160    8.2090 ha        1 0C3      0.145000
     36 H9         -3.9690   -0.9340    0.5020 ha        1 0C3      0.118000
     37 H10        -5.3400   -1.1680   -1.5740 ha        1 0C3      0.156000
     38 H11        -2.8870    1.7280   -3.5780 ha        1 0C3      0.156000
     39 H12        -1.4860    2.0110   -1.5270 ha        1 0C3      0.118000
@<TRIPOS>BOND
     1    1    5 ar  
     2    1    6 ar  
     3    2    6 ar  
     4    2    7 ar  
     5    3    7 1   
     6    3    9 1   
     7    3   28 1   
     8    4    6 1   
     9    4   16 1   
    10    4   29 1   
    11    5    8 ar  
    12    5   30 1   
    13    7    8 ar  
    14    8   31 1   
    15    9   10 ar  
    16    9   14 ar  
    17   10   11 ar  
    18   10   32 1   
    19   11   12 ar  
    20   11   33 1   
    21   12   13 ar  
    22   12   34 1   
    23   13   14 ar  
    24   13   35 1   
    25   14   15 1   
    26   15   25 1   
    27   15   26 1   
    28   15   27 1   
    29   16   17 ar  
    30   16   21 ar  
    31   17   18 ar  
    32   17   36 1   
    33   18   19 ar  
    34   18   37 1   
    35   19   20 ar  
    36   19   22 1   
    37   20   21 ar  
    38   20   38 1   
    39   21   39 1   
    40   22   23 1   
    41   22   24 1   
@<TRIPOS>SUBSTRUCTURE
     1 0C3         1 TEMP              0 ****  ****    0 ROOT
