@<TRIPOS>MOLECULE
0C3
   39    31     1     0     0
SMALL
bcc


@<TRIPOS>ATOM
      1 N01        -0.3130   -0.9250   -1.4630 n1        1 0C3     -0.190000
      2 N02        -0.3050   -0.8520    0.8960 n1        1 0C3     -0.284000
      3 N03         1.7430   -0.9820    2.1230 n3        1 0C3     -0.251000
      4 N04        -2.4090   -0.8610   -0.2770 n3        1 0C3     -0.204000
      5 C05         1.0270   -0.9750   -1.4670 c1        1 0C3      0.004000
      6 C06        -0.9890   -0.8640   -0.2820 c1        1 0C3      0.180000
      7 C07         1.0350   -0.9020    0.8950 c2        1 0C3      0.158000
      8 C08         1.7140   -0.9640   -0.2880 c2        1 0C3     -0.318000
      9 C09         2.4940    0.1300    2.5820 c1        1 0C3      0.144000
     10 C10         1.8430    1.2780    3.0070 c1        1 0C3     -0.191000
     11 C11         2.5770    2.3750    3.4290 c1        1 0C3     -0.119500
     12 C12         3.9620    2.3250    3.4260 c1        1 0C3     -0.119500
     13 C13         4.6140    1.1770    3.0010 c1        1 0C3     -0.054000
     14 C14         3.8800    0.0800    2.5790 c1        1 0C3     -0.228000
     15 C15         4.5870   -1.2020    2.2030 c3        1 0C3      0.470000
     16 C16        -3.1210   -0.4530   -1.4350 c1        1 0C3     -0.018000
     17 C17        -3.6510   -1.4040   -2.2920 c1        1 0C3     -0.119500
     18 C18        -4.4180   -1.0090   -3.3770 c1        1 0C3     -0.119500
     19 C19        -4.6560    0.3370   -3.6030 c1        1 0C3     -0.096000
     20 C20        -4.1270    1.2880   -2.7460 c1        1 0C3     -0.101000
     21 C21        -3.3590    0.8940   -1.6610 c1        1 0C3     -0.181000
     22 C22        -5.4660    0.7700   -4.8060 c1        1 0C3      0.357000
     23 O23        -6.7050    0.9620   -4.6950 os        1 0C3     -0.563000
     24 O24        -4.9030    0.9250   -5.9220 o         1 0C3     -0.560000
     25 F25         4.2510   -2.1680    3.0680 f         1 0C3     -0.169667
     26 F26         4.2260   -1.5650    0.9660 f         1 0C3     -0.169667
     27 F27         5.9110   -1.0090    2.2420 f         1 0C3     -0.169667
     28 H1          1.7280   -1.7540    2.6090 hn        1 0C3      0.241000
     29 H2         -2.8630   -1.1250    0.4680 hn        1 0C3      0.226000
     30 H3          1.5120   -1.0200   -2.3140 ha        1 0C3      0.162000
     31 H4          2.6890   -1.0010   -0.2900 ha        1 0C3      0.155000
     32 H5          0.8680    1.3140    3.0100 ha        1 0C3      0.159000
     33 H6          2.1190    3.1700    3.7600 ha        1 0C3      0.140000
     34 H7          4.4800    3.0980    3.7240 ha        1 0C3      0.140000
     35 H8          5.5890    1.1420    2.9990 ha        1 0C3      0.146000
     36 H9         -3.4990   -2.3540   -2.1220 ha        1 0C3      0.140000
     37 H10        -4.7910   -1.6790   -3.9810 ha        1 0C3      0.140000
     38 H11        -4.2940    2.2370   -2.9060 ha        1 0C3      0.156000
     39 H12        -2.9810    1.5640   -1.0610 ha        1 0C3      0.108000
@<TRIPOS>BOND
     1    1    6 1   
     2    2    7 1   
     3    3    7 1   
     4    3    9 1   
     5    3   28 1   
     6    4    6 1   
     7    4   16 1   
     8    4   29 1   
     9    5    8 1   
    10    5   30 1   
    11    7    8 1   
    12    8   31 1   
    13    9   10 1   
    14   10   32 1   
    15   11   12 1   
    16   11   33 1   
    17   12   34 1   
    18   13   14 1   
    19   13   35 1   
    20   14   15 1   
    21   15   25 1   
    22   15   26 1   
    23   15   27 1   
    24   16   21 1   
    25   17   18 1   
    26   17   36 1   
    27   18   37 1   
    28   19   20 1   
    29   20   38 1   
    30   21   39 1   
    31   22   24 1   
@<TRIPOS>SUBSTRUCTURE
     1 0C3         1 TEMP              0 ****  ****    0 ROOT
