@<TRIPOS>MOLECULE
0C3
   39    41     1     0     0
SMALL
bcc


@<TRIPOS>ATOM
      1 N01        -1.3120   -1.7770    0.4440 nb        1 0C3     -0.728000
      2 N02         0.4650   -0.0890    0.1650 nb        1 0C3     -0.820000
      3 N03         2.7140   -0.6170    0.8580 nh        1 0C3     -0.744300
      4 N04        -1.7310    0.3630   -0.5930 nh        1 0C3     -0.685300
      5 C05        -0.3890   -2.6060    0.9420 ca        1 0C3      0.481200
      6 C06        -0.8550   -0.5210    0.0470 ca        1 0C3      0.904900
      7 C07         1.3590   -0.9750    0.6810 ca        1 0C3      0.706200
      8 C08         0.9700   -2.2870    1.0870 ca        1 0C3     -0.477600
      9 C09         3.2660    0.6230    0.5230 ca        1 0C3      0.228600
     10 C10         2.6060    1.8390    0.8350 ca        1 0C3     -0.138000
     11 C11         3.2010    3.0590    0.5540 ca        1 0C3     -0.081000
     12 C12         4.4720    3.1230   -0.0240 ca        1 0C3     -0.170000
     13 C13         5.1460    1.9460   -0.3180 ca        1 0C3     -0.065000
     14 C14         4.5600    0.7050   -0.0550 ca        1 0C3     -0.236300
     15 C15         5.3430   -0.5540   -0.3950 c3        1 0C3      0.687200
     16 C16        -3.1410    0.3010   -0.4050 ca        1 0C3      0.066600
     17 C17        -3.8100    1.4010    0.1770 ca        1 0C3     -0.152000
     18 C18        -5.1950    1.3930    0.2870 ca        1 0C3     -0.103500
     19 C19        -5.9450    0.3020   -0.1650 ca        1 0C3     -0.117600
     20 C20        -5.2800   -0.7870   -0.7320 ca        1 0C3     -0.103500
     21 C21        -3.8920   -0.7980   -0.8590 ca        1 0C3     -0.152000
     22 C22        -7.4630    0.3090   -0.0420 c         1 0C3      0.908200
     23 O23        -8.0940   -0.6980   -0.4690 o         1 0C3     -0.827300
     24 O24        -8.0050    1.3230    0.4800 o         1 0C3     -0.827300
     25 F25         6.5590   -0.3450   -0.9990 f         1 0C3     -0.242967
     26 F26         5.6510   -1.3440    0.6910 f         1 0C3     -0.242967
     27 F27         4.7000   -1.4230   -1.2460 f         1 0C3     -0.242967
     28 H1          3.3340   -1.4000    0.8220 hn        1 0C3      0.439800
     29 H2         -1.3830    1.2970   -0.6940 hn        1 0C3      0.427800
     30 H3         -0.7660   -3.5990    1.2510 h4        1 0C3      0.024100
     31 H4          1.6800   -3.0080    1.5000 ha        1 0C3      0.147000
     32 H5          1.6110    1.8240    1.3080 ha        1 0C3      0.168000
     33 H6          2.6640    3.9900    0.7970 ha        1 0C3      0.138000
     34 H7          4.9340    4.0950   -0.2430 ha        1 0C3      0.137000
     35 H8          6.1520    1.9840   -0.7680 ha        1 0C3      0.145000
     36 H9         -3.2420    2.2700    0.5400 ha        1 0C3      0.118000
     37 H10        -5.7340    2.2450    0.7340 ha        1 0C3      0.156000
     38 H11        -5.8830   -1.6410   -1.0810 ha        1 0C3      0.156000
     39 H12        -3.3940   -1.6680   -1.3100 ha        1 0C3      0.118000
@<TRIPOS>BOND
     1    1    5 ar  
     2    1    6 ar  
     3    2    6 ar  
     4    2    7 ar  
     5    3    7 1   
     6    3    9 1   
     7    3   28 1   
     8    4    6 1   
     9    4   16 1   
    10    4   29 1   
    11    5    8 ar  
    12    5   30 1   
    13    7    8 ar  
    14    8   31 1   
    15    9   10 ar  
    16    9   14 ar  
    17   10   11 ar  
    18   10   32 1   
    19   11   12 ar  
    20   11   33 1   
    21   12   13 ar  
    22   12   34 1   
    23   13   14 ar  
    24   13   35 1   
    25   14   15 1   
    26   15   25 1   
    27   15   26 1   
    28   15   27 1   
    29   16   17 ar  
    30   16   21 ar  
    31   17   18 ar  
    32   17   36 1   
    33   18   19 ar  
    34   18   37 1   
    35   19   20 ar  
    36   19   22 1   
    37   20   21 ar  
    38   20   38 1   
    39   21   39 1   
    40   22   23 1   
    41   22   24 1   
@<TRIPOS>SUBSTRUCTURE
     1 0C3         1 TEMP              0 ****  ****    0 ROOT
