@<TRIPOS>MOLECULE
0C4
   36    52     1     0     0
SMALL
bcc


@<TRIPOS>ATOM
      1 Br2         0.0000    0.0000    0.0000 br        1 0C4      0.086000
      2 N02         4.8910    0.9270   -1.6190 n2        1 0C4     -0.370000
      3 N03         5.8820    1.2210   -3.6880 n7        1 0C4     -0.037000
      4 N04         2.7330    0.0060   -1.3920 n7        1 0C4     -0.234000
      5 C05         8.8070    3.5180   -4.4970 c3        1 0C4      0.144000
      6 C06        10.1310    3.4020   -4.0630 c2        1 0C4     -0.159000
      7 C07        10.4130    2.7620   -2.8520 c3        1 0C4      0.165000
      8 C08         9.3880    2.2500   -2.0910 c3        1 0C4     -0.039000
      9 C09         8.0710    2.3690   -2.5260 DU        1 0C4     -0.155000
     10 C10         7.7860    3.0090   -3.7280 c3        1 0C4     -0.093000
     11 C12         5.9100    1.3200   -2.3680 c3        1 0C4      0.050000
     12 C13         3.7990    0.4170   -2.1780 c2        1 0C4      0.267000
     13 C14         3.7400    0.3000   -3.5690 c2        1 0C4     -0.301000
     14 C15         4.8250    0.7220   -4.3120 c3        1 0C4     -0.096000
     15 C16         2.8530    0.0000    0.0000 c3        1 0C4     -0.096000
     16 C17         4.1100    0.0000    0.5910 c2        1 0C4     -0.101000
     17 C18         4.2240   -0.0050    1.9670 c2        1 0C4      0.094000
     18 C19         3.0900   -0.0110    2.7580 c2        1 0C4      0.146000
     19 C20         1.8360   -0.0110    2.1730 c2        1 0C4     -0.061000
     20 C21         1.7140    0.0000    0.7980 c2        1 0C4     -0.148000
     21 O25        12.5040    3.8360   -4.4620 o         1 0C4     -0.566500
     22 O26        10.9820    4.5050   -5.9340 o         1 0C4     -0.566500
     23 H1          6.8620    0.8860   -1.9640 DU        1 0C4      0.107000
     24 H2          3.5790    0.4180   -1.7320 hn        1 0C4      0.168000
     25 H3          8.4220    2.9480   -3.6600 DU        1 0C4     -0.095000
     26 H4          9.4010    2.3960   -2.7300 DU        1 0C4     -0.075000
     27 H5          9.1630    2.7450   -3.0280 DU        1 0C4      0.080000
     28 H6          8.8100    2.9140   -3.3870 DU        1 0C4     -0.012000
     29 H7          4.7160    0.5410   -3.1660 DU        1 0C4      0.081000
     30 H8          5.5060    1.5600   -4.2250 DU        1 0C4      0.241000
     31 H9          3.8290   -0.0260   -0.4550 DU        1 0C4      0.253000
     32 H10         4.3100    0.0900    0.8920 ha        1 0C4      0.053000
     33 H11         3.7030   -0.0060    1.8650 ha        1 0C4     -0.249000
     34 H12         2.9170   -0.0100    2.2560 ha        1 0C4     -0.034000
     35 N01         7.0350    1.8490   -1.7540 n7        1 0C4      0.140000
     36 C11        11.2280    3.9500   -4.8810 c2        1 0C4      0.414000
@<TRIPOS>BOND
     1    1   20 1   
     2    2   11 1   
     3    2   12 1   
     4    3   11 1   
     5    3   14 1   
     6    3   30 1   
     7    4   12 1   
     8    4   15 1   
     9    4   24 1   
    10    5    6 1   
    11    5   10 1   
    12    5   25 1   
    13    5   28 1   
    14    6    7 1   
    15    6   36 1   
    16    7    8 1   
    17    7   26 1   
    18    7   27 1   
    19    8    9 1   
    20    8   26 1   
    21    8   27 1   
    22    9   10 1   
    23    9   25 1   
    24    9   27 1   
    25    9   28 1   
    26    9   35 1   
    27   10   25 1   
    28   10   28 1   
    29   11   23 1   
    30   11   35 1   
    31   12   13 1   
    32   13   14 1   
    33   13   29 1   
    34   14   29 1   
    35   14   30 1   
    36   15   16 1   
    37   15   20 1   
    38   15   31 1   
    39   16   17 1   
    40   16   31 1   
    41   17   18 1   
    42   17   32 1   
    43   18   19 1   
    44   18   33 1   
    45   19   20 1   
    46   19   34 1   
    47   21   36 1   
    48   22   36 1   
    49   23   35 1   
    50   25   28 1   
    51   26   27 1   
    52   27   28 1   
@<TRIPOS>SUBSTRUCTURE
     1 0C4         1 TEMP              0 ****  ****    0 ROOT
