@<TRIPOS>MOLECULE
0C4
   36    30     1     0     0
SMALL
bcc


@<TRIPOS>ATOM
      1 BR2        -1.8720   -1.1440    3.6130 br        1 0C4      0.043000
      2 N01         1.2590    0.9790    0.4900 n3        1 0C4     -0.208000
      3 N02        -0.9130   -0.0700    0.3540 n1        1 0C4     -0.289000
      4 N03         0.3000    0.3080   -1.6350 n1        1 0C4     -0.194000
      5 N04        -3.1580   -0.9530    0.2870 n3        1 0C4     -0.246000
      6 C05         2.9820    4.0300   -0.7700 c1        1 0C4     -0.100000
      7 C06         4.1800    3.4920   -1.2250 c1        1 0C4     -0.097000
      8 C07         4.3970    2.1220   -1.1500 c1        1 0C4     -0.133000
      9 C08         3.4130    1.2880   -0.6180 c1        1 0C4     -0.133000
     10 C09         2.2200    1.8240   -0.1640 c1        1 0C4     -0.013000
     11 C10         2.0000    3.1940   -0.2380 c1        1 0C4     -0.181000
     12 C11         5.2790    4.3960   -1.6780 c2        1 0C4      0.357000
     13 C12         0.2080    0.3680   -0.2700 c1        1 0C4      0.181000
     14 C13        -1.9330   -0.5640   -0.3680 c1        1 0C4      0.160000
     15 C14        -1.8400   -0.6240   -1.7260 c1        1 0C4     -0.133000
     16 C15        -0.7120   -0.1830   -2.3520 c1        1 0C4     -0.133000
     17 C16        -3.2190   -2.2060    1.0310 c2        1 0C4      0.114000
     18 C17        -3.8640   -3.3090    0.4830 c2        1 0C4     -0.182000
     19 C18        -3.9610   -4.4980    1.2130 c1        1 0C4     -0.085000
     20 C19        -3.4150   -4.5750    2.4830 c1        1 0C4     -0.133000
     21 C20        -2.7680   -3.4680    3.0330 c1        1 0C4     -0.133000
     22 C21        -2.6710   -2.2840    2.3040 c1        1 0C4     -0.223000
     23 O25         5.4600    4.5930   -2.8920 o         1 0C4     -0.562000
     24 O26         6.0490    4.9130   -0.8390 o         1 0C4     -0.562000
     25 H1          1.3230    0.8230    1.3870 hn        1 0C4      0.226000
     26 H2         -3.8740   -0.3810    0.2960 hn        1 0C4      0.237000
     27 H3          2.8280    4.9910   -0.8220 ha        1 0C4      0.156000
     28 H4          5.2450    1.7400   -1.4720 ha        1 0C4      0.145167
     29 H5          3.5660    0.3310   -0.5650 ha        1 0C4      0.145167
     30 H6          1.1580    3.5720    0.0820 ha        1 0C4      0.108000
     31 H7         -2.5830   -0.9840   -2.2530 ha        1 0C4      0.145167
     32 H8         -0.6460   -0.2250   -3.3150 ha        1 0C4      0.145167
     33 H9         -4.2500   -3.2540   -0.4140 ha        1 0C4      0.156000
     34 H10        -4.3560   -5.2980    0.7990 ha        1 0C4      0.133000
     35 H11        -3.4830   -5.4080    2.9950 ha        1 0C4      0.145167
     36 H12        -2.3470   -3.5350    3.9170 ha        1 0C4      0.145167
@<TRIPOS>BOND
     1    1   22 1   
     2    2   10 1   
     3    2   13 1   
     4    2   25 1   
     5    3   14 1   
     6    4   13 1   
     7    5   14 1   
     8    5   17 1   
     9    5   26 1   
    10    6    7 1   
    11    6   27 1   
    12    7   12 1   
    13    8    9 1   
    14    8   28 1   
    15    9   29 1   
    16   10   11 1   
    17   11   30 1   
    18   12   23 1   
    19   12   24 1   
    20   15   16 1   
    21   15   31 1   
    22   16   32 1   
    23   17   18 1   
    24   17   22 1   
    25   18   19 1   
    26   18   33 1   
    27   19   34 1   
    28   20   21 1   
    29   20   35 1   
    30   21   36 1   
@<TRIPOS>SUBSTRUCTURE
     1 0C4         1 TEMP              0 ****  ****    0 ROOT
