@<TRIPOS>MOLECULE
0C4
   36    38     1     0     0
SMALL
bcc


@<TRIPOS>ATOM
      1 BR2         5.2580    0.8030   -0.6180 br        1 0C4     -0.110100
      2 N02         0.3000    0.0570    0.2250 nb        1 0C4     -0.817000
      3 N03        -1.4490    1.7850    0.4260 nb        1 0C4     -0.731000
      4 N04         2.5420    0.5530    0.9620 nh        1 0C4     -0.732300
      5 C05        -5.4080    0.8500   -0.8140 ca        1 0C4     -0.103500
      6 C06        -6.1110   -0.2060   -0.2330 ca        1 0C4     -0.118600
      7 C07        -5.3970   -1.3000    0.2680 ca        1 0C4     -0.103500
      8 C08        -4.0110   -1.3420    0.1930 ca        1 0C4     -0.152500
      9 C09        -3.3030   -0.2750   -0.4050 ca        1 0C4      0.068600
     10 C10        -4.0180    0.8270   -0.9080 ca        1 0C4     -0.152500
     11 C12        -1.0090    0.5100    0.0720 ca        1 0C4      0.903900
     12 C13         1.2030    0.9390    0.7320 ca        1 0C4      0.700200
     13 C14         0.8310    2.2700    1.0930 ca        1 0C4     -0.481600
     14 C15        -0.5180    2.6100    0.9170 ca        1 0C4      0.480200
     15 C16         3.0760   -0.6810    0.5560 ca        1 0C4      0.186600
     16 C17         2.4390   -1.8970    0.9010 ca        1 0C4     -0.119000
     17 C18         3.0100   -3.1160    0.5620 ca        1 0C4     -0.101000
     18 C19         4.2320   -3.1690   -0.1100 ca        1 0C4     -0.158000
     19 C20         4.8820   -1.9870   -0.4450 ca        1 0C4     -0.088000
     20 C21         4.3190   -0.7500   -0.1240 ca        1 0C4     -0.079900
     21 O25        -8.2100   -1.1620    0.3920 o         1 0C4     -0.827800
     22 O26        -8.2290    0.8310   -0.6190 o         1 0C4     -0.827800
     23 H1         -1.5620   -1.3190   -0.6200 hn        1 0C4      0.427800
     24 H2          3.1790    1.3250    0.9130 hn        1 0C4      0.432800
     25 H3         -5.9830    1.7070   -1.2030 ha        1 0C4      0.155500
     26 H4         -5.9660   -2.1260    0.7270 ha        1 0C4      0.155500
     27 H5         -3.4710   -2.2120    0.5940 ha        1 0C4      0.117500
     28 H6         -3.4890    1.6720   -1.3720 ha        1 0C4      0.117500
     29 H7          1.5480    2.9870    1.5000 ha        1 0C4      0.144000
     30 H8         -0.8810    3.6180    1.1920 h4        1 0C4      0.022100
     31 H9          1.4800   -1.8830    1.4420 ha        1 0C4      0.164000
     32 H10         2.4920   -4.0500    0.8310 ha        1 0C4      0.136000
     33 H11         4.6780   -4.1370   -0.3760 ha        1 0C4      0.133000
     34 H12         5.8480   -2.0290   -0.9730 ha        1 0C4      0.139000
     35 N01        -1.8910   -0.3750   -0.5590 nh        1 0C4     -0.686300
     36 C11        -7.6310   -0.1760   -0.1460 c         1 0C4      0.908200
@<TRIPOS>BOND
     1    1   20 1   
     2    2   11 ar  
     3    2   12 ar  
     4    3   11 ar  
     5    3   14 ar  
     6    4   12 1   
     7    4   15 1   
     8    4   24 1   
     9    5    6 ar  
    10    5   10 ar  
    11    5   25 1   
    12    6    7 ar  
    13    6   36 1   
    14    7    8 ar  
    15    7   26 1   
    16    8    9 ar  
    17    8   27 1   
    18    9   10 ar  
    19    9   35 1   
    20   10   28 1   
    21   11   35 1   
    22   12   13 ar  
    23   13   14 ar  
    24   13   29 1   
    25   14   30 1   
    26   15   16 ar  
    27   15   20 ar  
    28   16   17 ar  
    29   16   31 1   
    30   17   18 ar  
    31   17   32 1   
    32   18   19 ar  
    33   18   33 1   
    34   19   20 ar  
    35   19   34 1   
    36   21   36 1   
    37   22   36 1   
    38   23   35 1   
@<TRIPOS>SUBSTRUCTURE
     1 0C4         1 TEMP              0 ****  ****    0 ROOT
