@<TRIPOS>MOLECULE
0C4
   38    36     1     0     0
SMALL
bcc


@<TRIPOS>ATOM
      1 BR2         1.9480   -2.0140   -0.5080 br        1 0C4      0.089000
      2 N02         4.5350    2.8610   -0.4120 n2        1 0C4     -0.253000
      3 N03         5.9900    2.2400   -2.2900 n2        1 0C4     -0.268000
      4 N04         3.6610    0.6150    0.0410 n3        1 0C4     -0.225000
      5 C05         8.5820    3.2080   -6.8980 c1        1 0C4      0.310000
      6 C06         8.2260    2.9460   -5.6590 c1        1 0C4     -0.266000
      7 C07         7.8800    2.7010   -4.5110 c1        1 0C4      0.241000
      8 C08         9.2860    3.0290   -0.0630 c2        1 0C4     -0.268000
      9 C09         8.2190    2.3890   -0.5670 c2        1 0C4     -0.055000
     10 C10         8.9330    3.4650   -8.1040 c2        1 0C4     -0.173000
     11 C12         5.7950    2.5120   -0.9960 c2        1 0C4      0.240000
     12 C13         3.6810    2.0110    0.0580 c2        1 0C4      0.111000
     13 C14         4.0920    1.8610   -3.9430 c1        1 0C4     -0.216000
     14 C15         4.9490    2.0500   -3.1220 c1        1 0C4     -0.113000
     15 C16         3.3810   -0.2000    1.2210 cx        1 0C4     -0.036000
     16 C17         4.7010   -0.2810    0.4950 cx        1 0C4     -0.130000
     17 C18        -0.0260   -3.5440    2.4990 c1        1 0C4     -0.123000
     18 C19         0.7990   -2.6820    2.3920 c1        1 0C4     -0.175000
     19 C20         1.7610   -1.6690    2.2980 c2        1 0C4      0.019000
     20 C21         2.3560   -1.2640    1.1570 c2        1 0C4     -0.189000
     21 O25        12.1400    4.0000   -8.1270 o         1 0C4     -0.219000
     22 O26        14.4470    4.4510   -8.4970 o         1 0C4     -0.219000
     23 H1          8.3310    1.6030   -1.3390 h4        1 0C4      0.144000
     24 H2          2.7260    2.4650    0.4310 h5        1 0C4      0.195000
     25 H3          8.2250    3.4910   -8.9620 ha        1 0C4      0.265000
     26 H4          9.2280    3.8090    0.7070 ha        1 0C4      0.133500
     27 H5         10.3000    2.7690   -0.3910 ha        1 0C4      0.133500
     28 H6          9.9910    3.6860   -8.3920 ha        1 0C4      0.265000
     29 H7          3.3310    1.6850   -4.6600 ha        1 0C4      0.239000
     30 H8          7.5440    2.4860   -3.4930 ha        1 0C4      0.332000
     31 H9          4.9240   -1.1290   -0.1890 h1        1 0C4      0.140000
     32 H10         5.6160    0.1160    0.9860 h1        1 0C4      0.140000
     33 H11        -0.7570   -4.3080    2.5960 ha        1 0C4      0.235000
     34 H12         2.0280   -1.1920    3.2640 ha        1 0C4      0.148000
     35 H042        3.3740    0.3180    2.2140 h1        1 0C4      0.133000
     36 H012        6.7900    3.1570    0.6800 hn        1 0C4      0.239000
     37 N01         6.9020    2.5610   -0.1160 n3        1 0C4     -0.263000
     38 C11        13.3000    4.2270   -8.3150 c1        1 0C4      0.440000
@<TRIPOS>BOND
     1    1   20 1   
     2    2   11 1   
     3    2   12 1   
     4    3   11 1   
     5    3   14 1   
     6    4   12 1   
     7    4   15 1   
     8    4   16 1   
     9    5    6 1   
    10    5   10 1   
    11    6    7 1   
    12    7   30 1   
    13    8    9 1   
    14    8   26 1   
    15    8   27 1   
    16    9   23 1   
    17    9   37 1   
    18   10   25 1   
    19   10   28 1   
    20   11   37 1   
    21   12   24 1   
    22   13   14 1   
    23   13   29 1   
    24   15   16 1   
    25   15   20 1   
    26   15   35 1   
    27   16   31 1   
    28   16   32 1   
    29   17   18 1   
    30   17   33 1   
    31   18   19 1   
    32   19   20 1   
    33   19   34 1   
    34   21   38 1   
    35   22   38 1   
    36   36   37 1   
@<TRIPOS>SUBSTRUCTURE
     1 0C4         1 TEMP              0 ****  ****    0 ROOT
