@<TRIPOS>MOLECULE
0C5
   37    39     1     0     0
SMALL
bcc


@<TRIPOS>ATOM
      1 O01        -0.4960   -0.2570    0.3790 o         1 0C5     -0.827300
      2 C02         0.7290   -0.2440    0.0710 c         1 0C5      0.908200
      3 C03         1.7430   -0.1340    1.2020 ca        1 0C5     -0.117600
      4 C04         1.3130   -0.0500    2.5310 ca        1 0C5     -0.103500
      5 C05         2.2280    0.0580    3.5710 ca        1 0C5     -0.152000
      6 C06         3.1130   -0.1110    0.9320 ca        1 0C5     -0.103500
      7 C07         4.0480    0.0040    1.9590 ca        1 0C5     -0.152000
      8 C08         3.6130    0.0930    3.2930 ca        1 0C5      0.067600
      9 N09         4.5330    0.3040    4.3590 nu        1 0C5     -0.686300
     10 C10         5.5020   -0.6420    4.7080 ca        1 0C5      0.904900
     11 N11         6.0540   -0.5030    5.9810 nb        1 0C5     -0.819000
     12 C12         7.0890   -1.3270    6.2970 ca        1 0C5      0.700200
     13 N13         7.7500   -1.2140    7.5410 nu        1 0C5     -0.735300
     14 C14         7.3870   -0.3190    8.5550 ca        1 0C5      0.210600
     15 C15         7.1000    1.0420    8.2840 ca        1 0C5     -0.135000
     16 C16         6.8180    1.9230    9.3180 ca        1 0C5     -0.087000
     17 C17         6.8270    1.4990   10.6490 ca        1 0C5     -0.169000
     18 C18         7.1230    0.1760   10.9430 ca        1 0C5     -0.070000
     19 C19         7.4000   -0.7380    9.9150 ca        1 0C5     -0.090000
     20 C20         7.6960   -2.0830   10.2630 cg        1 0C5      0.239800
     21 N21         7.9370   -3.1810   10.5640 n1        1 0C5     -0.386800
     22 C22         7.5580   -2.3250    5.3930 ca        1 0C5     -0.479600
     23 C23         6.9110   -2.3940    4.1500 ca        1 0C5      0.481200
     24 N24         5.9070   -1.5950    3.7740 nb        1 0C5     -0.729000
     25 O25         1.1690   -0.3120   -1.1110 o         1 0C5     -0.827300
     26 H1          0.2290   -0.0730    2.7290 ha        1 0C5      0.156000
     27 H2          1.8660    0.1220    4.6080 ha        1 0C5      0.118000
     28 H3          3.4380   -0.1820   -0.1190 ha        1 0C5      0.156000
     29 H4          5.1210    0.0210    1.7180 ha        1 0C5      0.118000
     30 H5          4.1420    0.8080    5.1300 hn        1 0C5      0.429800
     31 H6          8.1380   -2.0810    7.8540 hn        1 0C5      0.433800
     32 H7          7.0990    1.4130    7.2470 ha        1 0C5      0.168000
     33 H8          6.5880    2.9740    9.0810 ha        1 0C5      0.137000
     34 H9          6.6000    2.2080   11.4570 ha        1 0C5      0.135000
     35 H10         7.1380   -0.1710   11.9880 ha        1 0C5      0.137000
     36 H11         8.3800   -3.0030    5.6420 ha        1 0C5      0.146000
     37 H12         7.2180   -3.1480    3.4000 h4        1 0C5      0.024100
@<TRIPOS>BOND
     1    1    2 1   
     2    2    3 1   
     3    2   25 1   
     4    3    4 ar  
     5    3    6 ar  
     6    4    5 ar  
     7    4   26 1   
     8    5    8 ar  
     9    5   27 1   
    10    6    7 ar  
    11    6   28 1   
    12    7    8 ar  
    13    7   29 1   
    14    8    9 1   
    15    9   10 1   
    16    9   30 1   
    17   10   11 ar  
    18   10   24 ar  
    19   11   12 ar  
    20   12   13 1   
    21   12   22 ar  
    22   13   14 1   
    23   13   31 1   
    24   14   15 ar  
    25   14   19 ar  
    26   15   16 ar  
    27   15   32 1   
    28   16   17 ar  
    29   16   33 1   
    30   17   18 ar  
    31   17   34 1   
    32   18   19 ar  
    33   18   35 1   
    34   19   20 1   
    35   20   21 3   
    36   22   23 ar  
    37   22   36 1   
    38   23   24 ar  
    39   23   37 1   
@<TRIPOS>SUBSTRUCTURE
     1 0C5         1 TEMP              0 ****  ****    0 ROOT
