@<TRIPOS>MOLECULE
0C5
   37    39     1     0     0
SMALL
bcc


@<TRIPOS>ATOM
      1 O01        -7.1520    1.0860    1.5430 o         1 0C5     -0.827300
      2 C02        -6.7210    0.3380    0.6200 c         1 0C5      0.908200
      3 C03        -5.2240    0.3520    0.3370 ca        1 0C5     -0.117600
      4 C04        -4.3720    1.1740    1.0830 ca        1 0C5     -0.103500
      5 C05        -3.0060    1.2010    0.8300 ca        1 0C5     -0.152000
      6 C06        -4.6820   -0.4490   -0.6690 ca        1 0C5     -0.103500
      7 C07        -3.3160   -0.4320   -0.9460 ca        1 0C5     -0.152000
      8 C08        -2.4620    0.3980   -0.1980 ca        1 0C5      0.067600
      9 N09        -1.0780    0.5110   -0.5120 nh        1 0C5     -0.686300
     10 C10        -0.1920   -0.5640   -0.3840 ca        1 0C5      0.904900
     11 N11         1.1600   -0.2320   -0.3320 nb        1 0C5     -0.819000
     12 C12         2.0490   -1.2620   -0.3390 ca        1 0C5      0.700200
     13 N13         3.4400   -1.0180   -0.3510 nh        1 0C5     -0.735300
     14 C14         4.0240    0.2550   -0.3040 ca        1 0C5      0.210600
     15 C15         3.5610    1.3200   -1.1140 ca        1 0C5     -0.135000
     16 C16         4.2070    2.5480   -1.1030 ca        1 0C5     -0.087000
     17 C17         5.3370    2.7600   -0.3080 ca        1 0C5     -0.169000
     18 C18         5.8220    1.7270    0.4810 ca        1 0C5     -0.070000
     19 C19         5.1800    0.4800    0.4950 ca        1 0C5     -0.090000
     20 C20         5.7100   -0.5470    1.3200 cg        1 0C5      0.239800
     21 N21         6.1580   -1.3800    2.0000 n1        1 0C5     -0.386800
     22 C22         1.6210   -2.6230   -0.3450 ca        1 0C5     -0.479600
     23 C23         0.2350   -2.8410   -0.3690 ca        1 0C5      0.481200
     24 N24        -0.6830   -1.8700   -0.3900 nb        1 0C5     -0.729000
     25 O25        -7.4470   -0.4170   -0.0840 o         1 0C5     -0.827300
     26 H1         -4.8150    1.7970    1.8770 ha        1 0C5      0.156000
     27 H2         -2.3560    1.8540    1.4300 ha        1 0C5      0.118000
     28 H3         -5.3650   -1.0950   -1.2460 ha        1 0C5      0.156000
     29 H4         -2.9150   -1.0720   -1.7450 ha        1 0C5      0.118000
     30 H5         -0.6880    1.4040   -0.2860 hn        1 0C5      0.429800
     31 H6          3.9660   -1.7460    0.0870 hn        1 0C5      0.433800
     32 H7          2.6820    1.1830   -1.7630 ha        1 0C5      0.168000
     33 H8          3.8220    3.3650   -1.7340 ha        1 0C5      0.137000
     34 H9          5.8370    3.7390   -0.3080 ha        1 0C5      0.135000
     35 H10         6.7140    1.8790    1.1070 ha        1 0C5      0.137000
     36 H11         2.3260   -3.4590   -0.3350 ha        1 0C5      0.146000
     37 H12        -0.1690   -3.8710   -0.3690 h4        1 0C5      0.024100
@<TRIPOS>BOND
     1    1    2 1   
     2    2    3 1   
     3    2   25 1   
     4    3    4 ar  
     5    3    6 ar  
     6    4    5 ar  
     7    4   26 1   
     8    5    8 ar  
     9    5   27 1   
    10    6    7 ar  
    11    6   28 1   
    12    7    8 ar  
    13    7   29 1   
    14    8    9 1   
    15    9   10 1   
    16    9   30 1   
    17   10   11 ar  
    18   10   24 ar  
    19   11   12 ar  
    20   12   13 1   
    21   12   22 ar  
    22   13   14 1   
    23   13   31 1   
    24   14   15 ar  
    25   14   19 ar  
    26   15   16 ar  
    27   15   32 1   
    28   16   17 ar  
    29   16   33 1   
    30   17   18 ar  
    31   17   34 1   
    32   18   19 ar  
    33   18   35 1   
    34   19   20 1   
    35   20   21 3   
    36   22   23 ar  
    37   22   36 1   
    38   23   24 ar  
    39   23   37 1   
@<TRIPOS>SUBSTRUCTURE
     1 0C5         1 TEMP              0 ****  ****    0 ROOT
