@<TRIPOS>MOLECULE
0C5
   37    29     1     0     0
SMALL
bcc


@<TRIPOS>ATOM
      1 O01        -3.9390    0.8590   -6.4230 o         1 0C5     -0.562000
      2 C02        -4.5030    1.3460   -5.4090 c1        1 0C5      0.357000
      3 C03        -3.7830    1.3650   -4.0790 c1        1 0C5     -0.096000
      4 C04        -3.9100    0.2960   -3.2070 c2        1 0C5     -0.107000
      5 C05        -3.2130    0.2910   -2.0090 c1        1 0C5     -0.123000
      6 C06        -2.9590    2.4310   -3.7530 c1        1 0C5     -0.100000
      7 C07        -2.2620    2.4270   -2.5560 c1        1 0C5     -0.180000
      8 C08        -2.3890    1.3570   -1.6840 c1        1 0C5     -0.014000
      9 N09        -1.6990    1.3670   -0.4440 n2        1 0C5     -0.208000
     10 C10        -0.4250    0.7530   -0.3370 c1        1 0C5      0.182000
     11 N11         0.2590    0.8070    0.8400 n1        1 0C5     -0.286000
     12 C12         1.4780    0.2550    0.9340 c1        1 0C5      0.154000
     13 N13         2.2210    0.3760    2.1370 n2        1 0C5     -0.243000
     14 C14         2.3810   -0.7480    2.9870 c1        1 0C5      0.130000
     15 C15         1.3050   -1.2210    3.7210 c1        1 0C5     -0.126250
     16 C16         1.4730   -2.2890    4.5880 c1        1 0C5     -0.126250
     17 C17         2.7170   -2.8840    4.7210 c1        1 0C5     -0.126250
     18 C18         3.7940   -2.4120    3.9870 c1        1 0C5     -0.126250
     19 C19         3.6260   -1.3440    3.1200 c1        1 0C5     -0.085000
     20 C20         4.8130   -0.7910    2.3630 c1        1 0C5     -0.087000
     21 N21         5.7080   -0.3740    1.7920 n1        1 0C5     -0.056000
     22 C22         2.0320   -0.3620   -0.1500 c2        1 0C5     -0.317000
     23 C23         1.3460   -0.4160   -1.3280 c1        1 0C5      0.004000
     24 N24         0.1270    0.1370   -1.4200 n1        1 0C5     -0.191000
     25 O25        -5.6610    1.8300   -5.5050 o         1 0C5     -0.562000
     26 H1         -4.4760   -0.4640   -3.4460 ha        1 0C5      0.157000
     27 H2         -3.3230   -0.4500   -1.3840 ha        1 0C5      0.127000
     28 H3         -2.8870    3.1950   -4.3570 ha        1 0C5      0.156000
     29 H4         -1.6840    3.1790   -2.3250 ha        1 0C5      0.109000
     30 H5         -2.0620    1.7930    0.2760 hn        1 0C5      0.228000
     31 H6          2.5770    1.1810    2.3730 hn        1 0C5      0.234000
     32 H7          0.4350   -0.7840    3.6480 ha        1 0C5      0.141250
     33 H8          0.7140   -2.6240    5.1020 ha        1 0C5      0.141250
     34 H9          2.8380   -3.6300    5.3400 ha        1 0C5      0.141250
     35 H10         4.6680   -2.8370    4.0750 ha        1 0C5      0.141250
     36 H11         2.9100   -0.7820   -0.0770 ha        1 0C5      0.155000
     37 H12         1.7520   -0.8320   -2.1120 ha        1 0C5      0.162000
@<TRIPOS>BOND
     1    1    2 1   
     2    2   25 1   
     3    3    4 1   
     4    3    6 1   
     5    4    5 1   
     6    4   26 1   
     7    5   27 1   
     8    6   28 1   
     9    7    8 1   
    10    7   29 1   
    11    9   10 1   
    12    9   30 1   
    13   10   24 1   
    14   11   12 1   
    15   12   22 1   
    16   13   14 1   
    17   13   31 1   
    18   14   19 1   
    19   15   16 1   
    20   15   32 1   
    21   16   33 1   
    22   17   18 1   
    23   17   34 1   
    24   18   35 1   
    25   19   20 1   
    26   20   21 1   
    27   22   23 1   
    28   22   36 1   
    29   23   37 1   
@<TRIPOS>SUBSTRUCTURE
     1 0C5         1 TEMP              0 ****  ****    0 ROOT
