@<TRIPOS>MOLECULE
0C5
   39    40     1     0     0
SMALL
bcc


@<TRIPOS>ATOM
      1 O01         3.6830    1.4120    5.6950 o         1 0C5     -0.781800
      2 C02         4.1970    0.9730    4.6330 c         1 0C5      0.872600
      3 C03         3.4640    1.2530    3.3260 cc        1 0C5      0.176000
      4 C04         4.1090    1.0030    2.0820 cc        1 0C5     -0.184000
      5 C05         3.4720    1.2480    0.9060 cd        1 0C5     -0.068100
      6 C06         2.1450    1.7640    3.3500 cc        1 0C5     -0.184000
      7 C07         1.4680    2.0260    2.1940 cd        1 0C5     -0.068100
      8 C08         2.0950    1.7810    0.8770 cd        1 0C5      0.398900
      9 N09         1.4120    2.0430   -0.1910 n2        1 0C5     -0.570100
     10 C10         6.0290   -4.7450    7.1690 ca        1 0C5      0.674900
     11 N11         6.1990   -3.4340    7.4700 nb        1 0C5     -0.785000
     12 C12         6.4810   -2.6030    6.4140 ca        1 0C5      0.631200
     13 N13         6.7790   -1.2390    6.6380 nh        1 0C5     -0.814900
     14 C14         6.4380   -0.6490    7.9130 c3        1 0C5      0.191900
     15 C15         5.8280    0.7050    7.8320 c2        1 0C5      0.046800
     16 C16         6.0720    1.6640    8.7890 ce        1 0C5     -0.223000
     17 C17         7.0070    1.4430    9.8070 ce        1 0C5      0.119000
     18 C18         7.7210    0.2310    9.8830 cf        1 0C5     -0.203000
     19 C19         7.5240   -0.7620    8.9480 cf        1 0C5      0.131700
     20 C20         8.2880   -1.9550    8.9870 c1        1 0C5     -0.085900
     21 N21         8.9130   -2.9370    9.0040 n1        1 0C5      0.109000
     22 C22         6.5620   -3.1100    5.0830 ca        1 0C5     -0.373600
     23 C23         6.3680   -4.4910    4.9150 ca        1 0C5      0.456200
     24 N24         6.1000   -5.3240    5.9420 nb        1 0C5     -0.691000
     25 O25         5.2740    0.3230    4.5750 o         1 0C5     -0.781800
     26 H1          5.1410    0.5970    2.1210 ha        1 0C5      0.210000
     27 H2          3.9710    1.0520   -0.0610 ha        1 0C5      0.182500
     28 H3          1.6900    1.9510    4.3450 ha        1 0C5      0.210000
     29 H4          0.4370    2.4290    2.2090 ha        1 0C5      0.182500
     30 H5          5.8060   -5.4160    8.0270 h5        1 0C5      0.067100
     31 H6          5.5720   -1.2440    8.4320 h1        1 0C5      0.193700
     32 H7          5.1220    0.9030    6.9820 ha        1 0C5      0.259000
     33 H8          5.5440    2.6340    8.7330 ha        1 0C5      0.196000
     34 H9          7.2080    2.2350   10.5550 ha        1 0C5      0.185000
     35 H10         8.4710    0.0990   10.6850 ha        1 0C5      0.193000
     36 H11         6.7670   -2.4530    4.2280 ha        1 0C5      0.171000
     37 H12         6.4270   -4.9540    3.9120 h4        1 0C5      0.042100
     38 H092        1.8580    1.8700   -1.0710 hn        1 0C5      0.432400
     39 H132        6.5670   -0.6500    5.8450 hn        1 0C5      0.481800
@<TRIPOS>BOND
     1    1    2 1   
     2    2    3 2   
     3    2   25 1   
     4    3    4 1   
     5    3    6 1   
     6    4    5 2   
     7    4   26 1   
     8    5    8 1   
     9    5   27 1   
    10    6    7 2   
    11    6   28 1   
    12    7    8 1   
    13    7   29 1   
    14    8    9 2   
    15    9   38 1   
    16   10   11 ar  
    17   10   24 ar  
    18   10   30 1   
    19   11   12 ar  
    20   12   13 1   
    21   12   22 ar  
    22   13   14 1   
    23   13   39 1   
    24   14   15 1   
    25   14   19 1   
    26   14   31 1   
    27   15   16 2   
    28   15   32 1   
    29   16   17 1   
    30   16   33 1   
    31   17   18 2   
    32   17   34 1   
    33   18   19 1   
    34   18   35 1   
    35   19   20 2   
    36   20   21 2   
    37   22   23 ar  
    38   22   36 1   
    39   23   24 ar  
    40   23   37 1   
@<TRIPOS>SUBSTRUCTURE
     1 0C5         1 TEMP              0 ****  ****    0 ROOT
