@<TRIPOS>MOLECULE
0C5
   37    39     1     0     0
SMALL
bcc


@<TRIPOS>ATOM
      1 O01        -0.5370   -0.3510    0.3990 o         1 0C5     -0.827300
      2 C02         0.6860   -0.2970    0.0870 c         1 0C5      0.908200
      3 C03         1.7000   -0.1660    1.2160 ca        1 0C5     -0.117600
      4 C04         1.2730   -0.1070    2.5460 ca        1 0C5     -0.103500
      5 C05         2.1880    0.0190    3.5850 ca        1 0C5     -0.152000
      6 C06         3.0670   -0.1000    0.9410 ca        1 0C5     -0.103500
      7 C07         4.0030    0.0350    1.9650 ca        1 0C5     -0.152000
      8 C08         3.5700    0.0990    3.3020 ca        1 0C5      0.067600
      9 N09         4.4870    0.3280    4.3660 nh        1 0C5     -0.686300
     10 C10         5.4870   -0.5900    4.7040 ca        1 0C5      0.904900
     11 N11         6.0390   -0.4440    5.9750 nb        1 0C5     -0.819000
     12 C12         7.1010   -1.2390    6.2800 ca        1 0C5      0.700200
     13 N13         7.7640   -1.1160    7.5210 nh        1 0C5     -0.735300
     14 C14         7.3810   -0.2380    8.5440 ca        1 0C5      0.210600
     15 C15         7.0520    1.1140    8.2840 ca        1 0C5     -0.135000
     16 C16         6.7490    1.9800    9.3250 ca        1 0C5     -0.087000
     17 C17         6.7780    1.5470   10.6530 ca        1 0C5     -0.169000
     18 C18         7.1150    0.2310   10.9370 ca        1 0C5     -0.070000
     19 C19         7.4130   -0.6660    9.9010 ca        1 0C5     -0.091000
     20 C20         7.7510   -2.0040   10.2380 cg        1 0C5      0.239800
     21 N21         8.0270   -3.0970   10.5300 n1        1 0C5     -0.386800
     22 C22         7.5950   -2.2160    5.3660 ca        1 0C5     -0.479600
     23 C23         6.9440   -2.2950    4.1250 ca        1 0C5      0.481200
     24 N24         5.9150   -1.5240    3.7600 nb        1 0C5     -0.729000
     25 O25         1.1230   -0.3410   -1.0970 o         1 0C5     -0.827300
     26 H1          0.1900   -0.1650    2.7480 ha        1 0C5      0.156000
     27 H2          1.8280    0.0630    4.6230 ha        1 0C5      0.118000
     28 H3          3.3900   -0.1520   -0.1120 ha        1 0C5      0.156000
     29 H4          5.0740    0.0860    1.7210 ha        1 0C5      0.118000
     30 H5          4.0850    0.8140    5.1430 hn        1 0C5      0.429800
     31 H6          8.1790   -1.9730    7.8260 hn        1 0C5      0.433800
     32 H7          7.0340    1.4920    7.2490 ha        1 0C5      0.168000
     33 H8          6.4870    3.0250    9.0970 ha        1 0C5      0.137000
     34 H9          6.5350    2.2440   11.4680 ha        1 0C5      0.135000
     35 H10         7.1460   -0.1210   11.9790 ha        1 0C5      0.137000
     36 H11         8.4380   -2.8710    5.6060 ha        1 0C5      0.146000
     37 H12         7.2700   -3.0340    3.3690 h4        1 0C5      0.024100
@<TRIPOS>BOND
     1    1    2 1   
     2    2    3 1   
     3    2   25 1   
     4    3    4 ar  
     5    3    6 ar  
     6    4    5 ar  
     7    4   26 1   
     8    5    8 ar  
     9    5   27 1   
    10    6    7 ar  
    11    6   28 1   
    12    7    8 ar  
    13    7   29 1   
    14    8    9 1   
    15    9   10 1   
    16    9   30 1   
    17   10   11 ar  
    18   10   24 ar  
    19   11   12 ar  
    20   12   13 1   
    21   12   22 ar  
    22   13   14 1   
    23   13   31 1   
    24   14   15 ar  
    25   14   19 ar  
    26   15   16 ar  
    27   15   32 1   
    28   16   17 ar  
    29   16   33 1   
    30   17   18 ar  
    31   17   34 1   
    32   18   19 ar  
    33   18   35 1   
    34   19   20 1   
    35   20   21 3   
    36   22   23 ar  
    37   22   36 1   
    38   23   24 ar  
    39   23   37 1   
@<TRIPOS>SUBSTRUCTURE
     1 0C5         1 TEMP              0 ****  ****    0 ROOT
