@<TRIPOS>MOLECULE
0C6
   36    30     1     0     0
SMALL
bcc


@<TRIPOS>ATOM
      1 CL1         0.1530   -1.3260    4.0330 cl        1 0C6     -0.026000
      2 C02        -0.4390   -2.8170    3.3500 c1        1 0C6     -0.114000
      3 C03         0.0760   -4.0300    3.7830 c1        1 0C6     -0.123667
      4 C04        -0.4390   -5.2180    3.2870 c1        1 0C6     -0.123667
      5 C05        -1.4690   -5.1930    2.3600 c1        1 0C6     -0.123667
      6 C06        -1.9840   -3.9810    1.9280 c1        1 0C6     -0.123667
      7 C07        -1.4690   -2.7930    2.4230 c1        1 0C6      0.077000
      8 N08        -2.0210   -1.5530    2.0090 n3        1 0C6     -0.216000
      9 C09        -1.5300   -0.9120    0.8410 c2        1 0C6      0.115000
     10 C10        -2.2790   -0.9080   -0.3010 c1        1 0C6     -0.087000
     11 C12        -1.8460   -0.2210   -1.3970 c2        1 0C6     -0.024000
     12 N13        -0.6850    0.4490   -1.3530 n1        1 0C6     -0.167000
     13 C14         0.0620    0.4450   -0.2130 c1        1 0C6      0.170000
     14 N15         1.2640    1.1970   -0.1510 n3        1 0C6     -0.203000
     15 C16         1.5040    2.2300   -1.0940 c1        1 0C6     -0.019000
     16 C17         2.2030    1.9550   -2.2590 c1        1 0C6     -0.123667
     17 C18         2.3950    2.9520   -3.2030 c1        1 0C6     -0.123667
     18 C19         1.8880    4.2230   -2.9830 c1        1 0C6     -0.095000
     19 C20         2.1080    5.3130   -4.0090 c2        1 0C6      0.357000
     20 O21         1.2680    5.4900   -4.9300 o         1 0C6     -0.561000
     21 O22         3.1420    6.0300   -3.9530 o         1 0C6     -0.561000
     22 C23         1.1890    4.4980   -1.8190 c1        1 0C6     -0.100000
     23 C24         0.9970    3.5020   -0.8740 c1        1 0C6     -0.179000
     24 N25        -0.3690   -0.2410    0.8830 n2        1 0C6     -0.268000
     25 F11        -3.4700   -1.5190   -0.3220 f         1 0C6     -0.091000
     26 H1          0.8010   -4.0470    4.4360 ha        1 0C6      0.140333
     27 H2         -0.0770   -6.0710    3.5920 ha        1 0C6      0.140333
     28 H3         -1.8510   -6.0300    2.0330 ha        1 0C6      0.140333
     29 H4         -2.7090   -3.9640    1.2750 ha        1 0C6      0.140333
     30 H5         -2.6970   -1.1720    2.4880 hn        1 0C6      0.220000
     31 H6         -2.3720   -0.2310   -2.2190 h4        1 0C6      0.176000
     32 H7          1.8690    1.0350    0.5120 hn        1 0C6      0.229000
     33 H8          2.5600    1.0610   -2.4140 ha        1 0C6      0.140333
     34 H9          2.8870    2.7580   -4.0240 ha        1 0C6      0.140333
     35 H11         0.8090    5.3850   -1.6750 ha        1 0C6      0.157000
     36 H12         0.5310    3.7030   -0.0400 ha        1 0C6      0.109000
@<TRIPOS>BOND
     1    1    2 1   
     2    2    7 1   
     3    3    4 1   
     4    3   26 1   
     5    4   27 1   
     6    5    6 1   
     7    5   28 1   
     8    6   29 1   
     9    7    8 1   
    10    8    9 1   
    11    8   30 1   
    12    9   10 1   
    13    9   24 1   
    14   10   11 1   
    15   11   12 1   
    16   11   31 1   
    17   13   14 1   
    18   13   24 1   
    19   14   15 1   
    20   14   32 1   
    21   15   23 1   
    22   16   17 1   
    23   16   33 1   
    24   17   34 1   
    25   18   19 1   
    26   18   22 1   
    27   19   20 1   
    28   19   21 1   
    29   22   35 1   
    30   23   36 1   
@<TRIPOS>SUBSTRUCTURE
     1 0C6         1 TEMP              0 ****  ****    0 ROOT
