@<TRIPOS>MOLECULE
0C6
   36    38     1     0     0
SMALL
bcc


@<TRIPOS>ATOM
      1 CL1         5.6850   -0.6970    0.9090 cl        1 0C6     -0.108400
      2 C02         4.9230    0.7060    0.3060 ca        1 0C6     -0.031600
      3 C03         5.5250    1.9420    0.5470 ca        1 0C6     -0.109000
      4 C04         4.9330    3.1100    0.0750 ca        1 0C6     -0.145000
      5 C05         3.7430    3.0380   -0.6480 ca        1 0C6     -0.115000
      6 C06         3.1390    1.8120   -0.9070 ca        1 0C6     -0.108000
      7 C07         3.7120    0.6130   -0.4270 ca        1 0C6      0.161600
      8 N08         3.1540   -0.6400   -0.7430 nh        1 0C6     -0.724300
      9 C09         1.8110   -0.9720   -0.4840 ca        1 0C6      0.688200
     10 C10         1.4050   -2.3450   -0.6500 ca        1 0C6     -0.249700
     11 C12         0.0340   -2.6340   -0.4680 ca        1 0C6      0.464200
     12 N13        -0.8780   -1.7220   -0.1360 nb        1 0C6     -0.717000
     13 C14        -0.4160   -0.4170    0.0410 ca        1 0C6      0.902900
     14 N15        -1.2900    0.5670    0.5100 nh        1 0C6     -0.683300
     15 C16        -2.7010    0.4690    0.3550 ca        1 0C6      0.065600
     16 C17        -3.3820    1.4440   -0.4090 ca        1 0C6     -0.151000
     17 C18        -4.7680    1.4160   -0.4950 ca        1 0C6     -0.103500
     18 C19        -5.5080    0.4250    0.1600 ca        1 0C6     -0.116600
     19 C20        -7.0280    0.4100    0.0610 c         1 0C6      0.908200
     20 O21        -7.6500   -0.5010    0.6750 o         1 0C6     -0.826800
     21 O22        -7.5810    1.3130   -0.6290 o         1 0C6     -0.826800
     22 C23        -4.8320   -0.5420    0.9050 ca        1 0C6     -0.103500
     23 C24        -3.4430   -0.5300    1.0120 ca        1 0C6     -0.151000
     24 N25         0.9060   -0.0190   -0.1400 nb        1 0C6     -0.808000
     25 F11         2.2870   -3.3210   -0.9700 f         1 0C6     -0.142900
     26 H1          6.4650    1.9910    1.1170 ha        1 0C6      0.142000
     27 H2          5.4030    4.0830    0.2750 ha        1 0C6      0.133000
     28 H3          3.2720    3.9600   -1.0230 ha        1 0C6      0.136000
     29 H4          2.2050    1.7830   -1.4890 ha        1 0C6      0.163000
     30 H5          3.7750   -1.4200   -0.6410 hn        1 0C6      0.440800
     31 H6         -0.3370   -3.6680   -0.6030 h4        1 0C6      0.036100
     32 H7         -0.9430    1.5040    0.4450 hn        1 0C6      0.430800
     33 H8         -2.8210    2.2320   -0.9320 ha        1 0C6      0.118000
     34 H9         -5.3160    2.1720   -1.0820 ha        1 0C6      0.156500
     35 H11        -5.4280   -1.3190    1.4130 ha        1 0C6      0.156500
     36 H12        -2.9350   -1.3030    1.6070 ha        1 0C6      0.118000
@<TRIPOS>BOND
     1    1    2 1   
     2    2    3 ar  
     3    2    7 ar  
     4    3    4 ar  
     5    3   26 1   
     6    4    5 ar  
     7    4   27 1   
     8    5    6 ar  
     9    5   28 1   
    10    6    7 ar  
    11    6   29 1   
    12    7    8 1   
    13    8    9 1   
    14    8   30 1   
    15    9   10 ar  
    16    9   24 ar  
    17   10   11 ar  
    18   10   25 1   
    19   11   12 ar  
    20   11   31 1   
    21   12   13 ar  
    22   13   14 1   
    23   13   24 ar  
    24   14   15 1   
    25   14   32 1   
    26   15   16 ar  
    27   15   23 ar  
    28   16   17 ar  
    29   16   33 1   
    30   17   18 ar  
    31   17   34 1   
    32   18   19 1   
    33   18   22 ar  
    34   19   20 1   
    35   19   21 1   
    36   22   23 ar  
    37   22   35 1   
    38   23   36 1   
@<TRIPOS>SUBSTRUCTURE
     1 0C6         1 TEMP              0 ****  ****    0 ROOT
