@<TRIPOS>MOLECULE
0C6
   36    38     1     0     0
SMALL
bcc


@<TRIPOS>ATOM
      1 CL1         0.1310    0.1850   -0.1470 cl        1 0C6     -0.108400
      2 C02         1.8220    0.0090    0.0090 ca        1 0C6     -0.031600
      3 C03         2.3860    0.1400    1.2790 ca        1 0C6     -0.109000
      4 C04         3.7610    0.0090    1.4480 ca        1 0C6     -0.145000
      5 C05         4.5690   -0.2670    0.3450 ca        1 0C6     -0.115000
      6 C06         4.0190   -0.4130   -0.9230 ca        1 0C6     -0.108000
      7 C07         2.6270   -0.2710   -1.1240 ca        1 0C6      0.160600
      8 N08         2.0460   -0.4880   -2.3870 nh        1 0C6     -0.724300
      9 C09         2.4610    0.1840   -3.5520 ca        1 0C6      0.688200
     10 C10         1.6590    0.0430   -4.7410 ca        1 0C6     -0.249700
     11 C12         2.1450    0.6570   -5.9180 ca        1 0C6      0.464200
     12 N13         3.2740    1.3630   -5.9740 nb        1 0C6     -0.717000
     13 C14         3.9880    1.4880   -4.7810 ca        1 0C6      0.902900
     14 N15         5.1130    2.3160   -4.7350 nh        1 0C6     -0.683300
     15 C16         5.8640    2.6460   -5.8980 ca        1 0C6      0.065600
     16 C17         7.2200    2.2530   -5.9790 ca        1 0C6     -0.151000
     17 C18         7.9930    2.6460   -7.0640 ca        1 0C6     -0.103500
     18 C19         7.4460    3.4210   -8.0920 ca        1 0C6     -0.116600
     19 C20         8.3070    3.8490   -9.2730 c         1 0C6      0.908200
     20 O21         7.7680    4.5540  -10.1710 o         1 0C6     -0.826800
     21 O22         9.5140    3.4750   -9.2860 o         1 0C6     -0.826800
     22 C23         6.1040    3.7990   -8.0140 ca        1 0C6     -0.103500
     23 C24         5.3110    3.4240   -6.9310 ca        1 0C6     -0.151000
     24 N25         3.6150    0.9020   -3.5750 nb        1 0C6     -0.808000
     25 F11         0.4940   -0.6460   -4.7440 f         1 0C6     -0.142900
     26 H1          1.7410    0.3560    2.1450 ha        1 0C6      0.142000
     27 H2          4.2050    0.1230    2.4470 ha        1 0C6      0.133000
     28 H3          5.6570   -0.3720    0.4760 ha        1 0C6      0.136000
     29 H4          4.6790   -0.6410   -1.7750 ha        1 0C6      0.163000
     30 H5          1.0620   -0.6760   -2.3750 hn        1 0C6      0.440800
     31 H6          1.5800    0.5640   -6.8650 h4        1 0C6      0.036100
     32 H7          5.6710    2.2200   -3.9090 hn        1 0C6      0.430800
     33 H8          7.6710    1.6430   -5.1830 ha        1 0C6      0.118000
     34 H9          9.0530    2.3530   -7.1410 ha        1 0C6      0.156500
     35 H11         5.6860    4.4080   -8.8320 ha        1 0C6      0.156500
     36 H12         4.2580    3.7360   -6.8930 ha        1 0C6      0.118000
@<TRIPOS>BOND
     1    1    2 1   
     2    2    3 ar  
     3    2    7 ar  
     4    3    4 ar  
     5    3   26 1   
     6    4    5 ar  
     7    4   27 1   
     8    5    6 ar  
     9    5   28 1   
    10    6    7 ar  
    11    6   29 1   
    12    7    8 1   
    13    8    9 1   
    14    8   30 1   
    15    9   10 ar  
    16    9   24 ar  
    17   10   11 ar  
    18   10   25 1   
    19   11   12 ar  
    20   11   31 1   
    21   12   13 ar  
    22   13   14 1   
    23   13   24 ar  
    24   14   15 1   
    25   14   32 1   
    26   15   16 ar  
    27   15   23 ar  
    28   16   17 ar  
    29   16   33 1   
    30   17   18 ar  
    31   17   34 1   
    32   18   19 1   
    33   18   22 ar  
    34   19   20 1   
    35   19   21 1   
    36   22   23 ar  
    37   22   35 1   
    38   23   36 1   
@<TRIPOS>SUBSTRUCTURE
     1 0C6         1 TEMP              0 ****  ****    0 ROOT
