@<TRIPOS>MOLECULE
0C6
   38    40     1     0     0
SMALL
bcc


@<TRIPOS>ATOM
      1 CL1         1.9740   -0.5690   -0.9120 cl        1 0C6     -0.069400
      2 C02         3.6040   -0.3710   -1.3410 ca        1 0C6      0.010400
      3 C03         4.5660   -0.1980   -0.3500 ca        1 0C6     -0.103000
      4 C04         5.9160   -0.0560   -0.6970 ca        1 0C6     -0.068000
      5 C05         6.3070   -0.0820   -2.0320 ca        1 0C6     -0.081000
      6 C06         5.3570   -0.2480   -3.0450 ca        1 0C6     -0.055000
      7 C07         4.0050   -0.4050   -2.6990 ca        1 0C6     -0.098400
      8 N08         3.0200   -0.6720   -3.7550 n4        1 0C6     -0.601100
      9 C09         2.3130    0.5350   -4.2460 ca        1 0C6      0.484200
     10 C10         0.8970    0.6490   -4.1400 ca        1 0C6     -0.019700
     11 C12         0.3120    1.8650   -4.6320 ca        1 0C6      0.457200
     12 N13         1.0370    2.8390   -5.1770 nb        1 0C6     -0.618000
     13 C14         2.4030    2.6240   -5.2540 ca        1 0C6      0.723900
     14 N15         3.2190    3.7190   -5.8920 n4        1 0C6     -0.578100
     15 C16         4.6480    3.4120   -5.8670 ca        1 0C6     -0.136400
     16 C17         5.4160    3.8050   -4.7530 ca        1 0C6     -0.097000
     17 C18         6.6730    3.2430   -4.5850 ca        1 0C6     -0.110000
     18 C19         7.1410    2.2710   -5.4820 ca        1 0C6     -0.037600
     19 C20         8.2450    1.2980   -5.0370 c         1 0C6      0.921200
     20 O21         7.7610    0.2530   -4.5060 o         1 0C6     -0.779300
     21 O22         9.4400    1.5930   -5.1960 o         1 0C6     -0.779300
     22 C23         6.4490    2.0420   -6.6810 ca        1 0C6     -0.110000
     23 C24         5.1920    2.5930   -6.8790 ca        1 0C6     -0.097000
     24 N25         3.0680    1.5210   -4.8090 nb        1 0C6     -0.577000
     25 F11         0.1340   -0.3220   -3.6260 f         1 0C6     -0.063900
     26 H1          4.2640   -0.1810    0.7110 ha        1 0C6      0.179000
     27 H2          6.6700    0.0720    0.0990 ha        1 0C6      0.177000
     28 H3          7.3710    0.0260   -2.3440 ha        1 0C6      0.236000
     29 H4          5.7310   -0.2470   -4.0930 ha        1 0C6      0.223000
     30 H5          3.5210   -1.1080   -4.5500 hn        1 0C6      0.485800
     31 H6         -0.7880    2.0240   -4.5680 h4        1 0C6      0.106100
     32 H7          2.8980    3.8210   -6.8660 hn        1 0C6      0.478800
     33 H8          5.0290    4.5220   -4.0120 ha        1 0C6      0.138000
     34 H9          7.3010    3.5280   -3.7240 ha        1 0C6      0.178000
     35 H11         6.8990    1.3870   -7.4460 ha        1 0C6      0.178000
     36 H12         4.6300    2.3700   -7.7990 ha        1 0C6      0.138000
     37 H082        2.3090   -1.3290   -3.3900 hn        1 0C6      0.485800
     38 H152        3.0380    4.5910   -5.3730 hn        1 0C6      0.478800
@<TRIPOS>BOND
     1    1    2 1   
     2    2    3 ar  
     3    2    7 ar  
     4    3    4 ar  
     5    3   26 1   
     6    4    5 ar  
     7    4   27 1   
     8    5    6 ar  
     9    5   28 1   
    10    6    7 ar  
    11    6   29 1   
    12    7    8 1   
    13    8    9 1   
    14    8   30 1   
    15    8   37 1   
    16    9   10 ar  
    17    9   24 ar  
    18   10   11 ar  
    19   10   25 1   
    20   11   12 ar  
    21   11   31 1   
    22   12   13 ar  
    23   13   14 1   
    24   13   24 ar  
    25   14   15 1   
    26   14   32 1   
    27   14   38 1   
    28   15   16 ar  
    29   15   23 ar  
    30   16   17 ar  
    31   16   33 1   
    32   17   18 ar  
    33   17   34 1   
    34   18   19 1   
    35   18   22 ar  
    36   19   20 1   
    37   19   21 1   
    38   22   23 ar  
    39   22   35 1   
    40   23   36 1   
@<TRIPOS>SUBSTRUCTURE
     1 0C6         1 TEMP              0 ****  ****    0 ROOT
