@<TRIPOS>MOLECULE
0C7
   39    42     1     0     0
SMALL
bcc


@<TRIPOS>ATOM
      1 CL2         0.1260    1.1200   -0.2390 cl        1 0C7     -0.100400
      2 C02         1.7270    0.5870    0.0050 ca        1 0C7     -0.023600
      3 C03         2.2910    0.7270    1.2740 ca        1 0C7     -0.107000
      4 C04         3.5970    0.3060    1.5070 ca        1 0C7     -0.133000
      5 C05         4.3360   -0.2650    0.4720 ca        1 0C7     -0.116000
      6 C06         3.7830   -0.4220   -0.7950 ca        1 0C7     -0.105000
      7 C07         2.4640    0.0060   -1.0580 ca        1 0C7      0.142600
      8 N08         1.8670   -0.2110   -2.3170 nh        1 0C7     -0.724300
      9 C09         2.4130    0.2650   -3.5170 ca        1 0C7      0.712200
     10 C10         1.6290    0.1420   -4.7100 ca        1 0C7     -0.454600
     11 C11         2.2230    0.5670   -5.9010 ca        1 0C7      0.482200
     12 N12         3.4650    1.0750   -5.9860 nb        1 0C7     -0.761000
     13 C13         4.1630    1.1610   -4.7920 ca        1 0C7      0.897900
     14 N14         5.5000    1.6180   -4.7940 nh        1 0C7     -0.714300
     15 C15         6.0560    2.3370   -5.8720 ca        1 0C7      0.166600
     16 C16         6.7070    3.5680   -5.6230 ca        1 0C7     -0.147000
     17 C17         7.3370    4.2580   -6.6520 ca        1 0C7     -0.079500
     18 C18         7.3290    3.7440   -7.9560 ca        1 0C7     -0.161500
     19 C19         7.9830    4.4860   -9.0190 cc        1 0C7      0.460000
     20 N20         7.7380    4.3420  -10.4030 na        1 0C7     -0.184400
     21 N21         8.5300    5.2030  -11.0570 nc        1 0C7     -0.196800
     22 N22         9.2190    5.8410  -10.1810 nd        1 0C7     -0.047000
     23 N23         8.9440    5.4640   -8.9360 nd        1 0C7     -0.376000
     24 C24         6.6970    2.5200   -8.2080 ca        1 0C7     -0.079500
     25 C25         6.0720    1.8170   -7.1850 ca        1 0C7     -0.147000
     26 N26         3.6720    0.7930   -3.5480 nb        1 0C7     -0.795000
     27 H1          1.7010    1.1770    2.0880 ha        1 0C7      0.150000
     28 H2          4.0410    0.4250    2.5060 ha        1 0C7      0.141000
     29 H3          5.3680   -0.6010    0.6550 ha        1 0C7      0.140000
     30 H4          4.3830   -0.8830   -1.5950 ha        1 0C7      0.158000
     31 H5          0.8670   -0.2410   -2.3130 hn        1 0C7      0.440800
     32 H6          0.6150   -0.2690   -4.6970 ha        1 0C7      0.157000
     33 H7          1.6750    0.5050   -6.8600 h4        1 0C7      0.029100
     34 H8          5.8500    1.8850   -3.8950 hn        1 0C7      0.444800
     35 H9          6.7240    3.9950   -4.6080 ha        1 0C7      0.152500
     36 H10         7.8400    5.2150   -6.4370 ha        1 0C7      0.146500
     37 H11         7.1010    3.7380  -10.8650 hn        1 0C7      0.333700
     38 H12         6.6990    2.0840   -9.2190 ha        1 0C7      0.146500
     39 H13         5.5960    0.8500   -7.4130 ha        1 0C7      0.152500
@<TRIPOS>BOND
     1    1    2 1   
     2    2    3 ar  
     3    2    7 ar  
     4    3    4 ar  
     5    3   27 1   
     6    4    5 ar  
     7    4   28 1   
     8    5    6 ar  
     9    5   29 1   
    10    6    7 ar  
    11    6   30 1   
    12    7    8 1   
    13    8    9 1   
    14    8   31 1   
    15    9   10 ar  
    16    9   26 ar  
    17   10   11 ar  
    18   10   32 1   
    19   11   12 ar  
    20   11   33 1   
    21   12   13 ar  
    22   13   14 1   
    23   13   26 ar  
    24   14   15 1   
    25   14   34 1   
    26   15   16 ar  
    27   15   25 ar  
    28   16   17 ar  
    29   16   35 1   
    30   17   18 ar  
    31   17   36 1   
    32   18   19 1   
    33   18   24 ar  
    34   19   20 1   
    35   19   23 2   
    36   20   21 1   
    37   20   37 1   
    38   21   22 2   
    39   22   23 1   
    40   24   25 ar  
    41   24   38 1   
    42   25   39 1   
@<TRIPOS>SUBSTRUCTURE
     1 0C7         1 TEMP              0 ****  ****    0 ROOT
