@<TRIPOS>MOLECULE
0C7
   39    33     1     0     0
SMALL
bcc


@<TRIPOS>ATOM
      1 CL2        -4.6340   -3.4620    1.5520 cl        1 0C7      0.011000
      2 C02        -4.4070   -2.2320    2.7670 c1        1 0C7     -0.050000
      3 C03        -5.4930   -1.7620    3.4890 c1        1 0C7     -0.124750
      4 C04        -5.3040   -0.8330    4.5000 c1        1 0C7     -0.124750
      5 C05        -4.0290   -0.3740    4.7910 c1        1 0C7     -0.124750
      6 C06        -2.9420   -0.8440    4.0700 c1        1 0C7     -0.124750
      7 C07        -3.1310   -1.7730    3.0580 c1        1 0C7      0.025000
      8 N08        -2.0220   -2.2390    2.3070 n3        1 0C7     -0.246000
      9 C09        -1.5230   -1.4670    1.2260 c2        1 0C7      0.185000
     10 C10        -2.1960   -1.4420    0.0390 c1        1 0C7     -0.306000
     11 C11        -1.6790   -0.7580   -1.0230 c1        1 0C7      0.014000
     12 N12        -0.5110   -0.1110   -0.8990 n1        1 0C7     -0.230000
     13 C13         0.1600   -0.1360    0.2860 c1        1 0C7      0.175000
     14 N14         1.3780    0.5820    0.4280 n3        1 0C7     -0.235000
     15 C15         2.1530    0.9020   -0.7210 c2        1 0C7      0.088000
     16 C16         1.9440    2.1000   -1.3860 c2        1 0C7     -0.120000
     17 C17         2.7020    2.4140   -2.5030 c1        1 0C7     -0.064000
     18 C18         3.6690    1.5290   -2.9560 c1        1 0C7     -0.056000
     19 C19         4.4400    1.8360   -4.2180 c1        1 0C7      0.003000
     20 N20         5.6030    2.5040   -4.2890 n2        1 0C7     -0.165000
     21 N21         5.9670    2.5670   -5.5830 n2        1 0C7     -0.037500
     22 N22         5.0290    1.9380   -6.3090 n2        1 0C7     -0.037500
     23 N23         4.0850    1.4860   -5.4650 n2        1 0C7     -0.165000
     24 C24         3.8770    0.3310   -2.2900 c1        1 0C7     -0.093000
     25 C25         3.1190    0.0180   -1.1730 c1        1 0C7     -0.178000
     26 N26        -0.3550   -0.8190    1.3470 n2        1 0C7     -0.280000
     27 H1         -6.3910   -2.0850    3.2840 ha        1 0C7      0.145500
     28 H2         -6.0700   -0.5020    5.0080 ha        1 0C7      0.145500
     29 H3         -3.8960    0.2800    5.5030 ha        1 0C7      0.145500
     30 H4         -2.0440   -0.5210    4.2740 ha        1 0C7      0.145500
     31 H5         -1.6500   -3.0490    2.4970 hn        1 0C7      0.233000
     32 H6         -3.0460   -1.9130   -0.0510 ha        1 0C7      0.163000
     33 H7         -2.1600   -0.7400   -1.8720 ha        1 0C7      0.167000
     34 H8          1.6480    0.8640    1.2530 hn        1 0C7      0.236000
     35 H9          1.2640    2.7220   -1.0680 ha        1 0C7      0.166000
     36 H10         2.5550    3.2580   -2.9720 ha        1 0C7      0.164000
     37 H11         6.0650    2.8530   -3.5850 DU        1 0C7      0.282000
     38 H12         4.5580   -0.2920   -2.6090 ha        1 0C7      0.128000
     39 H13         3.2660   -0.8260   -0.7050 ha        1 0C7      0.139000
@<TRIPOS>BOND
     1    1    2 1   
     2    2    7 1   
     3    3    4 1   
     4    3   27 1   
     5    4   28 1   
     6    5    6 1   
     7    5   29 1   
     8    6   30 1   
     9    7    8 1   
    10    8    9 1   
    11    8   31 1   
    12    9   10 1   
    13    9   26 1   
    14   10   32 1   
    15   11   12 1   
    16   11   33 1   
    17   13   14 1   
    18   13   26 1   
    19   14   15 1   
    20   14   34 1   
    21   15   16 1   
    22   15   25 1   
    23   16   17 1   
    24   16   35 1   
    25   17   36 1   
    26   18   24 1   
    27   19   20 1   
    28   19   23 1   
    29   20   21 1   
    30   21   22 1   
    31   22   23 1   
    32   24   38 1   
    33   25   39 1   
@<TRIPOS>SUBSTRUCTURE
     1 0C7         1 TEMP              0 ****  ****    0 ROOT
