@<TRIPOS>MOLECULE
0C7
   39    42     1     0     0
SMALL
bcc


@<TRIPOS>ATOM
      1 CL2         5.9390    0.7060   -1.7660 cl        1 0C7     -0.100400
      2 C02         5.4590   -0.5190   -0.6830 ca        1 0C7     -0.023600
      3 C03         6.0700   -1.7710   -0.7780 ca        1 0C7     -0.107000
      4 C04         5.6990   -2.7950    0.0880 ca        1 0C7     -0.133000
      5 C05         4.7230   -2.5650    1.0560 ca        1 0C7     -0.116000
      6 C06         4.1140   -1.3190    1.1700 ca        1 0C7     -0.105000
      7 C07         4.4670   -0.2680    0.2970 ca        1 0C7      0.142600
      8 N08         3.9080    1.0190    0.4470 nh        1 0C7     -0.724300
      9 C09         2.5290    1.2640    0.4150 ca        1 0C7      0.712200
     10 C10         2.0870    2.6280    0.3950 ca        1 0C7     -0.454600
     11 C11         0.7070    2.8430    0.4270 ca        1 0C7      0.482200
     12 N12        -0.2100    1.8610    0.4760 nb        1 0C7     -0.761000
     13 C13         0.2920    0.5690    0.4950 ca        1 0C7      0.897900
     14 N14        -0.5940   -0.5240    0.6150 nh        1 0C7     -0.714300
     15 C15        -1.9750   -0.4170    0.3490 ca        1 0C7      0.166600
     16 C16        -2.5830   -1.3310   -0.5440 ca        1 0C7     -0.147000
     17 C17        -3.9540   -1.3020   -0.7620 ca        1 0C7     -0.079500
     18 C18        -4.7560   -0.3590   -0.1030 ca        1 0C7     -0.161500
     19 C19        -6.1860   -0.3390   -0.3530 cc        1 0C7      0.460000
     20 N20        -7.0550    0.7470   -0.1110 na        1 0C7     -0.184400
     21 N21        -8.2920    0.3810   -0.4760 nc        1 0C7     -0.196800
     22 N22        -8.2270   -0.8250   -0.9120 nd        1 0C7     -0.047000
     23 N23        -6.9950   -1.3230   -0.8690 nd        1 0C7     -0.376000
     24 C24        -4.1630    0.5410    0.7910 ca        1 0C7     -0.079500
     25 C25        -2.7930    0.5140    1.0240 ca        1 0C7     -0.147000
     26 N26         1.6360    0.2310    0.4440 nb        1 0C7     -0.795000
     27 H1          6.8430   -1.9460   -1.5430 ha        1 0C7      0.150000
     28 H2          6.1770   -3.7820    0.0060 ha        1 0C7      0.141000
     29 H3          4.4300   -3.3730    1.7440 ha        1 0C7      0.140000
     30 H4          3.3510   -1.1580    1.9480 ha        1 0C7      0.158000
     31 H5          4.4600    1.7660    0.0740 hn        1 0C7      0.440800
     32 H6          2.7910    3.4650    0.3610 ha        1 0C7      0.157000
     33 H7          0.2940    3.8690    0.4100 h4        1 0C7      0.029100
     34 H8         -0.1950   -1.4120    0.3760 hn        1 0C7      0.444800
     35 H9         -1.9750   -2.0790   -1.0780 ha        1 0C7      0.152500
     36 H10        -4.4090   -2.0240   -1.4610 ha        1 0C7      0.146500
     37 H11        -6.8440    1.6460    0.2520 hn        1 0C7      0.333700
     38 H12        -4.7750    1.2730    1.3390 ha        1 0C7      0.146500
     39 H13        -2.3590    1.2260    1.7440 ha        1 0C7      0.152500
@<TRIPOS>BOND
     1    1    2 1   
     2    2    3 ar  
     3    2    7 ar  
     4    3    4 ar  
     5    3   27 1   
     6    4    5 ar  
     7    4   28 1   
     8    5    6 ar  
     9    5   29 1   
    10    6    7 ar  
    11    6   30 1   
    12    7    8 1   
    13    8    9 1   
    14    8   31 1   
    15    9   10 ar  
    16    9   26 ar  
    17   10   11 ar  
    18   10   32 1   
    19   11   12 ar  
    20   11   33 1   
    21   12   13 ar  
    22   13   14 1   
    23   13   26 ar  
    24   14   15 1   
    25   14   34 1   
    26   15   16 ar  
    27   15   25 ar  
    28   16   17 ar  
    29   16   35 1   
    30   17   18 ar  
    31   17   36 1   
    32   18   19 1   
    33   18   24 ar  
    34   19   20 1   
    35   19   23 2   
    36   20   21 1   
    37   20   37 1   
    38   21   22 2   
    39   22   23 1   
    40   24   25 ar  
    41   24   38 1   
    42   25   39 1   
@<TRIPOS>SUBSTRUCTURE
     1 0C7         1 TEMP              0 ****  ****    0 ROOT
