@<TRIPOS>MOLECULE
0C7
   39    42     1     0     0
SMALL
bcc


@<TRIPOS>ATOM
      1 Cl2         0.1190    1.1140   -0.2480 cl        1 0C7     -0.100400
      2 C02         1.7210    0.5860    0.0000 ca        1 0C7     -0.023600
      3 C03         2.2820    0.7310    1.2700 ca        1 0C7     -0.107000
      4 C04         3.5890    0.3150    1.5070 ca        1 0C7     -0.133000
      5 C05         4.3320   -0.2570    0.4750 ca        1 0C7     -0.116000
      6 C06         3.7820   -0.4180   -0.7920 ca        1 0C7     -0.105000
      7 C07         2.4620    0.0050   -1.0590 ca        1 0C7      0.142600
      8 N08         1.8690   -0.2170   -2.3200 nu        1 0C7     -0.724300
      9 C09         2.4160    0.2590   -3.5190 ca        1 0C7      0.712200
     10 C10         1.6350    0.1310   -4.7140 ca        1 0C7     -0.454600
     11 C11         2.2310    0.5560   -5.9040 ca        1 0C7      0.482200
     12 N12         3.4710    1.0670   -5.9870 nb        1 0C7     -0.761000
     13 C13         4.1660    1.1580   -4.7920 ca        1 0C7      0.897900
     14 N14         5.5020    1.6190   -4.7920 nu        1 0C7     -0.714300
     15 C15         6.0580    2.3380   -5.8700 ca        1 0C7      0.166600
     16 C16         6.7030    3.5730   -5.6220 ca        1 0C7     -0.147000
     17 C17         7.3320    4.2620   -6.6510 ca        1 0C7     -0.079500
     18 C18         7.3290    3.7460   -7.9540 ca        1 0C7     -0.161500
     19 C19         7.9820    4.4890   -9.0170 cc        1 0C7      0.460000
     20 N20         7.7420    4.3410  -10.4010 na        1 0C7     -0.184400
     21 N21         8.5320    5.2040  -11.0560 nc        1 0C7     -0.196800
     22 N22         9.2150    5.8460  -10.1790 nd        1 0C7     -0.047000
     23 N23         8.9390    5.4710   -8.9340 nd        1 0C7     -0.376000
     24 C24         6.7020    2.5190   -8.2050 ca        1 0C7     -0.079500
     25 C25         6.0780    1.8160   -7.1820 ca        1 0C7     -0.147000
     26 N26         3.6740    0.7910   -3.5490 nb        1 0C7     -0.795000
     27 H1          1.6900    1.1810    2.0830 ha        1 0C7      0.150000
     28 H2          4.0310    0.4370    2.5070 ha        1 0C7      0.141000
     29 H3          5.3650   -0.5890    0.6610 ha        1 0C7      0.140000
     30 H4          4.3850   -0.8800   -1.5900 ha        1 0C7      0.158000
     31 H5          0.8690   -0.2490   -2.3170 hn        1 0C7      0.440800
     32 H6          0.6220   -0.2830   -4.7020 ha        1 0C7      0.157000
     33 H7          1.6850    0.4900   -6.8640 h4        1 0C7      0.029100
     34 H8          5.8490    1.8890   -3.8920 hn        1 0C7      0.444800
     35 H9          6.7160    4.0020   -4.6080 ha        1 0C7      0.152500
     36 H10         7.8310    5.2220   -6.4370 ha        1 0C7      0.146500
     37 H11         7.1080    3.7330  -10.8630 hn        1 0C7      0.333700
     38 H12         6.7080    2.0810   -9.2150 ha        1 0C7      0.146500
     39 H13         5.6060    0.8470   -7.4090 ha        1 0C7      0.152500
@<TRIPOS>BOND
     1    1    2 1   
     2    2    3 ar  
     3    2    7 ar  
     4    3    4 ar  
     5    3   27 1   
     6    4    5 ar  
     7    4   28 1   
     8    5    6 ar  
     9    5   29 1   
    10    6    7 ar  
    11    6   30 1   
    12    7    8 1   
    13    8    9 1   
    14    8   31 1   
    15    9   10 ar  
    16    9   26 ar  
    17   10   11 ar  
    18   10   32 1   
    19   11   12 ar  
    20   11   33 1   
    21   12   13 ar  
    22   13   14 1   
    23   13   26 ar  
    24   14   15 1   
    25   14   34 1   
    26   15   16 ar  
    27   15   25 ar  
    28   16   17 ar  
    29   16   35 1   
    30   17   18 ar  
    31   17   36 1   
    32   18   19 1   
    33   18   24 ar  
    34   19   20 1   
    35   19   23 2   
    36   20   21 1   
    37   20   37 1   
    38   21   22 2   
    39   22   23 1   
    40   24   25 ar  
    41   24   38 1   
    42   25   39 1   
@<TRIPOS>SUBSTRUCTURE
     1 0C7         1 TEMP              0 ****  ****    0 ROOT
