@<TRIPOS>MOLECULE
0C7
   41    44     1     0     0
SMALL
bcc


@<TRIPOS>ATOM
      1 CL2         0.4220   -0.8960   -2.7710 cl        1 0C7     -0.027400
      2 C02         1.3990   -0.8420   -1.3880 ca        1 0C7      0.022400
      3 C03         0.8440   -1.0950   -0.1310 ca        1 0C7     -0.086000
      4 C04         1.6500   -1.0650    1.0090 ca        1 0C7     -0.041000
      5 C05         3.0140   -0.7850    0.9020 ca        1 0C7     -0.095000
      6 C06         3.5890   -0.5340   -0.3410 ca        1 0C7     -0.085000
      7 C07         2.7810   -0.5630   -1.4920 ca        1 0C7     -0.092400
      8 N08         3.3930   -0.3690   -2.8120 n4        1 0C7     -0.616100
      9 C09         3.6490    1.0610   -3.1210 ca        1 0C7      0.532200
     10 C10         2.6030    2.0020   -3.0480 ca        1 0C7     -0.259600
     11 C11         2.9370    3.3440   -3.3730 ca        1 0C7      0.499200
     12 N12         4.1700    3.7200   -3.7360 nb        1 0C7     -0.621000
     13 C13         5.1190    2.7180   -3.7800 ca        1 0C7      0.759900
     14 N14         6.4960    3.1270   -4.2140 n4        1 0C7     -0.602100
     15 C15         6.5940    3.2000   -5.6780 ca        1 0C7     -0.083400
     16 C16         6.0670    4.3170   -6.3530 ca        1 0C7     -0.088000
     17 C17         6.1920    4.3930   -7.7360 ca        1 0C7     -0.087000
     18 C18         6.8370    3.3680   -8.4510 ca        1 0C7     -0.026500
     19 C19         6.9060    3.4620   -9.8970 cc        1 0C7      0.360000
     20 N20         7.8590    2.8740  -10.7570 na        1 0C7     -0.149400
     21 N21         7.5390    3.2080  -12.0090 nc        1 0C7     -0.132800
     22 N22         6.4720    3.9320  -11.9680 nd        1 0C7     -0.015000
     23 N23         6.0390    4.1290  -10.7330 nd        1 0C7     -0.320000
     24 C24         7.3680    2.2660   -7.7630 ca        1 0C7     -0.087000
     25 C25         7.2460    2.1700   -6.3810 ca        1 0C7     -0.088000
     26 N26         4.9260    1.3990   -3.4860 nb        1 0C7     -0.675000
     27 H1         -0.2340   -1.3250   -0.0430 ha        1 0C7      0.200000
     28 H2          1.2030   -1.2700    2.0000 ha        1 0C7      0.194000
     29 H3          3.6480   -0.7700    1.8080 ha        1 0C7      0.189000
     30 H4          4.6700   -0.3280   -0.4060 ha        1 0C7      0.161000
     31 H5          2.7500   -0.7350   -3.5410 hn        1 0C7      0.489800
     32 H6          1.5730    1.7370   -2.7510 ha        1 0C7      0.221000
     33 H7          2.1700    4.1530   -3.3360 h4        1 0C7      0.110100
     34 H8          7.1880    2.4510   -3.8550 hn        1 0C7      0.491800
     35 H9          5.5610    5.1360   -5.8120 ha        1 0C7      0.168500
     36 H10         5.7780    5.2690   -8.2720 ha        1 0C7      0.191000
     37 H11         8.6750    2.3490  -10.5350 hn        1 0C7      0.347700
     38 H12         7.8780    1.4550   -8.3110 ha        1 0C7      0.191000
     39 H13         7.6700    1.2930   -5.8640 ha        1 0C7      0.168500
     40 H082        4.2740   -0.9090   -2.8450 hn        1 0C7      0.489800
     41 H142        6.6970    4.0630   -3.8190 hn        1 0C7      0.491800
@<TRIPOS>BOND
     1    1    2 1   
     2    2    3 ar  
     3    2    7 ar  
     4    3    4 ar  
     5    3   27 1   
     6    4    5 ar  
     7    4   28 1   
     8    5    6 ar  
     9    5   29 1   
    10    6    7 ar  
    11    6   30 1   
    12    7    8 1   
    13    8    9 1   
    14    8   31 1   
    15    8   40 1   
    16    9   10 ar  
    17    9   26 ar  
    18   10   11 ar  
    19   10   32 1   
    20   11   12 ar  
    21   11   33 1   
    22   12   13 ar  
    23   13   14 1   
    24   13   26 ar  
    25   14   15 1   
    26   14   34 1   
    27   14   41 1   
    28   15   16 ar  
    29   15   25 ar  
    30   16   17 ar  
    31   16   35 1   
    32   17   18 ar  
    33   17   36 1   
    34   18   19 1   
    35   18   24 ar  
    36   19   20 1   
    37   19   23 2   
    38   20   21 1   
    39   20   37 1   
    40   21   22 2   
    41   22   23 1   
    42   24   25 ar  
    43   24   38 1   
    44   25   39 1   
@<TRIPOS>SUBSTRUCTURE
     1 0C7         1 TEMP              0 ****  ****    0 ROOT
