@<TRIPOS>MOLECULE
0C8
   40    42     1     0     0
SMALL
bcc


@<TRIPOS>ATOM
      1 N01         0.2440    0.5340   -0.0060 nb        1 0C8     -0.729000
      2 N02        -0.2080    0.2920    2.4070 nb        1 0C8     -0.819000
      3 N03         1.6360   -0.0480    3.9270 nh        1 0C8     -0.722300
      4 N04        -1.9870    0.7030    0.9020 nh        1 0C8     -0.686300
      5 C05         1.5480    0.4240    0.2700 ca        1 0C8      0.480200
      6 C06        -0.6190    0.4780    1.0880 ca        1 0C8      0.904900
      7 C07         1.1310    0.1850    2.6270 ca        1 0C8      0.699200
      8 C08         2.0750    0.2570    1.5590 ca        1 0C8     -0.478600
      9 C09         0.8520   -0.0450    5.0870 ca        1 0C8      0.183600
     10 C10        -0.3690   -0.7540    5.1840 ca        1 0C8     -0.123000
     11 C11        -1.0710   -0.7980    6.3820 ca        1 0C8     -0.099000
     12 C12        -0.5910   -0.1610    7.5290 ca        1 0C8     -0.155000
     13 C13         0.6110    0.5330    7.4760 ca        1 0C8     -0.098000
     14 C14         1.3150    0.5970    6.2690 ca        1 0C8      0.004100
     15 C15         3.6610    0.8920    6.6360 c3        1 0C8      0.808700
     16 C16        -2.6290    0.4750   -0.3480 ca        1 0C8      0.067600
     17 C17        -3.6480   -0.5000   -0.4350 ca        1 0C8     -0.152000
     18 C18        -4.3460   -0.6720   -1.6240 ca        1 0C8     -0.103500
     19 C19        -4.0500    0.1040   -2.7490 ca        1 0C8     -0.117600
     20 C20        -3.0370    1.0610   -2.6630 ca        1 0C8     -0.103500
     21 C21        -2.3280    1.2560   -1.4790 ca        1 0C8     -0.152000
     22 C22        -4.8260   -0.0930   -4.0440 c         1 0C8      0.908200
     23 O23        -4.5250    0.6370   -5.0300 o         1 0C8     -0.827800
     24 O24        -5.7310   -0.9740   -4.0590 o         1 0C8     -0.827800
     25 O25         2.4400    1.4230    6.1970 os        1 0C8     -0.364900
     26 F26         4.0970   -0.0970    5.8140 f         1 0C8     -0.220967
     27 F27         4.5380    1.9260    6.5810 f         1 0C8     -0.220967
     28 F28         3.6130    0.4220    7.9080 f         1 0C8     -0.220967
     29 H1          2.5580    0.3230    4.0540 hn        1 0C8      0.432800
     30 H2         -2.5600    0.4760    1.6910 hn        1 0C8      0.427800
     31 H3          2.2200    0.4710   -0.6080 h4        1 0C8      0.023100
     32 H4          3.1530    0.1730    1.7240 ha        1 0C8      0.146000
     33 H5         -0.7720   -1.2820    4.3050 ha        1 0C8      0.168000
     34 H6         -2.0230   -1.3510    6.4250 ha        1 0C8      0.138000
     35 H7         -1.1600   -0.2080    8.4680 ha        1 0C8      0.136000
     36 H8          1.0200    1.0390    8.3630 ha        1 0C8      0.146000
     37 H9         -3.8980   -1.1230    0.4360 ha        1 0C8      0.117500
     38 H10        -5.1470   -1.4250   -1.7080 ha        1 0C8      0.155500
     39 H11        -2.8120    1.6630   -3.5590 ha        1 0C8      0.155500
     40 H12        -1.5360    2.0170   -1.4380 ha        1 0C8      0.117500
@<TRIPOS>BOND
     1    1    5 ar  
     2    1    6 ar  
     3    2    6 ar  
     4    2    7 ar  
     5    3    7 1   
     6    3    9 1   
     7    3   29 1   
     8    4    6 1   
     9    4   16 1   
    10    4   30 1   
    11    5    8 ar  
    12    5   31 1   
    13    7    8 ar  
    14    8   32 1   
    15    9   10 ar  
    16    9   14 ar  
    17   10   11 ar  
    18   10   33 1   
    19   11   12 ar  
    20   11   34 1   
    21   12   13 ar  
    22   12   35 1   
    23   13   14 ar  
    24   13   36 1   
    25   14   25 1   
    26   15   25 1   
    27   15   26 1   
    28   15   27 1   
    29   15   28 1   
    30   16   17 ar  
    31   16   21 ar  
    32   17   18 ar  
    33   17   37 1   
    34   18   19 ar  
    35   18   38 1   
    36   19   20 ar  
    37   19   22 1   
    38   20   21 ar  
    39   20   39 1   
    40   21   40 1   
    41   22   23 1   
    42   22   24 1   
@<TRIPOS>SUBSTRUCTURE
     1 0C8         1 TEMP              0 ****  ****    0 ROOT
