@<TRIPOS>MOLECULE
0C8
   40    42     1     0     0
SMALL
bcc


@<TRIPOS>ATOM
      1 N01         0.2440    0.5370   -0.0060 nb        1 0C8     -0.729000
      2 N02        -0.2090    0.2930    2.4070 nb        1 0C8     -0.819000
      3 N03         1.6350   -0.0460    3.9270 nu        1 0C8     -0.722300
      4 N04        -1.9880    0.7040    0.9010 nu        1 0C8     -0.686300
      5 C05         1.5470    0.4270    0.2710 ca        1 0C8      0.480200
      6 C06        -0.6190    0.4800    1.0880 ca        1 0C8      0.904900
      7 C07         1.1300    0.1870    2.6270 ca        1 0C8      0.699200
      8 C08         2.0750    0.2600    1.5600 ca        1 0C8     -0.478600
      9 C09         0.8510   -0.0440    5.0880 ca        1 0C8      0.183600
     10 C10        -0.3700   -0.7520    5.1840 ca        1 0C8     -0.123000
     11 C11        -1.0720   -0.7960    6.3820 ca        1 0C8     -0.099000
     12 C12        -0.5910   -0.1600    7.5290 ca        1 0C8     -0.155000
     13 C13         0.6120    0.5330    7.4770 ca        1 0C8     -0.098000
     14 C14         1.3160    0.5960    6.2700 ca        1 0C8      0.004100
     15 C15         3.6630    0.8880    6.6360 c3        1 0C8      0.808700
     16 C16        -2.6290    0.4750   -0.3490 ca        1 0C8      0.067600
     17 C17        -3.6470   -0.5010   -0.4350 ca        1 0C8     -0.152000
     18 C18        -4.3450   -0.6740   -1.6240 ca        1 0C8     -0.103500
     19 C19        -4.0500    0.1020   -2.7500 ca        1 0C8     -0.117600
     20 C20        -3.0370    1.0600   -2.6640 ca        1 0C8     -0.103500
     21 C21        -2.3290    1.2560   -1.4800 ca        1 0C8     -0.152000
     22 C22        -4.8260   -0.0950   -4.0450 c         1 0C8      0.908200
     23 O23        -4.5240    0.6340   -5.0310 o         1 0C8     -0.827800
     24 O24        -5.7300   -0.9770   -4.0590 o         1 0C8     -0.827800
     25 O25         2.4420    1.4210    6.1980 os        1 0C8     -0.364900
     26 F26         4.0970   -0.1010    5.8130 f         1 0C8     -0.220633
     27 F27         4.5410    1.9200    6.5820 f         1 0C8     -0.220633
     28 F28         3.6140    0.4160    7.9070 f         1 0C8     -0.220633
     29 H1          2.5580    0.3240    4.0540 hn        1 0C8      0.432800
     30 H2         -2.5600    0.4770    1.6910 hn        1 0C8      0.427800
     31 H3          2.2200    0.4750   -0.6070 h4        1 0C8      0.023100
     32 H4          3.1520    0.1760    1.7250 ha        1 0C8      0.146000
     33 H5         -0.7750   -1.2790    4.3050 ha        1 0C8      0.169000
     34 H6         -2.0240   -1.3470    6.4260 ha        1 0C8      0.138000
     35 H7         -1.1590   -0.2070    8.4690 ha        1 0C8      0.136000
     36 H8          1.0220    1.0370    8.3640 ha        1 0C8      0.146000
     37 H9         -3.8970   -1.1240    0.4360 ha        1 0C8      0.117500
     38 H10        -5.1450   -1.4280   -1.7080 ha        1 0C8      0.155500
     39 H11        -2.8130    1.6630   -3.5590 ha        1 0C8      0.155500
     40 H12        -1.5380    2.0180   -1.4380 ha        1 0C8      0.117500
@<TRIPOS>BOND
     1    1    5 ar  
     2    1    6 ar  
     3    2    6 ar  
     4    2    7 ar  
     5    3    7 1   
     6    3    9 1   
     7    3   29 1   
     8    4    6 1   
     9    4   16 1   
    10    4   30 1   
    11    5    8 ar  
    12    5   31 1   
    13    7    8 ar  
    14    8   32 1   
    15    9   10 ar  
    16    9   14 ar  
    17   10   11 ar  
    18   10   33 1   
    19   11   12 ar  
    20   11   34 1   
    21   12   13 ar  
    22   12   35 1   
    23   13   14 ar  
    24   13   36 1   
    25   14   25 1   
    26   15   25 1   
    27   15   26 1   
    28   15   27 1   
    29   15   28 1   
    30   16   17 ar  
    31   16   21 ar  
    32   17   18 ar  
    33   17   37 1   
    34   18   19 ar  
    35   18   38 1   
    36   19   20 ar  
    37   19   22 1   
    38   20   21 ar  
    39   20   39 1   
    40   21   40 1   
    41   22   23 1   
    42   22   24 1   
@<TRIPOS>SUBSTRUCTURE
     1 0C8         1 TEMP              0 ****  ****    0 ROOT
