@<TRIPOS>MOLECULE
0C8
   42    44     1     0     0
SMALL
bcc


@<TRIPOS>ATOM
      1 N01         0.5990    2.0200    0.2180 nb        1 0C8     -0.712000
      2 N02         0.0930    0.8870    2.3470 nb        1 0C8     -0.753000
      3 N03         1.8630   -0.2020    3.5460 nh        1 0C8     -0.701300
      4 N04        -1.6700    1.9800    1.0950 n4        1 0C8     -0.616100
      5 C05         1.9020    1.6720    0.3730 ca        1 0C8      0.483200
      6 C06        -0.2190    1.6000    1.2260 ca        1 0C8      0.753900
      7 C07         1.4270    0.5500    2.4780 ca        1 0C8      0.731200
      8 C08         2.3750    0.9500    1.4650 ca        1 0C8     -0.374600
      9 C09         1.0690   -0.5480    4.6640 ca        1 0C8      0.115600
     10 C10        -0.1290   -1.2740    4.5290 ca        1 0C8     -0.112000
     11 C11        -0.8460   -1.6630    5.6590 ca        1 0C8     -0.111000
     12 C12        -0.3900   -1.3540    6.9400 ca        1 0C8     -0.104000
     13 C13         0.7990   -0.6460    7.1050 ca        1 0C8     -0.103000
     14 C14         1.5180   -0.2410    5.9770 ca        1 0C8      0.069100
     15 C15         2.8260    1.6960    6.5190 c3        1 0C8      0.823700
     16 C16        -2.3650    1.1150    0.1340 ca        1 0C8     -0.026400
     17 C17        -2.2520    1.3790   -1.2420 ca        1 0C8     -0.096500
     18 C18        -2.9460    0.5730   -2.1430 ca        1 0C8     -0.073000
     19 C19        -3.7290   -0.4910   -1.6820 ca        1 0C8     -0.117600
     20 C20        -3.8300   -0.7490   -0.3110 ca        1 0C8     -0.073000
     21 C21        -3.1480    0.0480    0.6070 ca        1 0C8     -0.096500
     22 C22        -4.4780   -1.3000   -2.6760 c         1 0C8      0.626700
     23 O23        -4.9840   -0.8650   -3.7080 o         1 0C8     -0.438000
     24 O24        -4.6500   -2.6360   -2.4800 oh        1 0C8     -0.547100
     25 O25         2.7750    0.3440    6.1250 os        1 0C8     -0.383900
     26 F26         2.2600    1.8970    7.7310 f         1 0C8     -0.207967
     27 F27         4.1460    1.9870    6.5650 f         1 0C8     -0.207967
     28 F28         2.2190    2.4910    5.6000 f         1 0C8     -0.207967
     29 H1          2.8530   -0.2150    3.7050 hn        1 0C8      0.475800
     30 H2         -2.1230    1.9050    2.0180 hn        1 0C8      0.479300
     31 H3          2.5770    2.0100   -0.4400 h4        1 0C8      0.069100
     32 H4          3.4410    0.6920    1.5520 ha        1 0C8      0.189000
     33 H5         -0.4990   -1.5510    3.5300 ha        1 0C8      0.146000
     34 H6         -1.7790   -2.2360    5.5350 ha        1 0C8      0.151000
     35 H7         -0.9610   -1.6760    7.8250 ha        1 0C8      0.161000
     36 H8          1.1800   -0.3960    8.1090 ha        1 0C8      0.173000
     37 H9         -1.6260    2.2050   -1.6210 ha        1 0C8      0.171500
     38 H10        -2.8890    0.7790   -3.2280 ha        1 0C8      0.182000
     39 H11        -4.4640   -1.5740    0.0580 ha        1 0C8      0.182000
     40 H12        -3.2380   -0.1700    1.6840 ha        1 0C8      0.171500
     41 H032       -4.1630   -2.9340   -1.6980 ho        1 0C8      0.430000
     42 H042       -1.7200    2.9570    0.7690 hn        1 0C8      0.479300
@<TRIPOS>BOND
     1    1    5 ar  
     2    1    6 ar  
     3    2    6 ar  
     4    2    7 ar  
     5    3    7 1   
     6    3    9 1   
     7    3   29 1   
     8    4    6 1   
     9    4   16 1   
    10    4   30 1   
    11    4   42 1   
    12    5    8 ar  
    13    5   31 1   
    14    7    8 ar  
    15    8   32 1   
    16    9   10 ar  
    17    9   14 ar  
    18   10   11 ar  
    19   10   33 1   
    20   11   12 ar  
    21   11   34 1   
    22   12   13 ar  
    23   12   35 1   
    24   13   14 ar  
    25   13   36 1   
    26   14   25 1   
    27   15   25 1   
    28   15   26 1   
    29   15   27 1   
    30   15   28 1   
    31   16   17 ar  
    32   16   21 ar  
    33   17   18 ar  
    34   17   37 1   
    35   18   19 ar  
    36   18   38 1   
    37   19   20 ar  
    38   19   22 1   
    39   20   21 ar  
    40   20   39 1   
    41   21   40 1   
    42   22   23 2   
    43   22   24 1   
    44   24   41 1   
@<TRIPOS>SUBSTRUCTURE
     1 0C8         1 TEMP              0 ****  ****    0 ROOT
