@<TRIPOS>MOLECULE
0C8
   40    42     1     0     0
SMALL
bcc


@<TRIPOS>ATOM
      1 N01        -1.6810   -1.8140    0.3050 nb        1 0C8     -0.729000
      2 N02         0.0530   -0.0660    0.1550 nb        1 0C8     -0.819000
      3 N03         2.3170   -0.5890    0.8060 nh        1 0C8     -0.722300
      4 N04        -2.1590    0.3930   -0.5480 nh        1 0C8     -0.686300
      5 C05        -0.7340   -2.6580    0.7280 ca        1 0C8      0.480200
      6 C06        -1.2570   -0.5190    0.0110 ca        1 0C8      0.904900
      7 C07         0.9730   -0.9690    0.5900 ca        1 0C8      0.699200
      8 C08         0.6180   -2.3190    0.8880 ca        1 0C8     -0.478600
      9 C09         2.8440    0.6650    0.4690 ca        1 0C8      0.183600
     10 C10         2.2030    1.8790    0.8110 ca        1 0C8     -0.123000
     11 C11         2.8030    3.1010    0.5350 ca        1 0C8     -0.099000
     12 C12         4.0600    3.1720   -0.0700 ca        1 0C8     -0.155000
     13 C13         4.7260    2.0020   -0.4080 ca        1 0C8     -0.098000
     14 C14         4.1210    0.7670   -0.1490 ca        1 0C8      0.004100
     15 C15         5.7480   -0.9610    0.1570 c3        1 0C8      0.808700
     16 C16        -3.5660    0.2770   -0.3640 ca        1 0C8      0.067600
     17 C17        -4.2630    1.3050    0.3090 ca        1 0C8     -0.152000
     18 C18        -5.6470    1.2510    0.4180 ca        1 0C8     -0.103500
     19 C19        -6.3690    0.1830   -0.1240 ca        1 0C8     -0.117600
     20 C20        -5.6770   -0.8360   -0.7800 ca        1 0C8     -0.103500
     21 C21        -4.2890   -0.8000   -0.9090 ca        1 0C8     -0.152000
     22 C22        -7.8860    0.1390    0.0000 c         1 0C8      0.908200
     23 O23        -8.4910   -0.8440   -0.5110 o         1 0C8     -0.827800
     24 O24        -8.4540    1.0910    0.6060 o         1 0C8     -0.827800
     25 O25         4.7380   -0.3910   -0.6320 os        1 0C8     -0.364900
     26 F26         5.2460   -1.4770    1.3090 f         1 0C8     -0.220633
     27 F27         6.2530   -1.9730   -0.5930 f         1 0C8     -0.220633
     28 F28         6.7450   -0.0930    0.4570 f         1 0C8     -0.220633
     29 H1          2.9590   -1.3490    0.6840 hn        1 0C8      0.432800
     30 H2         -1.8370    1.3410   -0.5690 hn        1 0C8      0.427800
     31 H3         -1.0850   -3.6830    0.9560 h4        1 0C8      0.023100
     32 H4          1.3490   -3.0530    1.2370 ha        1 0C8      0.146000
     33 H5          1.2170    1.8630    1.3030 ha        1 0C8      0.169000
     34 H6          2.2760    4.0300    0.8050 ha        1 0C8      0.138000
     35 H7          4.5200    4.1480   -0.2790 ha        1 0C8      0.136000
     36 H8          5.7210    2.0230   -0.8770 ha        1 0C8      0.146000
     37 H9         -3.7170    2.1550    0.7440 ha        1 0C8      0.117500
     38 H10        -6.2070    2.0480    0.9360 ha        1 0C8      0.155500
     39 H11        -6.2580   -1.6740   -1.2000 ha        1 0C8      0.155500
     40 H12        -3.7690   -1.6150   -1.4320 ha        1 0C8      0.117500
@<TRIPOS>BOND
     1    1    5 ar  
     2    1    6 ar  
     3    2    6 ar  
     4    2    7 ar  
     5    3    7 1   
     6    3    9 1   
     7    3   29 1   
     8    4    6 1   
     9    4   16 1   
    10    4   30 1   
    11    5    8 ar  
    12    5   31 1   
    13    7    8 ar  
    14    8   32 1   
    15    9   10 ar  
    16    9   14 ar  
    17   10   11 ar  
    18   10   33 1   
    19   11   12 ar  
    20   11   34 1   
    21   12   13 ar  
    22   12   35 1   
    23   13   14 ar  
    24   13   36 1   
    25   14   25 1   
    26   15   25 1   
    27   15   26 1   
    28   15   27 1   
    29   15   28 1   
    30   16   17 ar  
    31   16   21 ar  
    32   17   18 ar  
    33   17   37 1   
    34   18   19 ar  
    35   18   38 1   
    36   19   20 ar  
    37   19   22 1   
    38   20   21 ar  
    39   20   39 1   
    40   21   40 1   
    41   22   23 1   
    42   22   24 1   
@<TRIPOS>SUBSTRUCTURE
     1 0C8         1 TEMP              0 ****  ****    0 ROOT
