@<TRIPOS>MOLECULE
0C8
   40    32     1     0     0
SMALL
bcc


@<TRIPOS>ATOM
      1 N01        -0.5400   -0.8600   -1.5660 n1        1 0C8     -0.193000
      2 N02        -0.5370   -0.8990    0.7940 n1        1 0C8     -0.294000
      3 N03         1.5140   -0.9860    2.0210 n3        1 0C8     -0.222000
      4 N04        -2.6380   -0.8570   -0.3840 n3        1 0C8     -0.202000
      5 C05         0.8020   -0.8610   -1.5690 c1        1 0C8      0.003000
      6 C06        -1.2190   -0.8790   -0.3860 c1        1 0C8      0.173000
      7 C07         0.8040   -0.9000    0.7940 c2        1 0C8      0.141000
      8 C08         1.4860   -0.8810   -0.3880 c2        1 0C8     -0.306000
      9 C09         2.2210    0.1410    2.5120 c1        1 0C8      0.041000
     10 C10         1.5260    1.2450    2.9810 c1        1 0C8     -0.150000
     11 C11         2.2150    2.3720    3.4010 c1        1 0C8     -0.117250
     12 C12         3.6000    2.3950    3.3510 c1        1 0C8     -0.117250
     13 C13         4.2960    1.2920    2.8820 c1        1 0C8     -0.119000
     14 C14         3.6070    0.1650    2.4620 c1        1 0C8      0.043000
     15 C15         5.3910   -1.3730    2.5270 c3        1 0C8      0.537000
     16 C16        -3.3430   -0.4510   -1.5480 c1        1 0C8     -0.018000
     17 C17        -3.7890   -1.4010   -2.4540 c1        1 0C8     -0.117250
     18 C18        -4.5050   -1.0080   -3.5750 c1        1 0C8     -0.117250
     19 C19        -4.7750    0.3350   -3.7890 c1        1 0C8     -0.098000
     20 C20        -4.3290    1.2840   -2.8820 c1        1 0C8     -0.101000
     21 C21        -3.6130    0.8910   -1.7620 c1        1 0C8     -0.184000
     22 C22        -5.5270    0.7670   -5.0300 c1        1 0C8      0.357000
     23 O23        -6.7860    0.8090   -5.0200 o         1 0C8     -0.561000
     24 O24        -4.8950    1.0620   -6.0780 os        1 0C8     -0.565000
     25 O25         4.3190   -0.8440    1.7890 os        1 0C8     -0.243000
     26 F26         5.0610   -1.4170    3.8240 f         1 0C8     -0.146667
     27 F27         5.6630   -2.6110    2.0940 f         1 0C8     -0.146667
     28 F28         6.4700   -0.5960    2.3670 f         1 0C8     -0.146667
     29 H1          1.5200   -1.7690    2.4900 hn        1 0C8      0.206000
     30 H2         -3.0960   -1.0810    0.3710 hn        1 0C8      0.217000
     31 H3          1.2880   -0.8480   -2.4140 ha        1 0C8      0.161000
     32 H4          2.4620   -0.8820   -0.3890 ha        1 0C8      0.163000
     33 H5          0.5510    1.2280    3.0160 ha        1 0C8      0.149000
     34 H6          1.7240    3.1590    3.7050 ha        1 0C8      0.140500
     35 H7          4.0860    3.1880    3.6470 ha        1 0C8      0.140500
     36 H8          5.2710    1.3080    2.8470 ha        1 0C8      0.152000
     37 H9         -3.6090   -2.3470   -2.2980 ha        1 0C8      0.140500
     38 H10        -4.8400   -1.6780   -4.1990 ha        1 0C8      0.140500
     39 H11        -4.5080    2.2310   -3.0400 ha        1 0C8      0.155000
     40 H12        -3.3260    1.5580   -1.1080 ha        1 0C8      0.106000
@<TRIPOS>BOND
     1    1    6 1   
     2    2    7 1   
     3    3    7 1   
     4    3    9 1   
     5    3   29 1   
     6    4    6 1   
     7    4   16 1   
     8    4   30 1   
     9    5    8 1   
    10    5   31 1   
    11    7    8 1   
    12    8   32 1   
    13    9   10 1   
    14   10   33 1   
    15   11   12 1   
    16   11   34 1   
    17   12   35 1   
    18   13   14 1   
    19   13   36 1   
    20   14   25 1   
    21   15   25 1   
    22   15   26 1   
    23   15   27 1   
    24   15   28 1   
    25   16   21 1   
    26   17   18 1   
    27   17   37 1   
    28   18   38 1   
    29   19   20 1   
    30   20   39 1   
    31   21   40 1   
    32   22   23 1   
@<TRIPOS>SUBSTRUCTURE
     1 0C8         1 TEMP              0 ****  ****    0 ROOT
