@<TRIPOS>MOLECULE
0C9
   38    40     1     0     0
SMALL
bcc


@<TRIPOS>ATOM
      1 N01         1.7700   -0.3600    1.0760 nh        1 0C9     -0.692300
      2 N02        -0.5730   -0.0540    0.8840 nb        1 0C9     -0.814000
      3 N03         0.7710   -0.5410   -1.1210 nb        1 0C9     -0.763000
      4 C05         5.0190   -0.5070   -0.7630 ca        1 0C9     -0.106000
      5 C06         5.7180    0.5540   -0.1850 ca        1 0C9     -0.130600
      6 C07         5.0730    1.3360    0.7790 ca        1 0C9     -0.106000
      7 C08         3.7650    1.0640    1.1620 ca        1 0C9     -0.161000
      8 C09         3.0620   -0.0200    0.5870 ca        1 0C9      0.090600
      9 C10         3.7100   -0.8030   -0.3880 ca        1 0C9     -0.161000
     10 C12         0.6280   -0.2940    0.2380 ca        1 0C9      0.884900
     11 C13        -1.7170   -0.0940    0.1230 ca        1 0C9      0.730200
     12 C14        -1.6430   -0.3830   -1.2800 ca        1 0C9     -0.481600
     13 C15        -0.3740   -0.5830   -1.8220 ca        1 0C9      0.462200
     14 C16        -4.1290    0.3920    0.0770 ca        1 0C9      0.172600
     15 C17        -4.1680    1.1970   -1.0860 ca        1 0C9     -0.190000
     16 C18        -5.3710    1.4560   -1.7320 ca        1 0C9     -0.136000
     17 C19        -6.5620    0.9310   -1.2380 ca        1 0C9     -0.188000
     18 C20        -6.5390    0.1530   -0.0840 ca        1 0C9     -0.091000
     19 C21        -5.3480   -0.1230    0.5930 ca        1 0C9     -0.156600
     20 C22        -5.4530   -0.9520    1.8650 c         1 0C9      0.912200
     21 O23        -6.4400   -1.7330    1.9700 o         1 0C9     -0.829800
     22 O24        -4.5810   -0.8080    2.7720 o         1 0C9     -0.829800
     23 O25         7.6990    0.1140   -1.4530 o         1 0C9     -0.841800
     24 O26         7.7370    1.8280   -0.0300 o         1 0C9     -0.841800
     25 H1          1.6010    0.0110    1.9920 hn        1 0C9      0.415800
     26 H2         -3.0170   -0.0570    1.7420 hn        1 0C9      0.505800
     27 H3          5.5320   -1.1150   -1.5260 ha        1 0C9      0.146500
     28 H4          5.6300    2.1750    1.2270 ha        1 0C9      0.146500
     29 H5          3.2820    1.6960    1.9220 ha        1 0C9      0.120500
     30 H6          3.1870   -1.6480   -0.8590 ha        1 0C9      0.120500
     31 H7         -2.5440   -0.4690   -1.8950 ha        1 0C9      0.153000
     32 H8         -0.2520   -0.7980   -2.9000 h4        1 0C9      0.004100
     33 H9         -3.2400    1.6370   -1.4820 ha        1 0C9      0.128000
     34 H10        -5.3750    2.0830   -2.6350 ha        1 0C9      0.103000
     35 H11        -7.5110    1.1300   -1.7530 ha        1 0C9      0.103000
     36 H12        -7.4670   -0.2830    0.3220 ha        1 0C9      0.149000
     37 C11         7.1510    0.8530   -0.5860 c         1 0C9      0.908200
     38 N04        -2.9200    0.1830    0.7620 nh        1 0C9     -0.738300
@<TRIPOS>BOND
     1    1    8 1   
     2    1   10 1   
     3    1   25 1   
     4    2   10 ar  
     5    2   11 ar  
     6    3   10 ar  
     7    3   13 ar  
     8    4    5 ar  
     9    4    9 ar  
    10    4   27 1   
    11    5    6 ar  
    12    5   37 1   
    13    6    7 ar  
    14    6   28 1   
    15    7    8 ar  
    16    7   29 1   
    17    8    9 ar  
    18    9   30 1   
    19   11   12 ar  
    20   11   38 1   
    21   12   13 ar  
    22   12   31 1   
    23   13   32 1   
    24   14   15 ar  
    25   14   19 ar  
    26   14   38 1   
    27   15   16 ar  
    28   15   33 1   
    29   16   17 ar  
    30   16   34 1   
    31   17   18 ar  
    32   17   35 1   
    33   18   19 ar  
    34   18   36 1   
    35   19   20 1   
    36   20   21 1   
    37   20   22 1   
    38   23   37 1   
    39   24   37 1   
    40   26   38 1   
@<TRIPOS>SUBSTRUCTURE
     1 0C9         1 TEMP              0 ****  ****    0 ROOT
