@<TRIPOS>MOLECULE
0C9
   38    39     1     0     0
SMALL
bcc


@<TRIPOS>ATOM
      1 N01         0.2610    1.3340    0.1300 n2        1 0C9     -0.202000
      2 N02        -0.7310    0.9210   -2.0150 n2        1 0C9     -0.218000
      3 N03         0.0770    3.1550   -1.4770 n3        1 0C9     -0.191000
      4 C05         4.2320   -1.6680    0.1660 c1        1 0C9     -0.158000
      5 C06         3.7640   -0.9930    1.1780 c2        1 0C9     -0.166000
      6 C07         2.5230   -1.0670    1.8190 c1        1 0C9     -0.033000
      7 C08         1.4700   -0.0780    1.6970 c3        1 0C9     -0.175000
      8 C09         1.1090    0.3820    0.3100 c2        1 0C9      0.022000
      9 C10         4.7110   -2.3310   -0.8410 c2        1 0C9     -0.216000
     10 C12        -0.1440    1.7460   -1.1850 c2        1 0C9      0.099000
     11 C13        -1.3550    1.4640   -3.2520 c3        1 0C9      0.216000
     12 C14        -0.7250    2.8160   -3.7380 c3        1 0C9     -0.238000
     13 C15        -0.1740    3.6720   -2.6610 c1        1 0C9     -0.102000
     14 C16        -3.5880    1.6820   -4.2500 c2        1 0C9      0.190000
     15 C17        -4.8460    2.1160   -4.1690 c1        1 0C9     -0.306000
     16 C18        -6.0670    2.5310   -4.1000 c2        1 0C9     -0.165000
     17 C19        -4.2130    1.6310   -7.7370 c1        1 0C9     -0.424000
     18 C20        -3.6470    1.4470   -6.6920 c1        1 0C9      0.045000
     19 C21        -2.9880    1.2470   -5.4870 c2        1 0C9     -0.404000
     20 C22        -1.7480    0.5520   -5.4590 c2        1 0C9      0.383000
     21 O23        -1.1350   -0.0730   -6.3440 o         1 0C9     -0.420000
     22 O24        -1.0260    0.4770   -4.2600 os        1 0C9     -0.300000
     23 O25         5.8380   -0.3900    2.2880 o         1 0C9     -0.517500
     24 O26         4.2260    1.1700    2.1380 o         1 0C9     -0.517500
     25 H1          1.6250   -0.1680   -0.5080 h4        1 0C9      0.134000
     26 H2         -3.1910    0.9630   -2.4180 hn        1 0C9      0.177000
     27 H3          5.1590   -3.3280   -0.7280 ha        1 0C9      0.098000
     28 H4          1.8800    0.8010    2.3010 hc        1 0C9      0.150500
     29 H5          0.5370   -0.4460    2.2070 hc        1 0C9      0.150500
     30 H6          4.7020   -1.9350   -1.8660 ha        1 0C9      0.098000
     31 H7         -1.4870    3.4120   -4.3080 hc        1 0C9      0.146000
     32 H8          0.4440    3.7260   -0.7480 hn        1 0C9      0.252000
     33 H9          0.1110    2.5750   -4.4510 hc        1 0C9      0.146000
     34 H10        -6.3480    3.5870   -4.2390 ha        1 0C9      0.071000
     35 H11        -6.9190    1.8590   -3.9130 ha        1 0C9      0.071000
     36 H12        -4.7080    1.7900   -8.6520 ha        1 0C9      0.185000
     37 C11         4.7140    0.0290    1.9450 c2        1 0C9      0.403000
     38 N04        -2.8120    1.6470   -3.0460 n3        1 0C9     -0.282000
@<TRIPOS>BOND
     1    1    8 1   
     2    1   10 1   
     3    2   10 1   
     4    2   11 1   
     5    3   10 1   
     6    3   13 1   
     7    3   32 1   
     8    4    5 1   
     9    4    9 1   
    10    5    6 1   
    11    5   37 1   
    12    6    7 1   
    13    7    8 1   
    14    7   28 1   
    15    7   29 1   
    16    8   25 1   
    17    9   27 1   
    18    9   30 1   
    19   11   12 1   
    20   11   22 1   
    21   11   38 1   
    22   12   13 1   
    23   12   31 1   
    24   12   33 1   
    25   14   15 1   
    26   14   19 1   
    27   14   38 1   
    28   15   16 1   
    29   16   34 1   
    30   16   35 1   
    31   17   18 1   
    32   17   36 1   
    33   18   19 1   
    34   19   20 1   
    35   20   21 1   
    36   20   22 1   
    37   23   37 1   
    38   24   37 1   
    39   26   38 1   
@<TRIPOS>SUBSTRUCTURE
     1 0C9         1 TEMP              0 ****  ****    0 ROOT
