@<TRIPOS>MOLECULE
0C9
   38    38     1     0     0
SMALL
bcc


@<TRIPOS>ATOM
      1 N01         0.8830    2.2430   -0.1320 n2        1 0C9     -0.200000
      2 N02        -0.4030    1.5100   -2.0500 n2        1 0C9     -0.249000
      3 N03         0.8230    3.5910   -2.1420 n7        1 0C9     -0.178000
      4 C05         3.0030   -0.8360    0.2710 c1        1 0C9     -0.036000
      5 C06         3.2200   -0.8990    1.6480 c2        1 0C9     -0.152000
      6 C07         2.7290   -1.7440    2.5140 c1        1 0C9     -0.162000
      7 C08         2.2290   -2.5530    3.3970 c2        1 0C9     -0.220000
      8 C09         1.6190    1.2750    0.2760 c2        1 0C9      0.001000
      9 C10         2.2060    0.1150   -0.4710 c3        1 0C9     -0.199000
     10 C12         0.4390    2.4000   -1.4840 c2        1 0C9      0.125000
     11 C13        -0.9370    1.8190   -3.3090 c2        1 0C9      0.199000
     12 C14        -0.5720    3.0240   -3.9630 c2        1 0C9     -0.370000
     13 C15         0.3330    3.9180   -3.3590 c1        1 0C9     -0.148000
     14 C16        -2.5950    1.3040   -5.0120 c3        1 0C9     -0.046000
     15 C17        -3.2970    2.5900   -4.7310 c1        1 0C9     -0.023000
     16 C18        -3.5920    3.4840   -5.8290 c3        1 0C9     -0.282000
     17 C19        -5.7550    0.9780   -6.7450 c1        1 0C9      0.049000
     18 C20        -4.7120    0.6660   -6.1070 c1        1 0C9     -0.579000
     19 C21        -3.6270    0.2730   -5.4360 c2        1 0C9      0.224000
     20 C22        -3.3340   -1.2040   -5.1090 c2        1 0C9      0.357000
     21 O23        -2.9660   -1.9270   -6.0640 o         1 0C9     -0.515000
     22 O24        -3.4730   -1.5340   -3.9030 o         1 0C9     -0.515000
     23 O25         3.8640    1.3160    2.3070 o         1 0C9     -0.515000
     24 O26         5.4510   -0.2750    2.3780 o         1 0C9     -0.515000
     25 H1          1.9160    1.3310    1.3590 h4        1 0C9      0.216000
     26 H2         -2.1110    0.1100   -3.3580 hn        1 0C9      0.273000
     27 H3          1.3770   -0.4920   -0.9530 hc        1 0C9      0.154500
     28 H4          1.3710   -2.2830    4.0260 ha        1 0C9      0.094500
     29 H5          2.6390   -3.5570    3.5700 ha        1 0C9      0.094500
     30 H6          2.8430    0.5030   -1.3190 hc        1 0C9      0.154500
     31 H7         -0.9750    3.2990   -4.9440 ha        1 0C9      0.137000
     32 H8          1.4400    4.2220   -1.6820 hn        1 0C9      0.249000
     33 H9         -1.9050    1.3900   -5.9220 h1        1 0C9      0.117000
     34 H10        -3.5200    4.5450   -5.4780 hc        1 0C9      0.106667
     35 H11        -4.6670    3.2760   -6.1090 hc        1 0C9      0.106667
     36 H12        -2.9650    3.3640   -6.7490 hc        1 0C9      0.106667
     37 C11         4.2970    0.1450    2.1610 c2        1 0C9      0.399000
     38 N04        -1.7480    0.8680   -3.9130 n7        1 0C9     -0.260000
@<TRIPOS>BOND
     1    1    8 1   
     2    1   10 1   
     3    2   10 1   
     4    2   11 1   
     5    3   10 1   
     6    3   13 1   
     7    3   32 1   
     8    4    5 1   
     9    4    9 1   
    10    5    6 1   
    11    5   37 1   
    12    6    7 1   
    13    7   28 1   
    14    7   29 1   
    15    8    9 1   
    16    8   25 1   
    17    9   27 1   
    18    9   30 1   
    19   11   12 1   
    20   11   38 1   
    21   12   13 1   
    22   12   31 1   
    23   14   15 1   
    24   14   19 1   
    25   14   33 1   
    26   14   38 1   
    27   15   16 1   
    28   16   34 1   
    29   16   35 1   
    30   16   36 1   
    31   17   18 1   
    32   18   19 1   
    33   19   20 1   
    34   20   21 1   
    35   20   22 1   
    36   23   37 1   
    37   24   37 1   
    38   26   38 1   
@<TRIPOS>SUBSTRUCTURE
     1 0C9         1 TEMP              0 ****  ****    0 ROOT
