@<TRIPOS>MOLECULE
0C9
   38    30     1     0     0
SMALL
bcc


@<TRIPOS>ATOM
      1 N01         0.6950   -0.6290    2.0400 n3        1 0C9     -0.221000
      2 N02        -1.0510    0.3270    0.6880 n1        1 0C9     -0.289000
      3 N03         1.0860    1.2910    0.7600 n1        1 0C9     -0.240000
      4 N04        -2.9440    1.3090   -0.5280 n3        1 0C9     -0.260000
      5 C05         4.1120   -2.2100    1.6370 c1        1 0C9     -0.149833
      6 C06         4.8440   -1.4760    2.5690 c1        1 0C9     -0.112000
      7 C07         4.2210   -0.4500    3.3240 c1        1 0C9     -0.107000
      8 C08         2.8600   -0.1630    3.1400 c1        1 0C9     -0.132000
      9 C09         2.1080   -0.8960    2.2030 c1        1 0C9      0.016000
     10 C10         2.7400   -1.9330    1.4410 c1        1 0C9     -0.149833
     11 C11         6.3410   -1.7670    2.7700 c1        1 0C9      0.357000
     12 C12         0.2710    0.3230    1.1240 c1        1 0C9      0.170000
     13 C13        -1.4880    1.2930   -0.0860 c2        1 0C9      0.210000
     14 C14        -0.6720    2.2630   -0.4520 c2        1 0C9     -0.354000
     15 C15         0.6530    2.2610   -0.0160 c1        1 0C9     -0.002000
     16 C16        -3.2700    0.9490   -1.8100 c1        1 0C9      0.093000
     17 C17        -3.1950    1.8930   -2.8400 c1        1 0C9     -0.149833
     18 C18        -3.5340    1.5330   -4.1460 c1        1 0C9     -0.149833
     19 C19        -3.9360    0.2750   -4.4180 c1        1 0C9     -0.149833
     20 C20        -4.0130   -0.6750   -3.3910 c1        1 0C9     -0.149833
     21 C21        -3.6740   -0.3180   -2.0810 c1        1 0C9     -0.137000
     22 C22        -3.8670   -1.3080   -0.9580 c2        1 0C9      0.361000
     23 O23        -3.1180   -2.3160   -0.8740 o         1 0C9     -0.564000
     24 O24        -4.8550   -1.1830   -0.1630 o         1 0C9     -0.564000
     25 O25         7.1600   -1.1520    2.1420 o         1 0C9     -0.576000
     26 O26         6.7020   -2.5440    3.6570 os        1 0C9     -0.577000
     27 H1          0.0180   -1.1220    2.6070 hn        1 0C9      0.217000
     28 H2         -3.5900    1.6770    0.0250 hn        1 0C9      0.301000
     29 H3          4.5680   -2.9330    1.0970 ha        1 0C9      0.122833
     30 H4          4.7730    0.0860    4.0090 ha        1 0C9      0.147000
     31 H5          2.4180    0.6050    3.6770 ha        1 0C9      0.131000
     32 H6          2.2470   -2.4240    0.8130 ha        1 0C9      0.122833
     33 H7         -1.0020    2.9970   -1.0410 ha        1 0C9      0.153000
     34 H8          1.3370    2.9660   -0.4070 ha        1 0C9      0.141000
     35 H9         -2.9390    2.7090   -2.6670 ha        1 0C9      0.122833
     36 H10        -3.5610    2.2470   -4.8790 ha        1 0C9      0.122833
     37 H11        -4.1620    0.0060   -5.3940 ha        1 0C9      0.122833
     38 H12        -4.2810   -1.5110   -3.5730 ha        1 0C9      0.122833
@<TRIPOS>BOND
     1    1    9 1   
     2    1   12 1   
     3    1   27 1   
     4    2   13 1   
     5    3   12 1   
     6    4   13 1   
     7    4   16 1   
     8    4   28 1   
     9    5   10 1   
    10    5   29 1   
    11    6    7 1   
    12    7   30 1   
    13    8    9 1   
    14    8   31 1   
    15   10   32 1   
    16   11   25 1   
    17   13   14 1   
    18   14   15 1   
    19   14   33 1   
    20   15   34 1   
    21   16   21 1   
    22   17   18 1   
    23   17   35 1   
    24   18   36 1   
    25   19   20 1   
    26   19   37 1   
    27   20   38 1   
    28   21   22 1   
    29   22   23 1   
    30   22   24 1   
@<TRIPOS>SUBSTRUCTURE
     1 0C9         1 TEMP              0 ****  ****    0 ROOT
