@<TRIPOS>MOLECULE
0C9
   38    39     1     0     0
SMALL
bcc


@<TRIPOS>ATOM
      1 N01         2.4630   -0.7770   -2.7740 n2        1 0C9     -0.203000
      2 N02         0.2250    0.0170   -3.1460 n2        1 0C9     -0.239000
      3 N03         2.0910    1.4430   -3.7120 n3        1 0C9     -0.185000
      4 C05         3.1530   -0.5990    0.8260 c2        1 0C9      0.010000
      5 C06         2.9410    0.0290    2.1140 c2        1 0C9     -0.132000
      6 C07         1.9180    0.8080    2.3730 c1        1 0C9     -0.062000
      7 C08         0.9090    1.5700    2.6680 c2        1 0C9     -0.232000
      8 C09         2.8260   -0.9860   -1.5570 c2        1 0C9      0.055000
      9 C10         2.4940   -0.3080   -0.3150 c2        1 0C9     -0.285000
     10 C12         1.5500    0.2530   -3.1720 c2        1 0C9      0.124000
     11 C13        -0.6270    0.9790   -3.7170 c2        1 0C9      0.187000
     12 C14        -0.0870    2.1510   -4.3040 c2        1 0C9     -0.358000
     13 C15         1.3010    2.3810   -4.2850 c1        1 0C9     -0.152000
     14 C16        -2.9570    1.6030   -4.1790 c2        1 0C9     -0.064000
     15 C17        -3.0460    2.9420   -3.6000 c2        1 0C9     -0.074000
     16 C18        -4.1710    3.6550   -3.4910 c2        1 0C9     -0.262000
     17 C19        -5.4250    0.9090   -6.8070 c1        1 0C9     -0.091000
     18 C20        -4.8280    1.8170   -5.9190 c2        1 0C9     -0.491000
     19 C21        -3.8010    1.1600   -5.1590 c2        1 0C9     -0.042000
     20 C22        -3.8410   -0.2580   -5.6640 c2        1 0C9      0.278000
     21 O23        -4.8340   -0.3400   -6.6390 os        1 0C9     -0.227000
     22 O24        -3.2310   -1.2850   -5.3640 o         1 0C9     -0.357000
     23 O25         4.6850   -1.3460    2.9980 o         1 0C9     -0.558500
     24 O26         4.1270    0.4730    4.1660 o         1 0C9     -0.558500
     25 H1          3.5450   -1.8340   -1.4550 h4        1 0C9      0.137000
     26 H2         -2.2730   -0.2240   -3.5320 hn        1 0C9      0.245000
     27 H3          1.6930    0.4480   -0.3450 ha        1 0C9      0.145000
     28 H4          0.9400    2.6590    2.5310 ha        1 0C9      0.117000
     29 H5         -0.0290    1.1710    3.0750 ha        1 0C9      0.117000
     30 H6          3.9520   -1.3700    0.8460 ha        1 0C9      0.158000
     31 H7         -0.7290    2.8860   -4.8020 ha        1 0C9      0.159000
     32 H8          3.0750    1.5770   -3.7080 hn        1 0C9      0.241000
     33 H9         -2.1000    3.3540   -3.2010 ha        1 0C9      0.119000
     34 H10        -4.1690    4.6590   -3.0490 ha        1 0C9      0.104500
     35 H11        -5.1490    3.2910   -3.8280 ha        1 0C9      0.104500
     36 H12        -5.0640    2.8710   -5.8500 ha        1 0C9      0.131000
     37 C11         3.9970   -0.3020    3.1830 c2        1 0C9      0.371000
     38 N04        -1.9880    0.7350   -3.6010 n3        1 0C9     -0.229000
@<TRIPOS>BOND
     1    1    8 1   
     2    1   10 1   
     3    2   10 1   
     4    2   11 1   
     5    3   10 1   
     6    3   13 1   
     7    3   32 1   
     8    4    5 1   
     9    4    9 1   
    10    4   30 1   
    11    5    6 1   
    12    5   37 1   
    13    6    7 1   
    14    7   28 1   
    15    7   29 1   
    16    8    9 1   
    17    8   25 1   
    18    9   27 1   
    19   11   12 1   
    20   11   38 1   
    21   12   13 1   
    22   12   31 1   
    23   14   15 1   
    24   14   19 1   
    25   14   38 1   
    26   15   16 1   
    27   15   33 1   
    28   16   34 1   
    29   16   35 1   
    30   17   18 1   
    31   17   21 1   
    32   18   19 1   
    33   18   36 1   
    34   19   20 1   
    35   20   21 1   
    36   20   22 1   
    37   23   37 1   
    38   24   37 1   
    39   26   38 1   
@<TRIPOS>SUBSTRUCTURE
     1 0C9         1 TEMP              0 ****  ****    0 ROOT
