@<TRIPOS>MOLECULE
0CA
   73    77     1     0     0
SMALL
bcc


@<TRIPOS>ATOM
      1 C13         0.8960    2.5510    1.3560 ca        1 0CA     -0.046600
      2 C30        -3.1100   -3.6680    0.8270 ca        1 0CA     -0.155900
      3 C14         1.9190    1.7820    0.7980 ca        1 0CA     -0.192000
      4 C16        -2.3280    3.2750   -0.2360 cc        1 0CA     -0.136300
      5 C21        -3.6990    3.8170   -0.4410 c3        1 0CA      0.006500
      6 C22        -3.0760    0.5030   -1.6570 ca        1 0CA     -0.113300
      7 C23        -4.4670    0.3610   -1.8990 ca        1 0CA     -0.108000
      8 C24        -5.1520   -0.7330   -1.4290 ca        1 0CA     -0.136000
      9 C25        -2.4030   -0.4650   -0.9450 ca        1 0CA     -0.087000
     10 C26        -3.0900   -1.6010   -0.4400 ca        1 0CA     -0.043000
     11 C27        -4.4810   -1.7380   -0.6820 ca        1 0CA     -0.028000
     12 C11         1.7710    1.1880   -0.4650 ca        1 0CA      0.106100
     13 N9          7.5880   -1.2680   -1.5460 n2        1 0CA     -0.826100
     14 C2          4.6850   -2.5920   -0.0630 c3        1 0CA      0.179300
     15 C3          3.6820   -1.7310   -0.8280 c3        1 0CA     -0.124400
     16 C4          3.5850   -0.3460   -0.1900 c3        1 0CA      0.143100
     17 C5          4.9670    0.2880   -0.0670 c3        1 0CA     -0.124400
     18 C6          5.9250   -0.6570    0.6530 c3        1 0CA      0.179300
     19 C31        -2.4130   -2.5970    0.3170 ca        1 0CA     -0.062000
     20 N33        -1.4680   -5.4060    1.1190 n2        1 0CA     -0.823100
     21 N34        -2.9280   -4.8140    2.9740 nh        1 0CA     -0.947800
     22 C29        -4.5000   -3.8110    0.5830 ca        1 0CA     -0.110000
     23 C28        -5.1670   -2.8690   -0.1600 ca        1 0CA     -0.129000
     24 N15        -1.6470    2.5270   -1.2560 na        1 0CA     -0.071400
     25 C38        -4.3010    4.2610    0.8790 c3        1 0CA     -0.086600
     26 C39        -3.6890    4.9700   -1.4270 c3        1 0CA     -0.086600
     27 C17        -1.5020    3.4470    0.8610 cd        1 0CA     -0.091200
     28 C18        -0.2700    2.7220    0.6100 ca        1 0CA     -0.090800
     29 C35         1.0800    3.1530    2.7460 c         1 0CA      0.911200
     30 O36         2.1250    2.8330    3.3800 o         1 0CA     -0.825800
     31 O37         0.1860    3.9230    3.1940 o         1 0CA     -0.825800
     32 C19        -0.4100    2.1180   -0.6920 ca        1 0CA     -0.053200
     33 C12         0.6100    1.3330   -1.2370 ca        1 0CA     -0.203000
     34 O10         2.7840    0.4530   -1.0740 os        1 0CA     -0.349900
     35 N1          6.0090   -2.0060    0.1040 nh        1 0CA     -0.693600
     36 C8          7.0780   -3.6900   -1.3730 c3        1 0CA     -0.183400
     37 H1          2.8460    1.6610    1.3820 ha        1 0CA      0.161000
     38 H2         -4.3520    2.9940   -0.8620 hc        1 0CA      0.036700
     39 H3         -4.9930    1.1470   -2.4630 ha        1 0CA      0.128000
     40 H4         -6.2300   -0.8440   -1.6130 ha        1 0CA      0.125000
     41 H5         -1.3230   -0.3560   -0.7430 ha        1 0CA      0.165000
     42 H9          4.2910   -2.7650    0.9800 h1        1 0CA      0.055950
     43 H10         4.7650   -3.5940   -0.5670 h1        1 0CA      0.055950
     44 H11         3.9870   -1.6250   -1.9000 hc        1 0CA      0.064200
     45 H12         2.6790   -2.2270   -0.8060 hc        1 0CA      0.064200
     46 H13         3.1070   -0.4320    0.8250 h1        1 0CA      0.067700
     47 H14         5.3550    0.5390   -1.0880 hc        1 0CA      0.064200
     48 H15         4.8890    1.2440    0.5130 hc        1 0CA      0.064200
     49 H16         6.9480   -0.1940    0.6870 h1        1 0CA      0.055950
     50 H17         5.5720   -0.7870    1.7180 h1        1 0CA      0.055950
     51 H19        -1.3310   -2.4870    0.4890 ha        1 0CA      0.153000
     52 H20        -1.0160   -6.0690    1.7140 hn        1 0CA      0.375400
     53 H21        -3.4530   -4.0270    3.2830 hn        1 0CA      0.393300
     54 H22        -2.2950   -5.1580    3.6610 hn        1 0CA      0.393300
     55 H23        -5.0270   -4.6860    0.9920 ha        1 0CA      0.136000
     56 H24        -6.2440   -2.9710   -0.3600 ha        1 0CA      0.127000
     57 H25        -1.5990    1.3440   -2.9600 h1        1 0CA      0.057200
     58 H26        -3.0930    2.3740   -2.7300 h1        1 0CA      0.057200
     59 H27        -3.7230    5.1160    1.3060 hc        1 0CA      0.034033
     60 H28        -5.3580    4.5870    0.7240 hc        1 0CA      0.034033
     61 H29        -4.2840    3.4230    1.6160 hc        1 0CA      0.034033
     62 H30        -3.0390    5.7970   -1.0520 hc        1 0CA      0.034033
     63 H31        -3.2960    4.6360   -2.4170 hc        1 0CA      0.034033
     64 H32        -4.7240    5.3640   -1.5670 hc        1 0CA      0.034033
     65 H33        -1.6750    4.0190    1.7750 ha        1 0CA      0.196000
     66 H35         0.5330    0.8640   -2.2240 ha        1 0CA      0.128000
     67 H37         8.0940   -3.8660   -1.8020 hc        1 0CA      0.049700
     68 H38         6.9540   -4.3650   -0.4920 hc        1 0CA      0.049700
     69 H39         6.3160   -3.9580   -2.1450 hc        1 0CA      0.049700
     70 H6          8.2590   -1.5830   -2.2150 hn        1 0CA      0.378400
     71 C20        -2.3520    1.7070   -2.1990 c3        1 0CA      0.078600
     72 C7          6.9120   -2.2270   -0.9860 c2        1 0CA      0.588200
     73 C32        -2.4080   -4.6950    1.6620 ce        1 0CA      0.648800
@<TRIPOS>BOND
     1    1    3 ar  
     2    1   28 ar  
     3    1   29 1   
     4    2   19 ar  
     5    2   22 ar  
     6    2   73 1   
     7    3   12 ar  
     8    3   37 1   
     9    4    5 1   
    10    4   24 1   
    11    4   27 2   
    12    5   25 1   
    13    5   26 1   
    14    5   38 1   
    15    6    7 ar  
    16    6    9 ar  
    17    6   71 1   
    18    7    8 ar  
    19    7   39 1   
    20    8   11 ar  
    21    8   40 1   
    22    9   10 ar  
    23    9   41 1   
    24   10   11 ar  
    25   10   19 ar  
    26   11   23 ar  
    27   12   33 ar  
    28   12   34 1   
    29   13   70 1   
    30   13   72 2   
    31   14   15 1   
    32   14   35 1   
    33   14   42 1   
    34   14   43 1   
    35   15   16 1   
    36   15   44 1   
    37   15   45 1   
    38   16   17 1   
    39   16   34 1   
    40   16   46 1   
    41   17   18 1   
    42   17   47 1   
    43   17   48 1   
    44   18   35 1   
    45   18   49 1   
    46   18   50 1   
    47   19   51 1   
    48   20   52 1   
    49   20   73 2   
    50   21   53 1   
    51   21   54 1   
    52   21   73 1   
    53   22   23 ar  
    54   22   55 1   
    55   23   56 1   
    56   24   32 1   
    57   24   71 1   
    58   25   59 1   
    59   25   60 1   
    60   25   61 1   
    61   26   62 1   
    62   26   63 1   
    63   26   64 1   
    64   27   28 1   
    65   27   65 1   
    66   28   32 ar  
    67   29   30 1   
    68   29   31 1   
    69   32   33 ar  
    70   33   66 1   
    71   35   72 1   
    72   36   67 1   
    73   36   68 1   
    74   36   69 1   
    75   36   72 1   
    76   57   71 1   
    77   58   71 1   
@<TRIPOS>SUBSTRUCTURE
     1 0CA         1 TEMP              0 ****  ****    0 ROOT
