@<TRIPOS>MOLECULE
0CA
   73    63     1     0     0
SMALL
bcc


@<TRIPOS>ATOM
      1 C13        -0.7570   -0.4770   -3.1330 c1        1 0CA     -0.022000
      2 C30        -2.5960    2.8460    6.6830 c1        1 0CA     -0.128000
      3 C14         0.6380   -0.5040   -3.1360 c1        1 0CA     -0.202000
      4 C16        -2.9400   -0.6270   -0.2500 c1        1 0CA     -0.052000
      5 C21        -4.4810   -0.9310    0.0300 c2        1 0CA     -0.037000
      6 C22        -1.9060    0.5680    2.4310 c1        1 0CA     -0.090500
      7 C23        -2.7190    1.5060    1.7950 c1        1 0CA     -0.090500
      8 C24        -3.3340    2.5190    2.5380 c2        1 0CA     -0.122500
      9 C25        -1.7050    0.6390    3.8060 c2        1 0CA     -0.122500
     10 C26        -2.3340    1.6750    4.5710 c1        1 0CA     -0.036500
     11 C27        -3.1300    2.5930    3.9490 c1        1 0CA     -0.036500
     12 C11         1.3430   -0.5590   -1.9190 c1        1 0CA      0.066000
     13 N9          7.3370   -1.6390   -6.2280 n1        1 0CA     -0.314000
     14 C2          5.7960   -0.1960   -3.5930 c3        1 0CA     -0.045500
     15 C3          4.7890   -0.1840   -2.4320 c3        1 0CA     -0.176500
     16 C4          3.5200   -0.8380   -2.7850 c3        1 0CA      0.032000
     17 C5          3.7260   -2.2080   -3.3590 c3        1 0CA     -0.176500
     18 C6          4.7270   -2.2130   -4.5090 c3        1 0CA     -0.045500
     19 C7          7.2400   -1.8950   -4.8920 c1        1 0CA      0.095000
     20 C31        -2.0580    1.7960    5.9570 c1        1 0CA     -0.094500
     21 C32        -2.3780    3.1440    8.2230 c2        1 0CA      0.123000
     22 N33        -1.4070    3.9210    8.6050 n1        1 0CA     -0.318000
     23 N34        -3.2690    2.5480    9.2180 n3        1 0CA     -0.335000
     24 C29        -3.4030    3.7790    6.0550 c1        1 0CA     -0.127000
     25 C28        -3.6760    3.6610    4.6850 c1        1 0CA     -0.094500
     26 C20        -1.5030   -0.7540    1.7510 c2        1 0CA      0.013000
     27 N15        -1.6820   -0.6340    0.3040 n3        1 0CA     -0.166000
     28 C38        -5.3340    0.0010   -0.7930 c3        1 0CA     -0.205000
     29 C39        -4.8010   -2.4110   -0.3610 c3        1 0CA     -0.205000
     30 C17        -2.8020   -0.5470   -1.6250 c1        1 0CA     -0.092000
     31 C18        -1.4590   -0.5040   -1.9140 c1        1 0CA     -0.092000
     32 C35        -1.4570   -0.0790   -4.4490 c1        1 0CA      0.360000
     33 O36        -1.7900    1.0920   -4.6390 os        1 0CA     -0.556000
     34 O37        -1.5890   -0.9330   -5.3790 o         1 0CA     -0.562000
     35 C19        -0.7650   -0.5580   -0.7210 c1        1 0CA     -0.052000
     36 C12         0.6580   -0.5860   -0.7260 c1        1 0CA     -0.209000
     37 O10         2.7040   -0.9520   -1.6050 os        1 0CA     -0.232000
     38 N1          5.9910   -1.5540   -4.1570 n2        1 0CA     -0.294000
     39 C8          8.3880   -2.5270   -4.1650 c3        1 0CA     -0.175000
     40 H1          1.1200   -0.4850   -3.9730 ha        1 0CA      0.161000
     41 H2         -4.6780   -0.7930    0.9970 ha        1 0CA      0.076000
     42 H3         -2.8570    1.4570    0.8510 DU        1 0CA      0.163750
     43 H4         -3.9290    3.1690    2.0900 ha        1 0CA      0.134000
     44 H5         -1.1170   -0.0420    4.2650 ha        1 0CA      0.134000
     45 H9          5.4700    0.3900   -4.2970 h1        1 0CA      0.075500
     46 H10         6.6270    0.1320   -3.2830 h1        1 0CA      0.075500
     47 H11         4.6050    0.7520   -2.1750 hc        1 0CA      0.102750
     48 H12         5.1770   -0.6430   -1.6750 hc        1 0CA      0.102750
     49 H13         3.0730   -0.3080   -3.4140 h1        1 0CA      0.109000
     50 H14         4.0470   -2.7900   -2.6640 hc        1 0CA      0.102750
     51 H15         2.8720   -2.5460   -3.6840 hc        1 0CA      0.102750
     52 H16         4.3440   -1.7620   -5.2450 h1        1 0CA      0.075500
     53 H17         4.9170   -3.1620   -4.7740 h1        1 0CA      0.075500
     54 H19        -1.5690    1.1570    6.3790 ha        1 0CA      0.139000
     55 H20        -0.8620    4.2860    7.9980 DU        1 0CA      0.163750
     56 H21        -3.9930    2.0700    8.9510 hn        1 0CA      0.193000
     57 H22        -3.1070    2.6810   10.1340 hn        1 0CA      0.193000
     58 H23        -3.7780    4.5170    6.5620 ha        1 0CA      0.132000
     59 H24        -4.2480    4.3640    4.2170 ha        1 0CA      0.139000
     60 H25        -0.5930   -0.9430    1.9410 h4        1 0CA      0.098000
     61 H26        -2.0860   -1.5050    2.1040 h4        1 0CA      0.098000
     62 H27        -5.5520   -0.4440   -1.7060 hc        1 0CA      0.073667
     63 H28        -6.1610    0.1870   -0.3170 hc        1 0CA      0.073667
     64 H29        -4.8620    0.8160   -0.9430 hc        1 0CA      0.073667
     65 H30        -5.5860   -2.7370    0.1730 hc        1 0CA      0.073667
     66 H31        -4.0390   -2.9610   -0.1770 hc        1 0CA      0.073667
     67 H32        -5.0190   -2.4570   -1.3350 hc        1 0CA      0.073667
     68 H33        -3.5290   -0.4720   -2.2690 DU        1 0CA      0.163750
     69 H35         1.1630   -0.6250    0.1440 ha        1 0CA      0.128000
     70 H37         8.8620   -1.8480   -3.6480 hc        1 0CA      0.092000
     71 H38         9.0210   -2.9460   -4.8330 hc        1 0CA      0.092000
     72 H39         8.0430   -3.2280   -3.5530 hc        1 0CA      0.092000
     73 H6          6.6370   -1.2580   -6.6690 DU        1 0CA      0.163750
@<TRIPOS>BOND
     1    1    3 1   
     2    1   32 1   
     3    2   21 1   
     4    2   24 1   
     5    3   40 1   
     6    4   27 1   
     7    4   30 1   
     8    5   28 1   
     9    5   29 1   
    10    5   41 1   
    11    6    7 1   
    12    6    9 1   
    13    7    8 1   
    14    8   11 1   
    15    8   43 1   
    16    9   10 1   
    17    9   44 1   
    18   10   20 1   
    19   11   25 1   
    20   12   36 1   
    21   12   37 1   
    22   13   19 1   
    23   14   15 1   
    24   14   38 1   
    25   14   45 1   
    26   14   46 1   
    27   15   16 1   
    28   15   47 1   
    29   15   48 1   
    30   16   17 1   
    31   16   37 1   
    32   16   49 1   
    33   17   18 1   
    34   17   50 1   
    35   17   51 1   
    36   18   38 1   
    37   18   52 1   
    38   18   53 1   
    39   19   39 1   
    40   20   54 1   
    41   21   22 1   
    42   21   23 1   
    43   23   56 1   
    44   23   57 1   
    45   24   58 1   
    46   25   59 1   
    47   26   27 1   
    48   26   60 1   
    49   26   61 1   
    50   27   35 1   
    51   28   62 1   
    52   28   63 1   
    53   28   64 1   
    54   29   65 1   
    55   29   66 1   
    56   29   67 1   
    57   30   31 1   
    58   31   35 1   
    59   32   34 1   
    60   36   69 1   
    61   39   70 1   
    62   39   71 1   
    63   39   72 1   
@<TRIPOS>SUBSTRUCTURE
     1 0CA         1 TEMP              0 ****  ****    0 ROOT
