@<TRIPOS>MOLECULE
0CA
   73    71     1     0     0
SMALL
bcc


@<TRIPOS>ATOM
      1 C13        -0.8200   -0.3230   -1.5550 ca        1 0CA     -0.057600
      2 C30         1.2650    6.8820    8.0170 ce        1 0CA     -0.279600
      3 C14         0.3800   -0.9810   -1.8680 ca        1 0CA     -0.151000
      4 C16        -1.8970    0.6970    1.7890 cc        1 0CA     -0.167100
      5 C21        -2.8970   -0.9360    6.4330 c1        1 0CA     -0.111100
      6 C22         0.3550    2.2530    6.9180 ca        1 0CA     -0.126000
      7 C23         0.2590    2.4400    5.5380 ca        1 0CA     -0.127000
      8 C24         0.5970    3.6700    4.9850 ca        1 0CA     -0.108000
      9 C25         0.7870    3.2920    7.7350 ca        1 0CA     -0.126000
     10 C26         1.1210    4.5460    7.1940 ca        1 0CA     -0.058800
     11 C27         1.0300    4.7330    5.8000 ca        1 0CA      0.030000
     12 C11         1.3050   -1.2860   -0.8680 ca        1 0CA      0.079100
     13 N9          7.2470   -3.5500   -3.0640 n2        1 0CA     -0.807100
     14 C2          6.6130   -0.3340   -4.1950 c1        1 0CA     -0.119500
     15 C3          6.5850    0.2130    0.9010 c3        1 0CA     -0.113800
     16 C4          3.1240   -1.6470   -2.3100 c2        1 0CA      0.059100
     17 C5          4.1690   -2.4000   -2.6940 c2        1 0CA     -0.283200
     18 C6          4.9190   -2.1140   -3.9480 c3        1 0CA      0.199000
     19 C31         1.5630    5.5810    8.1170 cf        1 0CA     -0.073200
     20 N33         1.7260    7.6970   10.3120 n2        1 0CA     -0.848100
     21 N34         2.1430    9.1120    8.4630 nh        1 0CA     -0.891800
     22 C29         1.6730    6.9630    4.6110 c1        1 0CA     -0.153500
     23 C28         1.3790    5.9500    5.1800 cg        1 0CA     -0.112000
     24 N15        -0.6080    0.0990    2.0730 na        1 0CA      0.034300
     25 C38        -2.4960    0.1850    5.6470 c3        1 0CA     -0.059000
     26 C39        -3.2320   -1.8790    7.0900 c1        1 0CA     -0.203500
     27 C17        -2.1790    0.6430    0.4510 cd        1 0CA     -0.061200
     28 C18        -1.0560   -0.0120   -0.2240 ca        1 0CA     -0.073800
     29 C35        -1.8000    0.0310   -2.6750 c         1 0CA      0.915200
     30 O36        -1.4320   -0.2180   -3.8550 o         1 0CA     -0.814300
     31 O37        -2.9020    0.5530   -2.3540 o         1 0CA     -0.814300
     32 C19        -0.0980   -0.3440    0.7960 ca        1 0CA     -0.115200
     33 C12         1.0990   -0.9770    0.4910 ca        1 0CA     -0.148000
     34 O10         2.4850   -1.9940   -1.1320 os        1 0CA     -0.260200
     35 N1          6.2350   -1.5000   -3.7330 nh        1 0CA     -0.430400
     36 C8          8.0920   -1.4090   -2.0820 c3        1 0CA     -0.186400
     37 H1          0.5570   -1.2480   -2.9230 ha        1 0CA      0.172000
     38 H2         -2.4680    1.0920    2.6320 h4        1 0CA      0.173000
     39 H3          0.0890    1.2800    7.3580 ha        1 0CA      0.139000
     40 H4          0.5280    3.8190    3.8960 ha        1 0CA      0.148000
     41 H5          0.8640    3.1390    8.8220 ha        1 0CA      0.128000
     42 H9          5.8540    0.2250   -4.7820 ha        1 0CA     -0.005500
     43 H10         6.8290    0.9570    0.1110 hc        1 0CA      0.028700
     44 H11         6.2120    0.7410    1.8050 hc        1 0CA      0.028700
     45 H12         7.4970   -0.3670    1.1600 hc        1 0CA      0.028700
     46 H13         2.7350   -0.7720   -2.8540 h4        1 0CA      0.154000
     47 H14         5.7990   -0.4790    0.5260 hc        1 0CA      0.028700
     48 H15         4.4980   -3.2700   -2.1090 ha        1 0CA      0.147000
     49 H16         4.3280   -1.4120   -4.6060 h1        1 0CA      0.066700
     50 H17         5.0580   -3.0810   -4.5130 h1        1 0CA      0.066700
     51 H19         2.1720    5.2060    8.9610 ha        1 0CA      0.126000
     52 H20         1.3280    6.8270   10.5930 hn        1 0CA      0.390400
     53 H21         2.6240    9.7240    9.0850 hn        1 0CA      0.394300
     54 H22         2.5950    9.0090    7.5820 hn        1 0CA      0.394300
     55 H23         0.6520    7.2800    7.1900 ha        1 0CA      0.158000
     56 H24         1.9290    7.8570    4.1050 ha        1 0CA      0.164500
     57 H25         0.9130   -0.4760    3.3200 ha        1 0CA     -0.007500
     58 H26        -0.0800    1.6080    4.8840 ha        1 0CA      0.192000
     59 H27        -2.0490    0.9830    6.2970 hc        1 0CA      0.070367
     60 H28        -1.7220   -0.1090    4.8800 hc        1 0CA      0.070367
     61 H29        -3.3760    0.6220    5.1040 hc        1 0CA      0.070367
     62 H30        -3.5270   -2.7160    7.6660 ha        1 0CA      0.155500
     63 H31        -4.2780    2.2560    3.7050 ha        1 0CA      0.001000
     64 H32        -4.6100    1.7330    3.4310 ha        1 0CA      0.001000
     65 H33        -3.0570    0.9960   -0.1000 ha        1 0CA      0.211000
     66 H35         1.8490   -1.2410    1.2460 ha        1 0CA      0.141000
     67 H37         7.4870   -0.9690   -1.2490 hc        1 0CA      0.067033
     68 H38         8.5330   -0.5720   -2.6810 hc        1 0CA      0.067033
     69 H39         8.9180   -2.0210   -1.6440 hc        1 0CA      0.067033
     70 H6          7.9410   -3.9800   -2.4910 hn        1 0CA      0.397400
     71 C20        -0.0800    0.0180    3.2600 c1        1 0CA     -0.137500
     72 C7          7.2000   -2.2610   -2.9580 c2        1 0CA      0.634200
     73 C32         1.7380    7.8790    9.0220 ce        1 0CA      0.633500
@<TRIPOS>BOND
     1    1    3 ar  
     2    1   28 ar  
     3    1   29 1   
     4    2   19 2   
     5    2   55 1   
     6    2   73 1   
     7    3   12 ar  
     8    3   37 1   
     9    4   24 1   
    10    4   27 2   
    11    4   38 1   
    12    5   25 1   
    13    5   26 3   
    14    6    7 ar  
    15    6    9 ar  
    16    6   39 1   
    17    7    8 ar  
    18    7   58 1   
    19    8   11 ar  
    20    8   40 1   
    21    9   10 ar  
    22    9   41 1   
    23   10   11 ar  
    24   10   19 1   
    25   11   23 1   
    26   12   33 ar  
    27   12   34 1   
    28   13   70 1   
    29   13   72 2   
    30   14   35 3   
    31   14   42 1   
    32   15   43 1   
    33   15   44 1   
    34   15   45 1   
    35   15   47 1   
    36   16   17 2   
    37   16   34 1   
    38   16   46 1   
    39   17   18 1   
    40   17   48 1   
    41   18   35 1   
    42   18   49 1   
    43   18   50 1   
    44   19   51 1   
    45   20   52 1   
    46   20   73 2   
    47   21   53 1   
    48   21   54 1   
    49   21   73 1   
    50   22   23 3   
    51   22   56 1   
    52   24   32 1   
    53   24   71 3   
    54   25   59 1   
    55   25   60 1   
    56   25   61 1   
    57   26   62 1   
    58   27   28 1   
    59   27   65 1   
    60   28   32 ar  
    61   29   30 1   
    62   29   31 1   
    63   32   33 ar  
    64   33   66 1   
    65   35   72 1   
    66   36   67 1   
    67   36   68 1   
    68   36   69 1   
    69   36   72 1   
    70   57   71 1   
    71   63   64 1   
@<TRIPOS>SUBSTRUCTURE
     1 0CA         1 TEMP              0 ****  ****    0 ROOT
