@<TRIPOS>MOLECULE
0CB
   69    84     1     0     0
SMALL
bcc


@<TRIPOS>ATOM
      1 C13         0.0000    0.0000    0.0000 c3        1 0CB      0.149000
      2 C14         1.3570    0.0000    0.0000 c2        1 0CB     -0.280000
      3 C16         1.4160   -0.0000    2.4210 c2        1 0CB      0.306000
      4 C1         -2.1080   -0.0010    1.2450 c3        1 0CB     -0.230000
      5 C2         -2.7610   -0.0000    2.4400 c2        1 0CB     -0.221000
      6 C3         -2.0570   -0.0000    3.6420 c3        1 0CB     -0.039000
      7 C4         -0.6960    0.0000    3.6560 c2        1 0CB     -0.026000
      8 C5          0.0130   -0.0000    2.4420 c2        1 0CB     -0.393000
      9 C6         -0.7040   -0.0000    1.2180 c3        1 0CB      0.160000
     10 O36        -5.3200   -1.3020    4.9860 o         1 0CB     -0.804500
     11 S32        -4.2820   -2.2660    5.0960 s6        1 0CB      2.225000
     12 O38        -4.3120   -3.2630    6.1080 o         1 0CB     -0.804500
     13 C34        -3.9320   -3.0110    3.4800 c3        1 0CB     -0.485000
     14 C53        -5.0040   -4.0150    3.1450 c2        1 0CB      0.475000
     15 O57        -4.9520   -4.6940    1.9890 o         1 0CB     -0.537500
     16 O54        -5.9130   -4.2080    3.9190 o         1 0CB     -0.537500
     17 N30        -2.9310   -1.3740    5.4410 n3        1 0CB     -0.492000
     18 C28        -2.8130   -0.0000    4.9450 c3        1 0CB     -0.009000
     19 C15         2.0780    0.0000    1.2070 c2        1 0CB      0.049000
     20 N26         4.2240   -0.0000   -0.0300 nz        1 0CB      0.161000
     21 N24         4.2320   -0.0000    2.2920 n2        1 0CB     -0.022000
     22 C40        -1.9010   -1.9310    6.2090 c2        1 0CB      0.123000
     23 C46        -1.7120   -3.3060    6.2220 c3        1 0CB     -0.011000
     24 C45        -0.6960   -3.8560    6.9780 c2        1 0CB     -0.264000
     25 C44         0.1350   -3.0340    7.7250 c2        1 0CB      0.075000
     26 C43        -0.0530   -1.6600    7.7120 c3        1 0CB     -0.474000
     27 C42        -1.0650   -1.1080    6.9520 c2        1 0CB     -0.402000
     28 O59         1.1360   -3.5760    8.4700 os        1 0CB     -0.082000
     29 C61         1.9130   -2.6770    9.2660 DU        1 0CB      0.029000
     30 C67         3.0190   -2.0620    8.4050 DU        1 0CB     -0.517000
     31 C66         3.8270   -1.0730    9.2510 c3        1 0CB     -0.645000
     32 N65         4.3120   -1.7660   10.4530 n3        1 0CB      0.552000
     33 C74         5.6440   -1.7550   10.7740 c3        1 0CB      0.046000
     34 C76         6.1420   -2.5640   11.9440 c3        1 0CB     -0.316000
     35 N82         6.4730   -1.0520   10.0750 n2        1 0CB     -0.109000
     36 C64         3.3410   -2.4690   11.3030 DU        1 0CB     -0.363000
     37 C63         2.5380   -3.4410   10.4340 c3        1 0CB     -0.556000
     38 H1          1.0210   -0.0000    0.3620 hc        1 0CB     -0.044000
     39 H2          0.3870   -0.0000   -0.4810 DU        1 0CB      0.129000
     40 H3          1.5680    0.0010    1.3490 ha        1 0CB     -0.164000
     41 H4         -1.1450    0.0320    1.7400 DU        1 0CB      0.136000
     42 H5         -2.7340    0.0750    1.3590 DU        1 0CB      0.232000
     43 H6         -1.6670    0.1310    3.1940 DU        1 0CB      0.135000
     44 H7         -3.1980   -2.2280    3.6300 h1        1 0CB      0.029000
     45 H8         -2.9700   -3.5070    3.5120 h1        1 0CB      0.029000
     46 H10        -3.1700   -0.7250    4.2230 h1        1 0CB      0.203500
     47 H11        -2.2810    0.6020    5.6710 h1        1 0CB      0.203500
     48 H12         3.3670    0.0440    0.4850 DU        1 0CB      0.355000
     49 H13         5.2210   -0.0130    0.0660 hn        1 0CB      0.117500
     50 H14         4.1290   -0.2760    1.3360 DU        1 0CB     -0.013000
     51 H15        -0.8750   -2.8000    5.7560 hc        1 0CB      0.158000
     52 H16        -1.5390   -3.9030    6.3000 DU        1 0CB      0.212500
     53 H17        -0.2110   -2.7060    7.4810 hc        1 0CB      0.251000
     54 H18        -0.2230   -1.0630    7.6320 DU        1 0CB      0.212500
     55 H19         1.1890   -2.0690    8.7370 ha        1 0CB      0.260000
     56 H20         2.1410   -1.9730    9.0330 DU        1 0CB      0.367000
     57 H21         3.6730   -2.8460    8.0440 ha        1 0CB      0.161000
     58 H22         3.1960   -1.3070    8.4020 DU        1 0CB      0.251000
     59 H23         3.1940   -0.2430    9.5410 h1        1 0CB      0.085000
     60 H24         5.7180   -2.1480   11.0390 hc        1 0CB      0.040333
     61 H25         5.6540   -2.2280   12.8510 hc        1 0CB      0.040333
     62 H26         5.9180   -3.6120   11.7810 hc        1 0CB      0.040333
     63 H27         6.7700   -1.6020   10.8570 DU        1 0CB      0.167000
     64 H28         4.1520   -1.9220   10.8370 ha        1 0CB      0.050500
     65 H29         2.6700   -1.7500   11.7580 ha        1 0CB      0.050500
     66 H30         3.2070   -3.2310   11.2600 DU        1 0CB      0.235000
     67 H31         2.9780   -4.4240   10.3150 hc        1 0CB      0.161000
     68 C22         3.5580    0.0000    1.1770 DU        1 0CB      0.066000
     69 H263        3.9470    0.8230   -0.5260 hn        1 0CB      0.117500
@<TRIPOS>BOND
     1    1    2 1   
     2    1    9 1   
     3    1   38 1   
     4    1   39 1   
     5    2   19 1   
     6    2   39 1   
     7    3    8 1   
     8    3   19 1   
     9    3   40 1   
    10    4    5 1   
    11    4    9 1   
    12    4   41 1   
    13    4   42 1   
    14    5    6 1   
    15    5   42 1   
    16    6    7 1   
    17    6   18 1   
    18    6   43 1   
    19    7    8 1   
    20    7   43 1   
    21    8    9 1   
    22    9   41 1   
    23   10   11 1   
    24   11   12 1   
    25   11   13 1   
    26   11   17 1   
    27   13   14 1   
    28   13   44 1   
    29   13   45 1   
    30   14   15 1   
    31   14   16 1   
    32   17   18 1   
    33   17   22 1   
    34   18   46 1   
    35   18   47 1   
    36   19   68 1   
    37   20   48 1   
    38   20   49 1   
    39   20   68 1   
    40   20   69 1   
    41   21   50 1   
    42   21   68 1   
    43   22   23 1   
    44   22   27 1   
    45   23   24 1   
    46   23   51 1   
    47   23   52 1   
    48   24   25 1   
    49   24   52 1   
    50   25   26 1   
    51   25   28 1   
    52   26   27 1   
    53   26   53 1   
    54   26   54 1   
    55   27   54 1   
    56   28   29 1   
    57   29   30 1   
    58   29   37 1   
    59   29   55 1   
    60   29   56 1   
    61   30   31 1   
    62   30   56 1   
    63   30   57 1   
    64   30   58 1   
    65   31   32 1   
    66   31   58 1   
    67   31   59 1   
    68   32   33 1   
    69   32   36 1   
    70   33   34 1   
    71   33   35 1   
    72   33   63 1   
    73   34   60 1   
    74   34   61 1   
    75   34   62 1   
    76   35   63 1   
    77   36   37 1   
    78   36   64 1   
    79   36   65 1   
    80   36   66 1   
    81   37   66 1   
    82   37   67 1   
    83   48   68 1   
    84   50   68 1   
@<TRIPOS>SUBSTRUCTURE
     1 0CB         1 TEMP              0 ****  ****    0 ROOT
