@<TRIPOS>MOLECULE
0CB
   70    72     1     0     0
SMALL
bcc


@<TRIPOS>ATOM
      1 C13         0.4510    0.3650   -0.1550 c2        1 0CB     -0.022000
      2 C14         4.1980    0.0930    4.1490 c1        1 0CB     -0.205000
      3 C16         0.5260   -0.0230    3.5180 cu        1 0CB      0.114000
      4 C1         -1.8240   -0.3230    0.6980 c3        1 0CB     -0.201000
      5 C2         -2.6570   -0.6590    1.8400 c1        1 0CB     -0.006000
      6 C3         -2.2030   -0.7470    3.2390 c3        1 0CB     -0.175000
      7 C4         -0.8080   -0.3590    3.3220 cu        1 0CB      0.021000
      8 C5          0.0080   -0.0100    2.2240 cu        1 0CB      0.055000
      9 C6         -0.3620    0.0440    0.8670 c2        1 0CB     -0.159000
     10 O36        -3.4480   -3.2480    5.5220 o         1 0CB     -0.889000
     11 S32        -3.0430   -4.4750    5.0640 s6        1 0CB      2.789000
     12 O38        -2.4230   -5.4080    5.8360 o         1 0CB     -0.889000
     13 C34        -4.0180   -5.1240    3.7770 cy        1 0CB     -0.905000
     14 C53        -2.9980   -4.6520    2.7580 cv        1 0CB      0.347000
     15 O57        -2.0960   -4.0770    3.6430 os        1 0CB     -0.659000
     16 O54        -2.8270   -4.6430    1.5620 o         1 0CB     -0.205000
     17 N30        -3.0150   -0.1340    5.5520 n3        1 0CB     -0.306000
     18 C28        -3.1690    0.0740    4.1570 c3        1 0CB      0.021000
     19 C15         2.9450    0.1380    3.6590 c2        1 0CB     -0.345000
     20 N26         4.5120    0.0320    5.5610 n4        1 0CB     -0.016000
     21 N24         1.5970    0.2820    5.6760 n2        1 0CB     -0.244000
     22 C40        -2.1290    0.6390    6.3100 c2        1 0CB      0.085000
     23 C46        -1.8400    0.1560    7.7190 c3        1 0CB      0.003000
     24 C45        -0.9200   -0.9380    7.7240 c1        1 0CB     -0.235000
     25 C44        -0.1590   -1.8600    7.7690 c1        1 0CB     -0.033000
     26 C43        -1.1050    2.9360    5.5940 c2        1 0CB     -0.109000
     27 C42        -1.5840    1.7730    5.9000 c1        1 0CB     -0.320000
     28 O59         0.6360   -2.9160    7.7110 os        1 0CB     -0.125000
     29 C61         1.6780   -2.9290    8.7400 c3        1 0CB      0.032000
     30 C67         2.5620   -1.7000    8.6130 c3        1 0CB     -0.205500
     31 C66         3.7100   -4.2620    9.3420 c3        1 0CB     -0.053000
     32 N65         4.5640   -3.0880    9.2480 n3        1 0CB     -0.233000
     33 C74         5.5480   -3.1230    8.2100 c2        1 0CB      0.113000
     34 C76         6.4870   -4.3160    8.2860 c3        1 0CB     -0.232000
     35 N82         5.6670   -2.1810    7.3190 n2        1 0CB     -0.372000
     36 C64         3.8240   -1.8570    9.4610 c3        1 0CB     -0.053000
     37 C63         2.4470   -4.2170    8.4790 c3        1 0CB     -0.205500
     38 H1          1.5120    0.6240   -0.0070 ha        1 0CB      0.155000
     39 H2          0.0910    0.3810   -1.1960 ha        1 0CB      0.155000
     40 H3          2.8570    0.1740    2.5620 ha        1 0CB      0.146000
     41 H4         -2.3580    0.5230    0.1650 hc        1 0CB      0.182500
     42 H5         -1.9020   -1.2160    0.0000 hc        1 0CB      0.182500
     43 H6         -2.3130   -1.8460    3.5390 hc        1 0CB      0.212000
     44 H7         -5.0250   -4.6780    3.5990 h1        1 0CB      0.208000
     45 H8         -4.1600   -6.2320    3.7440 h1        1 0CB      0.208000
     46 H10        -4.2110   -0.2500    3.8610 h1        1 0CB      0.127500
     47 H11        -3.0400    1.1650    3.9140 h1        1 0CB      0.127500
     48 H12         5.5230   -0.1090    5.6120 hn        1 0CB      0.219667
     49 H13         4.0480   -0.7420    6.0510 hn        1 0CB      0.219667
     50 H14         0.6860    0.2780    6.0910 hn        1 0CB      0.180000
     51 H15        -2.8040   -0.1450    8.2220 hc        1 0CB      0.128000
     52 H16        -1.4070    1.0110    8.3130 hc        1 0CB      0.128000
     53 H17        -0.1110    3.0730    5.1420 ha        1 0CB      0.126500
     54 H18        -1.6630    3.8690    5.7790 ha        1 0CB      0.126500
     55 H19         1.1730   -2.9580    9.7430 h1        1 0CB      0.109000
     56 H20         2.0020   -0.7910    8.9540 hc        1 0CB      0.105250
     57 H21         2.8310   -1.5510    7.5360 hc        1 0CB      0.105250
     58 H22         3.4060   -4.3450   10.4260 h1        1 0CB      0.108500
     59 H23         4.2930   -5.1870    9.0770 h1        1 0CB      0.108500
     60 H24         6.6020   -4.6890    9.3330 hc        1 0CB      0.105667
     61 H25         6.0860   -5.1430    7.6490 hc        1 0CB      0.105667
     62 H26         7.5010   -4.0360    7.9080 hc        1 0CB      0.105667
     63 H27         6.4660   -2.2870    6.7290 hn        1 0CB      0.152000
     64 H28         4.4950   -0.9710    9.2980 h1        1 0CB      0.108500
     65 H29         3.5260   -1.8630   10.5510 h1        1 0CB      0.108500
     66 H30         2.7090   -4.2820    7.3910 hc        1 0CB      0.105250
     67 H31         1.8020   -5.0990    8.7260 hc        1 0CB      0.105250
     68 C22         1.6810    0.1490    4.3950 c2        1 0CB      0.087000
     69 H301       -3.1760   -1.0640    5.8850 hn        1 0CB      0.247000
     70 H263        4.2740    0.9010    6.0460 hn        1 0CB      0.219667
@<TRIPOS>BOND
     1    1    9 1   
     2    1   38 1   
     3    1   39 1   
     4    2   19 1   
     5    2   20 1   
     6    3    7 1   
     7    3    8 1   
     8    3   68 1   
     9    4    5 1   
    10    4    9 1   
    11    4   41 1   
    12    4   42 1   
    13    5    6 1   
    14    6    7 1   
    15    6   18 1   
    16    6   43 1   
    17    7    8 1   
    18    8    9 1   
    19   10   11 1   
    20   11   12 1   
    21   11   13 1   
    22   11   15 1   
    23   13   14 1   
    24   13   44 1   
    25   13   45 1   
    26   14   15 1   
    27   14   16 1   
    28   17   18 1   
    29   17   22 1   
    30   17   69 1   
    31   18   46 1   
    32   18   47 1   
    33   19   40 1   
    34   19   68 1   
    35   20   48 1   
    36   20   49 1   
    37   20   70 1   
    38   21   50 1   
    39   21   68 1   
    40   22   23 1   
    41   22   27 1   
    42   23   24 1   
    43   23   51 1   
    44   23   52 1   
    45   24   25 1   
    46   25   28 1   
    47   26   27 1   
    48   26   53 1   
    49   26   54 1   
    50   28   29 1   
    51   29   30 1   
    52   29   37 1   
    53   29   55 1   
    54   30   36 1   
    55   30   56 1   
    56   30   57 1   
    57   31   32 1   
    58   31   37 1   
    59   31   58 1   
    60   31   59 1   
    61   32   33 1   
    62   32   36 1   
    63   33   34 1   
    64   33   35 1   
    65   34   60 1   
    66   34   61 1   
    67   34   62 1   
    68   35   63 1   
    69   36   64 1   
    70   36   65 1   
    71   37   66 1   
    72   37   67 1   
@<TRIPOS>SUBSTRUCTURE
     1 0CB         1 TEMP              0 ****  ****    0 ROOT
