@<TRIPOS>MOLECULE
0CB
   68    71     1     0     0
SMALL
bcc


@<TRIPOS>ATOM
      1 C13        -4.6800   -4.1060    0.5300 ca        1 0CB     -0.124000
      2 C14        -3.8730   -5.2000    0.7180 ca        1 0CB     -0.123000
      3 C16        -1.9460   -3.9570   -0.0780 ca        1 0CB     -0.064000
      4 C1         -4.9560   -1.7290   -0.1420 ca        1 0CB     -0.145000
      5 C2         -4.4140   -0.5570   -0.6090 ca        1 0CB     -0.099000
      6 C3         -3.0300   -0.4830   -0.9220 ca        1 0CB     -0.087300
      7 C4         -2.2250   -1.5880   -0.7550 ca        1 0CB     -0.113000
      8 C5         -2.7630   -2.8090   -0.2670 ca        1 0CB     -0.053000
      9 C6         -4.1460   -2.8820    0.0420 ca        1 0CB     -0.026000
     10 O36        -2.0620    3.9610   -1.0100 o         1 0CB     -0.668300
     11 S32        -2.0800    3.0160    0.0300 s6        1 0CB      1.461900
     12 O38        -1.2050    3.3480    1.1020 o         1 0CB     -0.668300
     13 C34        -3.5920    2.7150    0.6810 c3        1 0CB     -0.510600
     14 C53        -4.8490    3.1440   -0.1540 c         1 0CB      0.966600
     15 O57        -5.1010    2.4590   -1.1830 o         1 0CB     -0.805800
     16 O54        -5.5270    4.0960    0.2900 o         1 0CB     -0.805800
     17 N30        -1.6050    1.5320   -0.5890 nh        1 0CB     -0.665900
     18 C28        -2.4850    0.8080   -1.4740 c3        1 0CB      0.232100
     19 C15        -2.4880   -5.1210    0.4180 ca        1 0CB     -0.165900
     20 N26        -1.7480   -6.8760    1.9510 nh        1 0CB     -0.953800
     21 N24        -0.8880   -6.7680   -0.3190 n2        1 0CB     -0.826100
     22 C40        -0.3110    1.0140   -0.3870 ca        1 0CB      0.167600
     23 C46         0.2360    0.9300    0.9170 ca        1 0CB     -0.134500
     24 C45         1.5230    0.4480    1.1220 ca        1 0CB     -0.138500
     25 C44         2.2850    0.0150    0.0310 ca        1 0CB      0.060100
     26 C43         1.7650    0.0760   -1.2660 ca        1 0CB     -0.138500
     27 C42         0.4840    0.5750   -1.4710 ca        1 0CB     -0.134500
     28 O59         3.5260   -0.5640    0.2830 os        1 0CB     -0.344900
     29 C61         4.6300    0.1770   -0.2640 c3        1 0CB      0.144100
     30 C67         5.8190   -0.7730   -0.2490 c3        1 0CB     -0.097900
     31 C66         7.0810   -0.0550   -0.7210 c3        1 0CB      0.193800
     32 N65         7.3530    1.1960   -0.0350 nh        1 0CB     -0.764600
     33 C74         8.6040    1.8240   -0.3360 c2        1 0CB      0.613200
     34 C76         8.8450    3.1490    0.3720 c3        1 0CB     -0.134400
     35 N82         9.5640    1.3640   -1.0780 n2        1 0CB     -0.844100
     36 C64         6.2130    2.0830    0.1200 c3        1 0CB      0.193800
     37 C63         4.9410    1.3910    0.5980 c3        1 0CB     -0.097900
     38 H1         -5.7560   -4.1570    0.7540 ha        1 0CB      0.129000
     39 H2         -4.2900   -6.1480    1.0880 ha        1 0CB      0.133000
     40 H3         -0.8770   -3.8930   -0.3350 ha        1 0CB      0.144000
     41 H4         -6.0270   -1.7920    0.1000 ha        1 0CB      0.132000
     42 H5         -5.0370    0.3520   -0.7510 ha        1 0CB      0.205000
     43 H6         -1.1500   -1.5350   -0.9920 ha        1 0CB      0.138000
     44 H7         -3.7990    1.6410    0.9200 h1        1 0CB      0.126700
     45 H8         -3.6920    3.2730    1.6530 h1        1 0CB      0.126700
     46 H10        -1.9540    0.5680   -2.4410 h1        1 0CB      0.089700
     47 H11        -3.3600    1.4930   -1.7310 h1        1 0CB      0.089700
     48 H12        -2.1580   -6.2690    2.6240 hn        1 0CB      0.391300
     49 H13        -0.9580   -7.3730    2.2930 hn        1 0CB      0.391300
     50 H14        -0.3150   -7.5590   -0.1110 hn        1 0CB      0.372400
     51 H15        -0.3440    1.2900    1.7850 ha        1 0CB      0.152500
     52 H16         1.9420    0.3920    2.1370 ha        1 0CB      0.135500
     53 H17         2.3660   -0.2680   -2.1190 ha        1 0CB      0.135500
     54 H18         0.0970    0.6290   -2.5010 ha        1 0CB      0.152500
     55 H19         4.3890    0.4950   -1.3150 h1        1 0CB      0.047700
     56 H20         5.9590   -1.1730    0.7880 hc        1 0CB      0.065200
     57 H21         5.6250   -1.6410   -0.9290 hc        1 0CB      0.065200
     58 H22         7.9490   -0.7520   -0.5340 h1        1 0CB      0.035700
     59 H23         7.0010    0.1100   -1.8370 h1        1 0CB      0.035700
     60 H24         8.6240    3.0490    1.4620 hc        1 0CB      0.057033
     61 H25         9.9080    3.4730    0.2550 hc        1 0CB      0.057033
     62 H26         8.1850    3.9330   -0.0730 hc        1 0CB      0.057033
     63 H27         9.4080    0.5020   -1.5540 hn        1 0CB      0.381400
     64 H28         6.4750    2.8690    0.8830 h1        1 0CB      0.035700
     65 H29         5.9900    2.6100   -0.8550 h1        1 0CB      0.035700
     66 H30         4.0930    2.1220    0.5490 hc        1 0CB      0.065200
     67 H31         5.0510    1.0670    1.6650 hc        1 0CB      0.065200
     68 C22        -1.6190   -6.3160    0.6550 ce        1 0CB      0.652800
@<TRIPOS>BOND
     1    1    2 ar  
     2    1    9 ar  
     3    1   38 1   
     4    2   19 ar  
     5    2   39 1   
     6    3    8 ar  
     7    3   19 ar  
     8    3   40 1   
     9    4    5 ar  
    10    4    9 ar  
    11    4   41 1   
    12    5    6 ar  
    13    5   42 1   
    14    6    7 ar  
    15    6   18 1   
    16    7    8 ar  
    17    7   43 1   
    18    8    9 ar  
    19   10   11 2   
    20   11   12 2   
    21   11   13 1   
    22   11   17 1   
    23   13   14 1   
    24   13   44 1   
    25   13   45 1   
    26   14   15 1   
    27   14   16 1   
    28   17   18 1   
    29   17   22 1   
    30   18   46 1   
    31   18   47 1   
    32   19   68 1   
    33   20   48 1   
    34   20   49 1   
    35   20   68 1   
    36   21   50 1   
    37   21   68 2   
    38   22   23 ar  
    39   22   27 ar  
    40   23   24 ar  
    41   23   51 1   
    42   24   25 ar  
    43   24   52 1   
    44   25   26 ar  
    45   25   28 1   
    46   26   27 ar  
    47   26   53 1   
    48   27   54 1   
    49   28   29 1   
    50   29   30 1   
    51   29   37 1   
    52   29   55 1   
    53   30   31 1   
    54   30   56 1   
    55   30   57 1   
    56   31   32 1   
    57   31   58 1   
    58   31   59 1   
    59   32   33 1   
    60   32   36 1   
    61   33   34 1   
    62   33   35 2   
    63   34   60 1   
    64   34   61 1   
    65   34   62 1   
    66   35   63 1   
    67   36   37 1   
    68   36   64 1   
    69   36   65 1   
    70   37   66 1   
    71   37   67 1   
@<TRIPOS>SUBSTRUCTURE
     1 0CB         1 TEMP              0 ****  ****    0 ROOT
