@<TRIPOS>MOLECULE
0CB
   68    56     1     0     0
SMALL
bcc


@<TRIPOS>ATOM
      1 C13        -5.3650    4.6470   -1.6300 c1        1 0CB     -0.112250
      2 C14        -5.1840    5.9900   -1.3110 c1        1 0CB     -0.146500
      3 C16        -2.8040    5.7470   -1.6300 c1        1 0CB     -0.112250
      4 C22        -4.0050    8.0500   -1.1060 c1        1 0CB      0.127000
      5 C1         -4.4270    2.4620   -2.1950 c1        1 0CB     -0.112250
      6 C2         -3.3180    1.6480   -2.4330 c1        1 0CB     -0.076000
      7 C3         -2.0390    2.1960   -2.4330 c1        1 0CB     -0.063000
      8 C4         -1.8640    3.5590   -2.1950 c1        1 0CB     -0.112250
      9 C5         -2.9870    4.3840   -1.9540 c1        1 0CB     -0.038500
     10 C6         -4.2510    3.8420   -1.9540 c1        1 0CB     -0.038500
     11 O36        -1.7240   -2.2630   -2.0260 o         1 0CB     -0.956000
     12 S32        -2.1550   -0.8920   -2.0280 ss        1 0CB      2.815000
     13 O38        -2.7180   -0.7770   -3.3440 o         1 0CB     -0.956000
     14 C34        -3.3800   -0.6000   -0.7770 c2        1 0CB     -0.978000
     15 C53        -4.6470   -1.3530   -1.1260 c1        1 0CB      0.368000
     16 O57        -5.6610   -0.7260   -1.5350 os        1 0CB     -0.559000
     17 O54        -4.6960   -2.6060   -0.9850 o         1 0CB     -0.552000
     18 N30        -0.8770    0.1380   -1.8300 n2        1 0CB     -0.777000
     19 C28        -0.7840    1.3320   -2.6430 c3        1 0CB      0.023000
     20 C15        -3.9040    6.5400   -1.3100 c1        1 0CB     -0.050000
     21 N26        -3.8770    8.6020    0.2020 n3        1 0CB     -0.338000
     22 N24        -4.2090    8.8330   -2.1270 n1        1 0CB     -0.326000
     23 C40         0.2350   -0.2520   -0.9970 c2        1 0CB      0.058000
     24 C46         1.3280   -0.9000   -1.5580 c2        1 0CB     -0.108000
     25 C45         2.3810   -1.3150   -0.7490 c1        1 0CB     -0.150000
     26 C44         2.3390   -1.0830    0.6180 c1        1 0CB     -0.050000
     27 C43         1.2480   -0.4360    1.1780 c1        1 0CB     -0.146500
     28 C42         0.1930   -0.0200    0.3670 c1        1 0CB     -0.107000
     29 O59         3.4420   -1.4490    1.4330 o         1 0CB     -0.231000
     30 C61         3.2820   -2.8340    1.8760 c3        1 0CB      0.037000
     31 C67         3.7140   -2.9390    3.2820 c3        1 0CB     -0.207500
     32 C66         3.7570   -4.3740    3.7680 c3        1 0CB     -0.060500
     33 N65         4.5330   -5.2490    2.8730 n3        1 0CB     -0.276000
     34 C74         5.8860   -5.5750    3.1880 c1        1 0CB      0.083000
     35 C76         6.2760   -7.0200    3.4670 c2        1 0CB     -0.173000
     36 N82         6.7910   -4.6320    3.2390 n1        1 0CB     -0.299000
     37 C64         4.1090   -5.1510    1.4720 c3        1 0CB     -0.060500
     38 C63         4.0680   -3.7190    0.9780 c3        1 0CB     -0.207500
     39 H1         -6.2550    4.2510   -1.5810 ha        1 0CB      0.133250
     40 H2         -5.9530    6.5430   -1.0660 ha        1 0CB      0.131000
     41 H3         -1.9140    6.1430   -1.6740 ha        1 0CB      0.133250
     42 H4         -5.3260    2.0770   -2.1950 ha        1 0CB      0.133250
     43 H5         -3.4450    0.7080   -2.6600 ha        1 0CB      0.216000
     44 H6         -0.9740    3.9560   -2.2640 ha        1 0CB      0.133250
     45 H7         -3.5720    0.3550   -0.7270 ha        1 0CB      0.164000
     46 H8         -3.0420   -0.9110    0.0890 ha        1 0CB      0.164000
     47 H10        -0.7150    1.0790   -3.5890 h1        1 0CB      0.109500
     48 H11         0.0110    1.8420   -2.3830 h1        1 0CB      0.109500
     49 H12        -3.8950    9.5110    0.3190 hn        1 0CB      0.192000
     50 H13        -3.7560    8.0500    0.9230 hn        1 0CB      0.192000
     51 H14        -4.2920    8.4790   -2.9660 DU        1 0CB      0.143500
     52 H15         1.3580   -1.0640   -2.5210 ha        1 0CB      0.134000
     53 H16         3.1490   -1.7710   -1.1440 ha        1 0CB      0.134000
     54 H17         1.2180   -0.2720    2.1400 ha        1 0CB      0.131000
     55 H18        -0.5750    0.4360    0.7610 ha        1 0CB      0.205000
     56 H19         2.3370   -3.0800    1.8150 h1        1 0CB      0.092000
     57 H20         4.6030   -2.5500    3.3680 hc        1 0CB      0.102500
     58 H21         3.0890   -2.4310    3.8460 hc        1 0CB      0.102500
     59 H22         4.1620   -4.3950    4.6590 h1        1 0CB      0.094750
     60 H23         2.8410   -4.7150    3.8290 h1        1 0CB      0.094750
     61 H24         7.0870   -7.0400    4.0180 ha        1 0CB      0.094667
     62 H25         5.5470   -7.4690    3.9420 ha        1 0CB      0.094667
     63 H26         6.4460   -7.4840    2.6150 ha        1 0CB      0.094667
     64 H27         6.5580   -3.7690    3.0730 DU        1 0CB      0.143500
     65 H28         4.7340   -5.6600    0.9160 h1        1 0CB      0.094750
     66 H29         3.2170   -5.5410    1.3830 h1        1 0CB      0.094750
     67 H30         3.6670   -3.7040    0.0890 hc        1 0CB      0.102500
     68 H31         4.9850   -3.3770    0.9190 hc        1 0CB      0.102500
@<TRIPOS>BOND
     1    1   10 1   
     2    1   39 1   
     3    2   20 1   
     4    2   40 1   
     5    3    9 1   
     6    3   41 1   
     7    4   21 1   
     8    4   22 1   
     9    5   10 1   
    10    5   42 1   
    11    6    7 1   
    12    6   43 1   
    13    7   19 1   
    14    8    9 1   
    15    8   44 1   
    16   11   12 1   
    17   12   13 1   
    18   14   15 1   
    19   14   45 1   
    20   14   46 1   
    21   15   17 1   
    22   18   19 1   
    23   18   23 1   
    24   19   47 1   
    25   19   48 1   
    26   21   49 1   
    27   21   50 1   
    28   23   24 1   
    29   23   28 1   
    30   24   25 1   
    31   24   52 1   
    32   25   53 1   
    33   26   27 1   
    34   27   54 1   
    35   28   55 1   
    36   29   30 1   
    37   30   31 1   
    38   30   38 1   
    39   30   56 1   
    40   31   32 1   
    41   31   57 1   
    42   31   58 1   
    43   32   33 1   
    44   32   59 1   
    45   32   60 1   
    46   33   34 1   
    47   33   37 1   
    48   34   36 1   
    49   35   61 1   
    50   35   62 1   
    51   35   63 1   
    52   37   38 1   
    53   37   65 1   
    54   37   66 1   
    55   38   67 1   
    56   38   68 1   
@<TRIPOS>SUBSTRUCTURE
     1 0CB         1 TEMP              0 ****  ****    0 ROOT
