@<TRIPOS>MOLECULE
0CE
   62    68     1     0     0
SMALL
bcc


@<TRIPOS>ATOM
      1 C1          0.0060   -0.0180   -0.0490 cp        1 0CE     -0.015000
      2 N1          4.0840   -0.0170    4.9150 nc        1 0CE     -0.503800
      3 O1         -0.9750    0.5680    4.6160 o         1 0CE     -0.501100
      4 C2          1.4510   -0.2430    0.0260 ca        1 0CE     -0.005200
      5 N2          3.0140    0.0510    5.7350 na        1 0CE      0.081400
      6 O2         -2.6760    0.2530   -5.5720 os        1 0CE     -0.417600
      7 C3          2.0860   -0.3860    1.2530 ca        1 0CE     -0.090300
      8 N3         -2.3520    0.6080    2.6780 nc        1 0CE     -0.606100
      9 C4          1.3560   -0.0990    2.4640 ca        1 0CE      0.135000
     10 N4          1.9790   -0.4150   -1.2950 na        1 0CE     -0.048300
     11 C5          2.1270   -0.0720    3.6740 cd        1 0CE     -0.257300
     12 C6          3.5900   -0.0970    3.6550 cd        1 0CE      0.327600
     13 C7          1.8040    0.0190    5.0390 cc        1 0CE     -0.072300
     14 C8          3.1230    0.1460    7.1710 c3        1 0CE      0.039600
     15 C9          4.3310   -0.2090    2.3820 c3        1 0CE     -0.102700
     16 C10         3.4600   -0.9520    1.3820 c3        1 0CE     -0.035100
     17 C11         0.0010    0.1650    2.3770 ca        1 0CE     -0.214600
     18 C12        -0.6790    0.1730    1.1110 ca        1 0CE     -0.167900
     19 C13        -2.1130    0.4400    1.4080 cd        1 0CE      0.512800
     20 C14        -1.0730    0.4600    3.3960 c         1 0CE      0.698100
     21 C15         3.2230    0.2740   -1.6500 c3        1 0CE      0.027000
     22 C16         4.1840   -0.6550   -2.3940 c3        1 0CE     -0.108600
     23 C17         3.0410    1.5580   -2.4600 c3        1 0CE     -0.108600
     24 C18         0.8640   -0.3170   -2.1830 ca        1 0CE     -0.012200
     25 C19        -0.3590   -0.0970   -1.4530 cp        1 0CE     -0.088000
     26 C20        -1.5730   -0.0310   -2.1150 ca        1 0CE     -0.073000
     27 C21        -1.5970   -0.1940   -3.5070 ca        1 0CE     -0.104300
     28 C22        -2.9190   -0.1340   -4.2120 c3        1 0CE      0.188400
     29 C23        -3.6360   -1.4840   -4.1550 c3        1 0CE     -0.105400
     30 C24        -4.9220   -1.4350   -4.9530 c3        1 0CE     -0.079400
     31 C25        -4.6520   -0.9450   -6.3610 c3        1 0CE     -0.113400
     32 C26        -3.8750    0.3590   -6.3310 c3        1 0CE      0.130400
     33 C27        -0.4110   -0.4190   -4.2140 ca        1 0CE     -0.073000
     34 C28         0.8250   -0.4840   -3.5680 ca        1 0CE     -0.145000
     35 H7          0.8400    0.0610    5.5530 h4        1 0CE      0.212000
     36 H8          2.0910    0.2080    7.6050 h1        1 0CE      0.060700
     37 H8A         3.7060    1.0630    7.4540 h1        1 0CE      0.060700
     38 H8B         3.6490   -0.7590    7.5780 h1        1 0CE      0.060700
     39 H9          5.3000   -0.7570    2.5180 hc        1 0CE      0.063700
     40 H9A         4.5720    0.8210    2.0010 hc        1 0CE      0.063700
     41 H10         3.3380   -2.0170    1.7340 hc        1 0CE      0.062200
     42 H10A        3.9960   -1.0080    0.4010 hc        1 0CE      0.062200
     43 H13        -2.8880    0.4950    0.6330 h4        1 0CE      0.046800
     44 H15         3.7200    0.5820   -0.6780 h1        1 0CE      0.065700
     45 H16         3.7720   -0.9460   -3.3890 hc        1 0CE      0.046867
     46 H16A        4.3800   -1.5840   -1.8060 hc        1 0CE      0.046867
     47 H16B        5.1500   -0.1170   -2.5500 hc        1 0CE      0.046867
     48 H17         2.3610    2.2700   -1.9330 hc        1 0CE      0.046867
     49 H17A        2.6180    1.3430   -3.4700 hc        1 0CE      0.046867
     50 H17B        4.0370    2.0450   -2.5880 hc        1 0CE      0.046867
     51 H20        -2.5070    0.1390   -1.5590 ha        1 0CE      0.133000
     52 H22        -3.5700    0.6550   -3.7330 h1        1 0CE      0.042700
     53 H23        -3.8510   -1.7390   -3.0870 hc        1 0CE      0.055700
     54 H23A       -2.9620   -2.2760   -4.5720 hc        1 0CE      0.055700
     55 H24        -5.6530   -0.7490   -4.4490 hc        1 0CE      0.043700
     56 H24A       -5.3860   -2.4540   -4.9870 hc        1 0CE      0.043700
     57 H25        -5.6170   -0.7890   -6.9080 hc        1 0CE      0.051700
     58 H25A       -4.0610   -1.7170   -6.9180 hc        1 0CE      0.051700
     59 H26        -4.5110    1.1850   -5.9120 h1        1 0CE      0.047700
     60 H26A       -3.5150    0.6420   -7.3570 h1        1 0CE      0.047700
     61 H27        -0.4570   -0.5420   -5.3090 ha        1 0CE      0.155000
     62 H28         1.7420   -0.6700   -4.1460 ha        1 0CE      0.143000
@<TRIPOS>BOND
     1    1    4 ar  
     2    1   18 ar  
     3    1   25 1   
     4    2    5 1   
     5    2   12 2   
     6    3   20 2   
     7    4    7 ar  
     8    4   10 1   
     9    5   13 1   
    10    5   14 1   
    11    6   28 1   
    12    6   32 1   
    13    7    9 ar  
    14    7   16 1   
    15    8   19 2   
    16    8   20 1   
    17    9   11 1   
    18    9   17 ar  
    19   10   21 1   
    20   10   24 1   
    21   11   12 1   
    22   11   13 2   
    23   12   15 1   
    24   13   35 1   
    25   14   36 1   
    26   14   37 1   
    27   14   38 1   
    28   15   16 1   
    29   15   39 1   
    30   15   40 1   
    31   16   41 1   
    32   16   42 1   
    33   17   18 ar  
    34   17   20 1   
    35   18   19 1   
    36   19   43 1   
    37   21   22 1   
    38   21   23 1   
    39   21   44 1   
    40   22   45 1   
    41   22   46 1   
    42   22   47 1   
    43   23   48 1   
    44   23   49 1   
    45   23   50 1   
    46   24   25 ar  
    47   24   34 ar  
    48   25   26 ar  
    49   26   27 ar  
    50   26   51 1   
    51   27   28 1   
    52   27   33 ar  
    53   28   29 1   
    54   28   52 1   
    55   29   30 1   
    56   29   53 1   
    57   29   54 1   
    58   30   31 1   
    59   30   55 1   
    60   30   56 1   
    61   31   32 1   
    62   31   57 1   
    63   31   58 1   
    64   32   59 1   
    65   32   60 1   
    66   33   34 ar  
    67   33   61 1   
    68   34   62 1   
@<TRIPOS>SUBSTRUCTURE
     1 0CE         1 TEMP              0 ****  ****    0 ROOT
