@<TRIPOS>MOLECULE
0CE
   62    68     1     0     0
SMALL
bcc


@<TRIPOS>ATOM
      1 C1          0.0070   -0.0100   -0.0500 cp        1 0CE     -0.015000
      2 N1          4.0870   -0.0140    4.9120 nc        1 0CE     -0.503800
      3 O1         -0.9710    0.5800    4.6160 o         1 0CE     -0.501100
      4 C2          1.4510   -0.2360    0.0250 ca        1 0CE     -0.005200
      5 N2          3.0180    0.0550    5.7330 na        1 0CE      0.081400
      6 O2         -2.6780    0.2590   -5.5720 os        1 0CE     -0.417600
      7 C3          2.0870   -0.3800    1.2520 ca        1 0CE     -0.090300
      8 N3         -2.3480    0.6210    2.6790 nc        1 0CE     -0.606100
      9 C4          1.3580   -0.0910    2.4630 ca        1 0CE      0.135000
     10 N4          1.9780   -0.4090   -1.2960 na        1 0CE     -0.048300
     11 C5          2.1300   -0.0660    3.6720 cd        1 0CE     -0.257300
     12 C6          3.5920   -0.0920    3.6530 cd        1 0CE      0.327600
     13 C7          1.8070    0.0250    5.0380 cc        1 0CE     -0.072300
     14 C8          3.1270    0.1490    7.1690 c3        1 0CE      0.039600
     15 C9          4.3320   -0.2050    2.3790 c3        1 0CE     -0.102700
     16 C10         3.4600   -0.9480    1.3800 c3        1 0CE     -0.035100
     17 C11         0.0040    0.1750    2.3770 ca        1 0CE     -0.214600
     18 C12        -0.6770    0.1830    1.1100 ca        1 0CE     -0.167900
     19 C13        -2.1100    0.4530    1.4080 cd        1 0CE      0.512800
     20 C14        -1.0690    0.4710    3.3960 c         1 0CE      0.698100
     21 C15         3.2230    0.2780   -1.6520 c3        1 0CE      0.027000
     22 C16         4.1830   -0.6530   -2.3970 c3        1 0CE     -0.108600
     23 C17         3.0420    1.5620   -2.4630 c3        1 0CE     -0.108600
     24 C18         0.8630   -0.3110   -2.1840 ca        1 0CE     -0.012200
     25 C19        -0.3590   -0.0880   -1.4530 cp        1 0CE     -0.088000
     26 C20        -1.5730   -0.0220   -2.1140 ca        1 0CE     -0.073000
     27 C21        -1.5990   -0.1850   -3.5070 ca        1 0CE     -0.104300
     28 C22        -2.9210   -0.1240   -4.2100 c3        1 0CE      0.188400
     29 C23        -3.6420   -1.4710   -4.1490 c3        1 0CE     -0.105400
     30 C24        -4.9290   -1.4210   -4.9460 c3        1 0CE     -0.079400
     31 C25        -4.6590   -0.9350   -6.3550 c3        1 0CE     -0.113400
     32 C26        -3.8780    0.3670   -6.3300 c3        1 0CE      0.130400
     33 C27        -0.4130   -0.4130   -4.2140 ca        1 0CE     -0.073000
     34 C28         0.8230   -0.4790   -3.5690 ca        1 0CE     -0.145000
     35 H7          0.8430    0.0690    5.5520 h4        1 0CE      0.212000
     36 H8          2.0960    0.2160    7.6040 h1        1 0CE      0.060700
     37 H8A         3.6500   -0.7580    7.5760 h1        1 0CE      0.060700
     38 H8B         3.7140    1.0640    7.4520 h1        1 0CE      0.060700
     39 H9          4.5750    0.8230    1.9990 hc        1 0CE      0.063700
     40 H9A         5.3010   -0.7550    2.5150 hc        1 0CE      0.063700
     41 H10         3.9960   -1.0040    0.3980 hc        1 0CE      0.062200
     42 H10A        3.3370   -2.0130    1.7320 hc        1 0CE      0.062200
     43 H13        -2.8860    0.5080    0.6340 h4        1 0CE      0.046800
     44 H15         3.7210    0.5860   -0.6810 h1        1 0CE      0.065700
     45 H16         4.3780   -1.5810   -1.8080 hc        1 0CE      0.046867
     46 H16A        5.1490   -0.1160   -2.5530 hc        1 0CE      0.046867
     47 H16B        3.7690   -0.9440   -3.3910 hc        1 0CE      0.046867
     48 H17         4.0390    2.0480   -2.5920 hc        1 0CE      0.046867
     49 H17A        2.3640    2.2740   -1.9360 hc        1 0CE      0.046867
     50 H17B        2.6180    1.3470   -3.4730 hc        1 0CE      0.046867
     51 H20        -2.5070    0.1500   -1.5580 ha        1 0CE      0.133000
     52 H22        -3.5690    0.6690   -3.7330 h1        1 0CE      0.042700
     53 H23        -3.8560   -1.7230   -3.0800 hc        1 0CE      0.055700
     54 H23A       -2.9710   -2.2660   -4.5650 hc        1 0CE      0.055700
     55 H24        -5.6570   -0.7310   -4.4430 hc        1 0CE      0.043700
     56 H24A       -5.3950   -2.4390   -4.9760 hc        1 0CE      0.043700
     57 H25        -4.0700   -1.7100   -6.9110 hc        1 0CE      0.051700
     58 H25A       -5.6240   -0.7780   -6.9010 hc        1 0CE      0.051700
     59 H26        -4.5110    1.1960   -5.9130 h1        1 0CE      0.047700
     60 H26A       -3.5180    0.6450   -7.3570 h1        1 0CE      0.047700
     61 H27        -0.4600   -0.5360   -5.3090 ha        1 0CE      0.155000
     62 H28         1.7390   -0.6670   -4.1480 ha        1 0CE      0.143000
@<TRIPOS>BOND
     1    1    4 ar  
     2    1   18 ar  
     3    1   25 1   
     4    2    5 1   
     5    2   12 2   
     6    3   20 2   
     7    4    7 ar  
     8    4   10 1   
     9    5   13 1   
    10    5   14 1   
    11    6   28 1   
    12    6   32 1   
    13    7    9 ar  
    14    7   16 1   
    15    8   19 2   
    16    8   20 1   
    17    9   11 1   
    18    9   17 ar  
    19   10   21 1   
    20   10   24 1   
    21   11   12 1   
    22   11   13 2   
    23   12   15 1   
    24   13   35 1   
    25   14   36 1   
    26   14   37 1   
    27   14   38 1   
    28   15   16 1   
    29   15   39 1   
    30   15   40 1   
    31   16   41 1   
    32   16   42 1   
    33   17   18 ar  
    34   17   20 1   
    35   18   19 1   
    36   19   43 1   
    37   21   22 1   
    38   21   23 1   
    39   21   44 1   
    40   22   45 1   
    41   22   46 1   
    42   22   47 1   
    43   23   48 1   
    44   23   49 1   
    45   23   50 1   
    46   24   25 ar  
    47   24   34 ar  
    48   25   26 ar  
    49   26   27 ar  
    50   26   51 1   
    51   27   28 1   
    52   27   33 ar  
    53   28   29 1   
    54   28   52 1   
    55   29   30 1   
    56   29   53 1   
    57   29   54 1   
    58   30   31 1   
    59   30   55 1   
    60   30   56 1   
    61   31   32 1   
    62   31   57 1   
    63   31   58 1   
    64   32   59 1   
    65   32   60 1   
    66   33   34 ar  
    67   33   61 1   
    68   34   62 1   
@<TRIPOS>SUBSTRUCTURE
     1 0CE         1 TEMP              0 ****  ****    0 ROOT
