@<TRIPOS>MOLECULE
0CE
   62    54     1     0     0
SMALL
bcc


@<TRIPOS>ATOM
      1 C1         -0.2410    0.0610    0.6430 c1        1 0CE      0.015000
      2 N1          3.8510    0.1010    5.6420 n2        1 0CE     -0.101000
      3 O1         -1.1950   -0.0690    5.3760 o         1 0CE     -0.260000
      4 C2          1.1440   -0.1720    0.6220 c1        1 0CE      0.015000
      5 N2          2.7420    0.4110    6.4590 n2        1 0CE     -0.101000
      6 O2         -3.7300    1.2360   -4.1470 os        1 0CE     -0.275000
      7 C3          1.9010   -0.2030    1.8820 c1        1 0CE     -0.084000
      8 N3         -2.4750    0.3650    3.5450 n1        1 0CE     -0.179000
      9 C4          1.2310    0.0030    3.1160 c1        1 0CE      0.136000
     10 N4          1.5440   -0.2810   -0.7180 n1        1 0CE     -0.165000
     11 C5          1.9960    0.0430    4.3840 c1        1 0CE     -0.193000
     12 C6          3.3930   -0.1230    4.3750 c1        1 0CE     -0.071000
     13 C7          1.6120    0.3720    5.6780 c1        1 0CE     -0.071000
     14 C8          2.9980    0.1500    7.8380 c2        1 0CE     -0.059000
     15 C9          4.0820   -0.5850    3.1260 c2        1 0CE     -0.086000
     16 C10         3.3310   -0.5940    1.8680 c3        1 0CE     -0.118000
     17 C11        -0.1500    0.2360    3.1280 c1        1 0CE     -0.195000
     18 C12        -0.9040    0.2650    1.8600 c1        1 0CE     -0.081000
     19 C13        -2.3120    0.3530    2.2850 c2        1 0CE      0.012000
     20 C14        -1.3000    0.3000    4.2660 c1        1 0CE      0.298000
     21 C15         2.9520   -0.0400   -1.1150 c2        1 0CE      0.011000
     22 C16         3.4260   -1.1730   -2.0980 c3        1 0CE     -0.227500
     23 C17         3.0660    1.3560   -1.8300 c3        1 0CE     -0.227500
     24 C18         0.4050   -0.1170   -1.5260 c1        1 0CE      0.039000
     25 C19        -0.6970    0.0950   -0.6840 c1        1 0CE     -0.089000
     26 C20        -2.0090    0.2750   -1.2500 c1        1 0CE     -0.071000
     27 C21        -2.1840    0.2370   -2.6460 c1        1 0CE     -0.099000
     28 C22        -3.6960    0.4300   -3.1080 c3        1 0CE      0.074000
     29 C23        -4.2990   -0.9440   -3.4520 c3        1 0CE     -0.181000
     30 C24        -4.3510   -1.2180   -5.0290 c3        1 0CE     -0.152000
     31 C25        -5.3310    0.0120   -5.3980 c3        1 0CE     -0.191000
     32 C26        -4.7280    1.3640   -5.0480 c3        1 0CE     -0.020000
     33 C27        -1.0740    0.0230   -3.4920 c1        1 0CE     -0.071000
     34 C28         0.2240   -0.1540   -2.9370 c1        1 0CE     -0.149000
     35 H7          0.6730    0.5520    5.9880 DU        1 0CE      0.209000
     36 H8          2.9970   -0.8160    7.9950 ha        1 0CE      0.099333
     37 H8A         2.2910    0.5780    8.3940 ha        1 0CE      0.099333
     38 H8B         3.8340    0.5030    8.0700 ha        1 0CE      0.099333
     39 H9          4.4040   -1.5110    3.2880 ha        1 0CE      0.104500
     40 H9A         4.8780   -0.0070    2.9920 ha        1 0CE      0.104500
     41 H10         3.3820   -1.4620    1.5160 hc        1 0CE      0.096500
     42 H10A        3.7720   -0.0200    1.2770 hc        1 0CE      0.096500
     43 H13        -2.9730    0.7790    1.7020 h4        1 0CE      0.176000
     44 H15         3.5020   -0.0440   -0.3420 ha        1 0CE      0.105000
     45 H16         4.3610   -1.3910   -1.9120 hc        1 0CE      0.086333
     46 H16A        3.3410   -0.8520   -3.0450 hc        1 0CE      0.086333
     47 H16B        2.8820   -1.9570   -1.9740 hc        1 0CE      0.086333
     48 H17         2.3760    1.9590   -1.4840 hc        1 0CE      0.086333
     49 H17A        3.9750    1.7490   -1.6500 hc        1 0CE      0.086333
     50 H17B        2.9520    1.2460   -2.7450 hc        1 0CE      0.086333
     51 H20        -2.8140    0.4440   -0.6370 ha        1 0CE      0.133000
     52 H22        -4.1890    0.8170   -2.3980 h1        1 0CE      0.081000
     53 H23        -5.2020   -0.9840   -3.0990 hc        1 0CE      0.091000
     54 H23A       -3.7360   -1.6740   -3.0090 hc        1 0CE      0.091000
     55 H24        -3.5320   -1.1230   -5.4150 hc        1 0CE      0.087000
     56 H24A       -4.7720   -2.1140   -5.2430 hc        1 0CE      0.087000
     57 H25        -6.1620   -0.0940   -4.9140 hc        1 0CE      0.087500
     58 H25A       -5.5270   -0.0120   -6.3960 hc        1 0CE      0.087500
     59 H26        -5.4200    1.9340   -4.6770 h1        1 0CE      0.085500
     60 H26A       -4.3580    1.7970   -5.9030 h1        1 0CE      0.085500
     61 H27        -1.1940   -0.0020   -4.4340 ha        1 0CE      0.154000
     62 H28         1.0400   -0.3120   -3.5610 ha        1 0CE      0.143000
@<TRIPOS>BOND
     1    1    4 1   
     2    2    5 1   
     3    2   12 1   
     4    3   20 1   
     5    5   13 1   
     6    6   28 1   
     7    6   32 1   
     8    7    9 1   
     9    7   16 1   
    10    8   19 1   
    11   10   24 1   
    12   11   12 1   
    13   11   13 1   
    14   14   36 1   
    15   14   37 1   
    16   14   38 1   
    17   15   16 1   
    18   15   39 1   
    19   15   40 1   
    20   16   41 1   
    21   16   42 1   
    22   17   18 1   
    23   17   20 1   
    24   18   19 1   
    25   19   43 1   
    26   21   22 1   
    27   21   23 1   
    28   21   44 1   
    29   22   45 1   
    30   22   46 1   
    31   22   47 1   
    32   23   48 1   
    33   23   49 1   
    34   23   50 1   
    35   24   34 1   
    36   25   26 1   
    37   26   51 1   
    38   27   28 1   
    39   27   33 1   
    40   28   29 1   
    41   28   52 1   
    42   29   30 1   
    43   29   53 1   
    44   29   54 1   
    45   30   31 1   
    46   30   55 1   
    47   30   56 1   
    48   31   32 1   
    49   31   57 1   
    50   31   58 1   
    51   32   59 1   
    52   32   60 1   
    53   33   61 1   
    54   34   62 1   
@<TRIPOS>SUBSTRUCTURE
     1 0CE         1 TEMP              0 ****  ****    0 ROOT
