@<TRIPOS>MOLECULE
0CE
   62    68     1     0     0
SMALL
bcc


@<TRIPOS>ATOM
      1 C1         -0.0940    0.2800   -0.0540 cp        1 0CE     -0.015000
      2 N1          6.2470   -0.7260    0.1680 nc        1 0CE     -0.503800
      3 O1          3.4540    3.4670   -0.6280 o         1 0CE     -0.501100
      4 C2          0.6940   -0.9200    0.2300 ca        1 0CE     -0.005200
      5 N2          6.4170    0.6090    0.0650 na        1 0CE      0.081400
      6 O2         -6.2050   -0.2080   -0.4940 os        1 0CE     -0.417600
      7 C3          2.0690   -0.8440    0.4130 ca        1 0CE     -0.090300
      8 N3          1.0880    3.6730   -0.7470 nc        1 0CE     -0.606100
      9 C4          2.7530    0.3900    0.1100 ca        1 0CE      0.135000
     10 N4         -0.1840   -2.0390    0.4090 na        1 0CE     -0.048300
     11 C5          4.1870    0.3360    0.1290 cd        1 0CE     -0.257300
     12 C6          4.9090   -0.9340    0.2130 cd        1 0CE      0.327600
     13 C7          5.2050    1.3020    0.0390 cc        1 0CE     -0.072300
     14 C8          7.7140    1.2380   -0.0080 c3        1 0CE      0.039600
     15 C9          4.1810   -2.2140    0.3410 c3        1 0CE     -0.102700
     16 C10         2.8560   -1.9460    1.0370 c3        1 0CE     -0.035100
     17 C11         2.0030    1.5060   -0.2110 ca        1 0CE     -0.214600
     18 C12         0.5670    1.4510   -0.2610 ca        1 0CE     -0.167900
     19 C13         0.1070    2.8300   -0.5840 cd        1 0CE      0.512800
     20 C14         2.3480    2.9380   -0.5380 c         1 0CE      0.698100
     21 C15         0.1580   -3.3120   -0.2320 c3        1 0CE      0.027000
     22 C16        -0.0270   -4.4890    0.7280 c3        1 0CE     -0.108600
     23 C17        -0.5940   -3.6030   -1.5310 c3        1 0CE     -0.108600
     24 C18        -1.5110   -1.5300    0.2560 ca        1 0CE     -0.012200
     25 C19        -1.4920   -0.1120   -0.0070 cp        1 0CE     -0.088000
     26 C20        -2.6730    0.5980   -0.1290 ca        1 0CE     -0.073000
     27 C21        -3.8920   -0.0810    0.0160 ca        1 0CE     -0.104300
     28 C22        -5.1650    0.7020   -0.1060 c3        1 0CE      0.188400
     29 C23        -5.5170    1.3930    1.2120 c3        1 0CE     -0.105400
     30 C24        -6.8530    2.0980    1.1010 c3        1 0CE     -0.079400
     31 C25        -7.9170    1.1380    0.6120 c3        1 0CE     -0.113400
     32 C26        -7.4620    0.4390   -0.6580 c3        1 0CE      0.130400
     33 C27        -3.9090   -1.4540    0.2830 ca        1 0CE     -0.073000
     34 C28        -2.7310   -2.1910    0.4060 ca        1 0CE     -0.145000
     35 H7          5.1620    2.3910   -0.0370 h4        1 0CE      0.212000
     36 H8          8.2810    0.8500   -0.8960 h1        1 0CE      0.060700
     37 H8A         7.5690    2.3450   -0.1110 h1        1 0CE      0.060700
     38 H8B         8.3010    1.0200    0.9230 h1        1 0CE      0.060700
     39 H9          4.0050   -2.6450   -0.6810 hc        1 0CE      0.063700
     40 H9A         4.7710   -2.9640    0.9310 hc        1 0CE      0.063700
     41 H10         3.0660   -1.6310    2.1000 hc        1 0CE      0.062200
     42 H10A        2.2780   -2.9030    1.1030 hc        1 0CE      0.062200
     43 H13        -0.9500    3.1060   -0.6790 h4        1 0CE      0.046800
     44 H15         1.2570   -3.2580   -0.5080 h1        1 0CE      0.065700
     45 H16        -1.1020   -4.6270    0.9900 hc        1 0CE      0.046867
     46 H16A        0.3430   -5.4160    0.2290 hc        1 0CE      0.046867
     47 H16B        0.5510   -4.3330    1.6700 hc        1 0CE      0.046867
     48 H17        -0.4600   -2.7720   -2.2640 hc        1 0CE      0.046867
     49 H17A       -0.1870   -4.5410   -1.9780 hc        1 0CE      0.046867
     50 H17B       -1.6850   -3.7420   -1.3450 hc        1 0CE      0.046867
     51 H20        -2.6600    1.6790   -0.3320 ha        1 0CE      0.133000
     52 H22        -5.0570    1.4790   -0.9180 h1        1 0CE      0.042700
     53 H23        -5.5600    0.6270    2.0290 hc        1 0CE      0.055700
     54 H23A       -4.7100    2.1260    1.4670 hc        1 0CE      0.055700
     55 H24        -7.1440    2.5140    2.1000 hc        1 0CE      0.043700
     56 H24A       -6.7660    2.9600    0.3890 hc        1 0CE      0.043700
     57 H25        -8.1220    0.3710    1.4040 hc        1 0CE      0.051700
     58 H25A       -8.8710    1.6880    0.4100 hc        1 0CE      0.051700
     59 H26        -7.3970    1.1720   -1.5070 h1        1 0CE      0.047700
     60 H26A       -8.1570   -0.3990   -0.9330 h1        1 0CE      0.047700
     61 H27        -4.8810   -1.9640    0.3910 ha        1 0CE      0.155000
     62 H28        -2.7720   -3.2680    0.6230 ha        1 0CE      0.143000
@<TRIPOS>BOND
     1    1    4 ar  
     2    1   18 ar  
     3    1   25 1   
     4    2    5 1   
     5    2   12 2   
     6    3   20 2   
     7    4    7 ar  
     8    4   10 1   
     9    5   13 1   
    10    5   14 1   
    11    6   28 1   
    12    6   32 1   
    13    7    9 ar  
    14    7   16 1   
    15    8   19 2   
    16    8   20 1   
    17    9   11 1   
    18    9   17 ar  
    19   10   21 1   
    20   10   24 1   
    21   11   12 1   
    22   11   13 2   
    23   12   15 1   
    24   13   35 1   
    25   14   36 1   
    26   14   37 1   
    27   14   38 1   
    28   15   16 1   
    29   15   39 1   
    30   15   40 1   
    31   16   41 1   
    32   16   42 1   
    33   17   18 ar  
    34   17   20 1   
    35   18   19 1   
    36   19   43 1   
    37   21   22 1   
    38   21   23 1   
    39   21   44 1   
    40   22   45 1   
    41   22   46 1   
    42   22   47 1   
    43   23   48 1   
    44   23   49 1   
    45   23   50 1   
    46   24   25 ar  
    47   24   34 ar  
    48   25   26 ar  
    49   26   27 ar  
    50   26   51 1   
    51   27   28 1   
    52   27   33 ar  
    53   28   29 1   
    54   28   52 1   
    55   29   30 1   
    56   29   53 1   
    57   29   54 1   
    58   30   31 1   
    59   30   55 1   
    60   30   56 1   
    61   31   32 1   
    62   31   57 1   
    63   31   58 1   
    64   32   59 1   
    65   32   60 1   
    66   33   34 ar  
    67   33   61 1   
    68   34   62 1   
@<TRIPOS>SUBSTRUCTURE
     1 0CE         1 TEMP              0 ****  ****    0 ROOT
