@<TRIPOS>MOLECULE
0CE
   62    68     1     0     0
SMALL
bcc


@<TRIPOS>ATOM
      1 C1          0.0080   -0.0030   -0.0510 cp        1 0CE     -0.015000
      2 N1          4.0890   -0.0130    4.9110 nc        1 0CE     -0.503800
      3 O1         -0.9630    0.6270    4.6110 o         1 0CE     -0.501100
      4 C2          1.4500   -0.2430    0.0260 ca        1 0CE     -0.005200
      5 N2          3.0210    0.0720    5.7320 na        1 0CE      0.081400
      6 O2         -2.6740    0.2580   -5.5740 os        1 0CE     -0.417600
      7 C3          2.0850   -0.3850    1.2530 ca        1 0CE     -0.090300
      8 N3         -2.3400    0.6690    2.6740 nc        1 0CE     -0.606100
      9 C4          1.3590   -0.0810    2.4630 ca        1 0CE      0.135000
     10 N4          1.9760   -0.4300   -1.2940 na        1 0CE     -0.048300
     11 C5          2.1310   -0.0550    3.6720 cd        1 0CE     -0.257300
     12 C6          3.5930   -0.0960    3.6520 cd        1 0CE      0.327600
     13 C7          1.8100    0.0490    5.0360 cc        1 0CE     -0.072300
     14 C8          3.1320    0.1750    7.1670 c3        1 0CE      0.039600
     15 C9          4.3320   -0.2250    2.3790 c3        1 0CE     -0.102700
     16 C10         3.4520   -0.9660    1.3850 c3        1 0CE     -0.035100
     17 C11         0.0070    0.1980    2.3750 ca        1 0CE     -0.214600
     18 C12        -0.6730    0.2040    1.1080 ca        1 0CE     -0.167900
     19 C13        -2.1040    0.4900    1.4040 cd        1 0CE      0.512800
     20 C14        -1.0630    0.5110    3.3920 c         1 0CE      0.698100
     21 C15         3.2270    0.2420   -1.6550 c3        1 0CE      0.027000
     22 C16         4.1770   -0.7030   -2.3930 c3        1 0CE     -0.108600
     23 C17         3.0590    1.5220   -2.4740 c3        1 0CE     -0.108600
     24 C18         0.8610   -0.3260   -2.1830 ca        1 0CE     -0.012200
     25 C19        -0.3580   -0.0860   -1.4540 cp        1 0CE     -0.088000
     26 C20        -1.5720   -0.0120   -2.1150 ca        1 0CE     -0.073000
     27 C21        -1.5990   -0.1840   -3.5060 ca        1 0CE     -0.104300
     28 C22        -2.9210   -0.1140   -4.2110 c3        1 0CE      0.188400
     29 C23        -3.6550   -1.4540   -4.1410 c3        1 0CE     -0.105400
     30 C24        -4.9410   -1.3960   -4.9380 c3        1 0CE     -0.079400
     31 C25        -4.6660   -0.9220   -6.3500 c3        1 0CE     -0.113400
     32 C26        -3.8730    0.3720   -6.3340 c3        1 0CE      0.130400
     33 C27        -0.4160   -0.4280   -4.2120 ca        1 0CE     -0.073000
     34 C28         0.8200   -0.5020   -3.5670 ca        1 0CE     -0.145000
     35 H7          0.8460    0.1060    5.5500 h4        1 0CE      0.212000
     36 H8          2.1010    0.2540    7.6010 h1        1 0CE      0.060700
     37 H8A         3.6460   -0.7340    7.5800 h1        1 0CE      0.060700
     38 H8B         3.7260    1.0870    7.4430 h1        1 0CE      0.060700
     39 H9          5.2950   -0.7840    2.5190 hc        1 0CE      0.063700
     40 H9A         4.5850    0.7980    1.9920 hc        1 0CE      0.063700
     41 H10         3.9870   -1.0340    0.4040 hc        1 0CE      0.062200
     42 H10A        3.3180   -2.0270    1.7450 hc        1 0CE      0.062200
     43 H13        -2.8800    0.5480    0.6300 h4        1 0CE      0.046800
     44 H15         3.7280    0.5510   -0.6850 h1        1 0CE      0.065700
     45 H16         4.3630   -1.6290   -1.7990 hc        1 0CE      0.046867
     46 H16A        3.7610   -0.9960   -3.3860 hc        1 0CE      0.046867
     47 H16B        5.1490   -0.1770   -2.5530 hc        1 0CE      0.046867
     48 H17         4.0610    1.9980   -2.6070 hc        1 0CE      0.046867
     49 H17A        2.6330    1.3050   -3.4820 hc        1 0CE      0.046867
     50 H17B        2.3880    2.2450   -1.9520 hc        1 0CE      0.046867
     51 H20        -2.5040    0.1720   -1.5600 ha        1 0CE      0.133000
     52 H22        -3.5610    0.6880   -3.7380 h1        1 0CE      0.042700
     53 H23        -2.9910   -2.2590   -4.5520 hc        1 0CE      0.055700
     54 H23A       -3.8720   -1.6970   -3.0700 hc        1 0CE      0.055700
     55 H24        -5.4170   -2.4100   -4.9620 hc        1 0CE      0.043700
     56 H24A       -5.6620   -0.6960   -4.4400 hc        1 0CE      0.043700
     57 H25        -5.6290   -0.7590   -6.8980 hc        1 0CE      0.051700
     58 H25A       -4.0850   -1.7070   -6.9010 hc        1 0CE      0.051700
     59 H26        -4.4970    1.2100   -5.9220 h1        1 0CE      0.047700
     60 H26A       -3.5100    0.6410   -7.3620 h1        1 0CE      0.047700
     61 H27        -0.4640   -0.5580   -5.3060 ha        1 0CE      0.155000
     62 H28         1.7340   -0.7030   -4.1440 ha        1 0CE      0.143000
@<TRIPOS>BOND
     1    1    4 ar  
     2    1   18 ar  
     3    1   25 1   
     4    2    5 1   
     5    2   12 2   
     6    3   20 2   
     7    4    7 ar  
     8    4   10 1   
     9    5   13 1   
    10    5   14 1   
    11    6   28 1   
    12    6   32 1   
    13    7    9 ar  
    14    7   16 1   
    15    8   19 2   
    16    8   20 1   
    17    9   11 1   
    18    9   17 ar  
    19   10   21 1   
    20   10   24 1   
    21   11   12 1   
    22   11   13 2   
    23   12   15 1   
    24   13   35 1   
    25   14   36 1   
    26   14   37 1   
    27   14   38 1   
    28   15   16 1   
    29   15   39 1   
    30   15   40 1   
    31   16   41 1   
    32   16   42 1   
    33   17   18 ar  
    34   17   20 1   
    35   18   19 1   
    36   19   43 1   
    37   21   22 1   
    38   21   23 1   
    39   21   44 1   
    40   22   45 1   
    41   22   46 1   
    42   22   47 1   
    43   23   48 1   
    44   23   49 1   
    45   23   50 1   
    46   24   25 ar  
    47   24   34 ar  
    48   25   26 ar  
    49   26   27 ar  
    50   26   51 1   
    51   27   28 1   
    52   27   33 ar  
    53   28   29 1   
    54   28   52 1   
    55   29   30 1   
    56   29   53 1   
    57   29   54 1   
    58   30   31 1   
    59   30   55 1   
    60   30   56 1   
    61   31   32 1   
    62   31   57 1   
    63   31   58 1   
    64   32   59 1   
    65   32   60 1   
    66   33   34 ar  
    67   33   61 1   
    68   34   62 1   
@<TRIPOS>SUBSTRUCTURE
     1 0CE         1 TEMP              0 ****  ****    0 ROOT
