@<TRIPOS>MOLECULE
0CG
   15    14     1     0     0
SMALL
bcc


@<TRIPOS>ATOM
      1 O20         0.1080   -0.5740    0.2220 o         1 0CG     -0.957500
      2 P17         1.5400   -0.1330    0.0960 p5        1 0CG      1.458900
      3 O18         2.0780    0.6040    1.2910 o         1 0CG     -0.957500
      4 O19         2.4710   -1.1730   -0.4620 o         1 0CG     -0.957500
      5 O16         1.4500    1.1170   -1.1900 os        1 0CG     -0.798800
      6 P13         1.2530    2.1730   -2.3050 p5        1 0CG      1.573800
      7 O14         0.9380    1.6590   -3.6710 o         1 0CG     -0.931500
      8 O15         0.5450    3.4310   -1.9220 o         1 0CG     -0.931500
      9 O29         2.8530    2.7900   -2.5710 os        1 0CG     -0.546200
     10 C28         2.7880    3.7500   -3.5580 c3        1 0CG      0.225500
     11 C27         4.0810    4.3410   -3.8660 c1        1 0CG      0.004900
     12 C30         5.1160    4.8690   -4.1680 c1        1 0CG     -0.379500
     13 H4          2.0850    4.5770   -3.2300 h1        1 0CG      0.042700
     14 H5          2.3720    3.2860   -4.5050 h1        1 0CG      0.042700
     15 H6          6.0400    5.3130   -4.4090 ha        1 0CG      0.112500
@<TRIPOS>BOND
     1    1    2 1   
     2    2    3 1   
     3    2    4 1   
     4    2    5 1   
     5    5    6 1   
     6    6    7 1   
     7    6    8 1   
     8    6    9 1   
     9    9   10 1   
    10   10   11 1   
    11   10   13 1   
    12   10   14 1   
    13   11   12 3   
    14   12   15 1   
@<TRIPOS>SUBSTRUCTURE
     1 0CG         1 TEMP              0 ****  ****    0 ROOT
