@<TRIPOS>MOLECULE
0CG
   15    14     1     0     0
SMALL
bcc


@<TRIPOS>ATOM
      1 O20         0.1240   -0.5690    0.2340 o         1 0CG     -0.957500
      2 P17         1.5590   -0.1400    0.0910 p5        1 0CG      1.458900
      3 O18         2.1200    0.5830    1.2840 o         1 0CG     -0.957500
      4 O19         2.4720   -1.1850   -0.4880 o         1 0CG     -0.957500
      5 O16         1.4620    1.1190   -1.1850 os        1 0CG     -0.798800
      6 P13         1.2590    2.1860   -2.2890 p5        1 0CG      1.573800
      7 O14         0.9200    1.6840   -3.6540 o         1 0CG     -0.931500
      8 O15         0.5680    3.4470   -1.8870 o         1 0CG     -0.931500
      9 O29         2.8610    2.7900   -2.5730 os        1 0CG     -0.546200
     10 C28         2.7910    3.7580   -3.5520 c3        1 0CG      0.225500
     11 C27         4.0850    4.3400   -3.8740 c1        1 0CG      0.004900
     12 C30         5.1200    4.8600   -4.1870 c1        1 0CG     -0.379500
     13 H4          2.1000    4.5890   -3.2090 h1        1 0CG      0.042700
     14 H5          2.3570    3.3040   -4.4970 h1        1 0CG      0.042700
     15 H6          6.0450    5.2970   -4.4380 ha        1 0CG      0.112500
@<TRIPOS>BOND
     1    1    2 1   
     2    2    3 1   
     3    2    4 1   
     4    2    5 1   
     5    5    6 1   
     6    6    7 1   
     7    6    8 1   
     8    6    9 1   
     9    9   10 1   
    10   10   11 1   
    11   10   13 1   
    12   10   14 1   
    13   11   12 3   
    14   12   15 1   
@<TRIPOS>SUBSTRUCTURE
     1 0CG         1 TEMP              0 ****  ****    0 ROOT
