@<TRIPOS>MOLECULE
0CG
   15    11     1     0     0
SMALL
bcc


@<TRIPOS>ATOM
      1 O20        -2.0940   -3.0870    0.8370 o         1 0CG     -1.277000
      2 P17        -0.6040   -3.2230    0.6400 p3        1 0CG      2.651000
      3 O18         0.0680   -3.3850    1.9830 o         1 0CG     -1.277000
      4 O19        -0.3170   -4.4330   -0.2160 o         1 0CG     -1.277000
      5 O16        -0.0460   -1.9280   -0.0740 o         1 0CG     -1.258500
      6 P13        -0.1200   -0.4800    0.5550 p3        1 0CG      2.680000
      7 O14         0.7730   -0.4140    1.7720 o         1 0CG     -1.258500
      8 O15        -1.5430   -0.1780    0.9590 os        1 0CG     -1.251000
      9 O29         0.3620    0.5830   -0.5100 os        1 0CG     -0.708000
     10 C28         0.4940    1.9260   -0.1070 c3        1 0CG      0.102000
     11 C27         0.5960    2.8130   -1.3280 c1        1 0CG     -0.022000
     12 C30         0.6750    3.5100   -2.2910 c1        1 0CG     -0.437000
     13 H4          1.3030    2.0260    0.4370 h1        1 0CG      0.082000
     14 H5         -0.2890    2.1870    0.4220 h1        1 0CG      0.082000
     15 H6          0.7410    4.0820   -3.0790 DU        1 0CG      0.170000
@<TRIPOS>BOND
     1    1    2 1   
     2    2    3 1   
     3    2    4 1   
     4    5    6 1   
     5    6    7 1   
     6    6    9 1   
     7    9   10 1   
     8   10   11 1   
     9   10   13 1   
    10   10   14 1   
    11   11   12 1   
@<TRIPOS>SUBSTRUCTURE
     1 0CG         1 TEMP              0 ****  ****    0 ROOT
