@<TRIPOS>MOLECULE
0CG
   15    14     1     0     0
SMALL
bcc


@<TRIPOS>ATOM
      1 O20        -3.3220   -0.7310    0.0940 o         1 0CG     -0.957500
      2 P17        -2.4390    0.4790   -0.0430 p5        1 0CG      1.458900
      3 O18        -2.4790    1.1360   -1.3940 o         1 0CG     -0.957500
      4 O19        -2.5020    1.4360    1.1150 o         1 0CG     -0.957500
      5 O16        -0.7920   -0.2290    0.0570 os        1 0CG     -0.798800
      6 P13         0.5750   -0.9480    0.1550 p5        1 0CG      1.573800
      7 O14         0.9540   -1.4940    1.4940 o         1 0CG     -0.931500
      8 O15         0.9770   -1.7920   -1.0100 o         1 0CG     -0.931500
      9 O29         1.7270    0.3410    0.0120 os        1 0CG     -0.546200
     10 C28         2.9940   -0.1980    0.0880 c3        1 0CG      0.225500
     11 C27         4.0470    0.7980   -0.0210 c1        1 0CG      0.004900
     12 C30         4.9630    1.5700   -0.1050 c1        1 0CG     -0.379500
     13 H4          3.1120   -0.7380    1.0790 h1        1 0CG      0.042700
     14 H5          3.1280   -0.9560   -0.7460 h1        1 0CG      0.042700
     15 H6          5.7450    2.2710   -0.1820 ha        1 0CG      0.112500
@<TRIPOS>BOND
     1    1    2 1   
     2    2    3 1   
     3    2    4 1   
     4    2    5 1   
     5    5    6 1   
     6    6    7 1   
     7    6    8 1   
     8    6    9 1   
     9    9   10 1   
    10   10   11 1   
    11   10   13 1   
    12   10   14 1   
    13   11   12 3   
    14   12   15 1   
@<TRIPOS>SUBSTRUCTURE
     1 0CG         1 TEMP              0 ****  ****    0 ROOT
