@<TRIPOS>MOLECULE
0CH
   23    22     1     0     0
SMALL
bcc


@<TRIPOS>ATOM
      1 O20         0.6350    0.4260    1.0200 o         1 0CH     -0.960167
      2 P17         1.8000    0.1470    0.1090 p5        1 0CH      1.461900
      3 O19         3.1470    0.4590    0.7020 o         1 0CH     -0.960167
      4 O18         1.7310   -1.1730   -0.6090 o         1 0CH     -0.960167
      5 O16         1.5910    1.3670   -1.1830 os        1 0CH     -0.801800
      6 P13         1.3540    2.4600   -2.2580 p5        1 0CH      1.577800
      7 O15         1.6100    3.8720   -1.8410 o         1 0CH     -0.933500
      8 O14         0.1880    2.2610   -3.1670 o         1 0CH     -0.933500
      9 O29         2.6730    2.2280   -3.3470 os        1 0CH     -0.558200
     10 C28         2.7190    3.1420   -4.3660 c3        1 0CH      0.255400
     11 C27         3.8730    4.1410   -4.1670 c3        1 0CH     -0.139400
     12 C30         4.0270    5.0610   -5.3570 c3        1 0CH     -0.066400
     13 C13         5.0210    6.1610   -5.0330 c3        1 0CH      0.122400
     14 O33         5.2250    6.9550   -6.2020 oh        1 0CH     -0.626800
     15 H4          1.7500    3.7120   -4.4480 h1        1 0CH     -0.023300
     16 H5          2.9020    2.6070   -5.3480 h1        1 0CH     -0.023300
     17 H6          4.8220    3.5730   -3.9960 hc        1 0CH      0.055200
     18 H7          3.6530    4.7300   -3.2370 hc        1 0CH      0.055200
     19 H8          4.3780    4.4920   -6.2550 hc        1 0CH      0.030200
     20 H9          3.0380    5.5210   -5.6170 hc        1 0CH      0.030200
     21 H10         6.0070    5.7230   -4.7190 h1        1 0CH      0.017700
     22 H11         4.6310    6.8050   -4.2010 h1        1 0CH      0.017700
     23 H12         5.7420    7.7150   -5.9180 ho        1 0CH      0.365000
@<TRIPOS>BOND
     1    1    2 1   
     2    2    3 1   
     3    2    4 1   
     4    2    5 1   
     5    5    6 1   
     6    6    7 1   
     7    6    8 1   
     8    6    9 1   
     9    9   10 1   
    10   10   11 1   
    11   10   15 1   
    12   10   16 1   
    13   11   12 1   
    14   11   17 1   
    15   11   18 1   
    16   12   13 1   
    17   12   19 1   
    18   12   20 1   
    19   13   14 1   
    20   13   21 1   
    21   13   22 1   
    22   14   23 1   
@<TRIPOS>SUBSTRUCTURE
     1 0CH         1 TEMP              0 ****  ****    0 ROOT
