@<TRIPOS>MOLECULE
0CH
   23    22     1     0     0
SMALL
bcc


@<TRIPOS>ATOM
      1 O20         0.6590    0.4460    1.0460 o         1 0CH     -0.960167
      2 P17         1.7870    0.1410    0.0990 p5        1 0CH      1.461900
      3 O19         3.1600    0.3990    0.6560 o         1 0CH     -0.960167
      4 O18         1.6530   -1.1650   -0.6350 o         1 0CH     -0.960167
      5 O16         1.5830    1.3860   -1.1700 os        1 0CH     -0.801800
      6 P13         1.3530    2.5010   -2.2230 p5        1 0CH      1.577800
      7 O15         1.6660    3.8980   -1.7940 o         1 0CH     -0.933500
      8 O14         0.1550    2.3550   -3.1020 o         1 0CH     -0.933500
      9 O29         2.6320    2.2420   -3.3530 os        1 0CH     -0.558200
     10 C28         2.6800    3.1700   -4.3590 c3        1 0CH      0.255400
     11 C27         3.8710    4.1270   -4.1790 c3        1 0CH     -0.139400
     12 C30         4.0220    5.0590   -5.3600 c3        1 0CH     -0.066400
     13 C13         5.0600    6.1220   -5.0500 c3        1 0CH      0.122400
     14 O33         5.2570    6.9270   -6.2120 oh        1 0CH     -0.626800
     15 H4          1.7280    3.7720   -4.4060 h1        1 0CH     -0.023300
     16 H5          2.8170    2.6430   -5.3540 h1        1 0CH     -0.023300
     17 H6          4.8050    3.5260   -4.0430 hc        1 0CH      0.055200
     18 H7          3.6970    4.7090   -3.2360 hc        1 0CH      0.055200
     19 H8          4.3300    4.4930   -6.2760 hc        1 0CH      0.030200
     20 H9          3.0420    5.5540   -5.5870 hc        1 0CH      0.030200
     21 H10         4.7140    6.7650   -4.1970 h1        1 0CH      0.017700
     22 H11         6.0400    5.6480   -4.7690 h1        1 0CH      0.017700
     23 H12         5.8050    7.6660   -5.9320 ho        1 0CH      0.365000
@<TRIPOS>BOND
     1    1    2 1   
     2    2    3 1   
     3    2    4 1   
     4    2    5 1   
     5    5    6 1   
     6    6    7 1   
     7    6    8 1   
     8    6    9 1   
     9    9   10 1   
    10   10   11 1   
    11   10   15 1   
    12   10   16 1   
    13   11   12 1   
    14   11   17 1   
    15   11   18 1   
    16   12   13 1   
    17   12   19 1   
    18   12   20 1   
    19   13   14 1   
    20   13   21 1   
    21   13   22 1   
    22   14   23 1   
@<TRIPOS>SUBSTRUCTURE
     1 0CH         1 TEMP              0 ****  ****    0 ROOT
