@<TRIPOS>MOLECULE
0CH
   23    22     1     0     0
SMALL
bcc


@<TRIPOS>ATOM
      1 O20         0.6540    0.3860    1.0010 o         1 0CH     -0.960167
      2 P17         1.8160    0.1150    0.0840 p5        1 0CH      1.461900
      3 O19         3.1650    0.4230    0.6740 o         1 0CH     -0.960167
      4 O18         1.7460   -1.1990   -0.6450 o         1 0CH     -0.960167
      5 O16         1.6010    1.3450   -1.1980 os        1 0CH     -0.801800
      6 P13         1.3600    2.4460   -2.2630 p5        1 0CH      1.577800
      7 O15         1.6140    3.8560   -1.8350 o         1 0CH     -0.933500
      8 O14         0.1910    2.2540   -3.1700 o         1 0CH     -0.933500
      9 O29         2.6760    2.2250   -3.3580 os        1 0CH     -0.558200
     10 C28         2.7170    3.1490   -4.3690 c3        1 0CH      0.255400
     11 C27         3.8700    4.1470   -4.1640 c3        1 0CH     -0.139400
     12 C30         4.0190    5.0780   -5.3470 c3        1 0CH     -0.066400
     13 C13         5.0120    6.1770   -5.0160 c3        1 0CH      0.122400
     14 O33         5.2110    6.9830   -6.1780 oh        1 0CH     -0.626800
     15 H4          1.7470    3.7180   -4.4430 h1        1 0CH     -0.023300
     16 H5          2.8980    2.6230   -5.3560 h1        1 0CH     -0.023300
     17 H6          4.8210    3.5800   -4.0010 hc        1 0CH      0.055200
     18 H7          3.6520    4.7280   -3.2290 hc        1 0CH      0.055200
     19 H8          4.3710    4.5180   -6.2510 hc        1 0CH      0.030200
     20 H9          3.0290    5.5370   -5.6020 hc        1 0CH      0.030200
     21 H10         4.6210    6.8130   -4.1770 h1        1 0CH      0.017700
     22 H11         5.9990    5.7390   -4.7070 h1        1 0CH      0.017700
     23 H12         5.7260    7.7420   -5.8890 ho        1 0CH      0.365000
@<TRIPOS>BOND
     1    1    2 1   
     2    2    3 1   
     3    2    4 1   
     4    2    5 1   
     5    5    6 1   
     6    6    7 1   
     7    6    8 1   
     8    6    9 1   
     9    9   10 1   
    10   10   11 1   
    11   10   15 1   
    12   10   16 1   
    13   11   12 1   
    14   11   17 1   
    15   11   18 1   
    16   12   13 1   
    17   12   19 1   
    18   12   20 1   
    19   13   14 1   
    20   13   21 1   
    21   13   22 1   
    22   14   23 1   
@<TRIPOS>SUBSTRUCTURE
     1 0CH         1 TEMP              0 ****  ****    0 ROOT
