@<TRIPOS>MOLECULE
0CH
   23    22     1     0     0
SMALL
bcc


@<TRIPOS>ATOM
      1 O20        -3.9710   -0.1380   -1.0870 o         1 0CH     -0.960167
      2 P17        -3.1390    0.7260   -0.1790 p5        1 0CH      1.461900
      3 O19        -2.8050    2.0820   -0.7370 o         1 0CH     -0.960167
      4 O18        -3.5880    0.7410    1.2560 o         1 0CH     -0.960167
      5 O16        -1.5710   -0.1370   -0.1440 os        1 0CH     -0.801800
      6 P13        -0.2380   -0.9290   -0.1730 p5        1 0CH      1.577800
      7 O15         0.5360   -0.8860   -1.4510 o         1 0CH     -0.933500
      8 O14        -0.2250   -2.2410    0.5390 o         1 0CH     -0.933500
      9 O29         0.7990    0.0130    0.8360 os        1 0CH     -0.558200
     10 C28         2.0820   -0.4610    0.9090 c3        1 0CH      0.255400
     11 C27         3.0540    0.4410    0.1300 c3        1 0CH     -0.139400
     12 C30         4.4920    0.0130    0.3260 c3        1 0CH     -0.066400
     13 C13         5.3930    0.7830   -0.6220 c3        1 0CH      0.122400
     14 O33         6.7500    0.4360   -0.3500 oh        1 0CH     -0.626800
     15 H4          2.4220   -0.4700    1.9900 h1        1 0CH     -0.023300
     16 H5          2.1530   -1.5120    0.5070 h1        1 0CH     -0.023300
     17 H6          2.7700    0.3870   -0.9550 hc        1 0CH      0.055200
     18 H7          2.9200    1.5000    0.4670 hc        1 0CH      0.055200
     19 H8          4.8190    0.1950    1.3810 hc        1 0CH      0.030200
     20 H9          4.5960   -1.0850    0.1270 hc        1 0CH      0.030200
     21 H10         5.1430    0.5280   -1.6870 h1        1 0CH      0.017700
     22 H11         5.2670    1.8900   -0.4770 h1        1 0CH      0.017700
     23 H12         7.2710    0.8270   -1.0580 ho        1 0CH      0.365000
@<TRIPOS>BOND
     1    1    2 1   
     2    2    3 1   
     3    2    4 1   
     4    2    5 1   
     5    5    6 1   
     6    6    7 1   
     7    6    8 1   
     8    6    9 1   
     9    9   10 1   
    10   10   11 1   
    11   10   15 1   
    12   10   16 1   
    13   11   12 1   
    14   11   17 1   
    15   11   18 1   
    16   12   13 1   
    17   12   19 1   
    18   12   20 1   
    19   13   14 1   
    20   13   21 1   
    21   13   22 1   
    22   14   23 1   
@<TRIPOS>SUBSTRUCTURE
     1 0CH         1 TEMP              0 ****  ****    0 ROOT
