@<TRIPOS>MOLECULE
0CH
   23    20     1     0     0
SMALL
bcc


@<TRIPOS>ATOM
      1 O20        -4.5150    3.3440    2.5110 o         1 0CH     -1.247333
      2 P17        -3.0050    3.3440    2.5110 p3        1 0CH      2.571000
      3 O19        -2.5010    3.3440    3.9350 o         1 0CH     -1.247333
      4 O18        -2.5010    4.5770    1.7990 o         1 0CH     -1.247333
      5 O16        -2.4780    2.0540    1.7660 o         1 0CH     -1.227500
      6 P13        -1.0670    1.9660    1.0590 p3        1 0CH      2.706000
      7 O15        -1.0460    2.8820   -0.1400 os        1 0CH     -1.265000
      8 O14         0.0100    2.3840    2.0320 o         1 0CH     -1.227500
      9 O29        -0.8040    0.4790    0.5910 os        1 0CH     -0.715000
     10 C28         0.3340    0.2140   -0.1960 c3        1 0CH      0.150000
     11 C27         0.4180   -1.2700   -0.4770 c3        1 0CH     -0.241000
     12 C30         1.6080   -1.5470   -1.3690 c3        1 0CH     -0.138000
     13 C13         1.7080   -3.0350   -1.6290 c3        1 0CH     -0.030000
     14 O33         2.8090   -3.2920   -2.4710 oh        1 0CH     -0.361000
     15 H4          1.1340    0.5010    0.2840 h1        1 0CH     -0.021500
     16 H5          0.2670    0.7020   -1.0390 h1        1 0CH     -0.021500
     17 H6          0.5220   -1.7550    0.3640 hc        1 0CH      0.087500
     18 H7         -0.3990   -1.5640   -0.9230 hc        1 0CH      0.087500
     19 H8          1.4960   -1.0760   -2.2160 hc        1 0CH      0.062000
     20 H9          2.4230   -1.2390   -0.9300 hc        1 0CH      0.062000
     21 H10         0.8890   -3.3450   -2.0600 h1        1 0CH      0.054500
     22 H11         1.8280   -3.5050   -0.7820 h1        1 0CH      0.054500
     23 H12         2.8690   -4.1640   -2.6220 ho        1 0CH      0.158000
@<TRIPOS>BOND
     1    1    2 1   
     2    2    3 1   
     3    2    4 1   
     4    5    6 1   
     5    6    8 1   
     6    6    9 1   
     7    9   10 1   
     8   10   11 1   
     9   10   15 1   
    10   10   16 1   
    11   11   12 1   
    12   11   17 1   
    13   11   18 1   
    14   12   13 1   
    15   12   19 1   
    16   12   20 1   
    17   13   14 1   
    18   13   21 1   
    19   13   22 1   
    20   14   23 1   
@<TRIPOS>SUBSTRUCTURE
     1 0CH         1 TEMP              0 ****  ****    0 ROOT
