@<TRIPOS>MOLECULE
0CJ
   24    23     1     0     0
SMALL
bcc


@<TRIPOS>ATOM
      1 O25         2.2930    0.2200    0.4510 o         1 0CJ     -0.679100
      2 C13         1.9430    0.2560   -0.7470 c         1 0CJ      0.606100
      3 C22         1.5500    1.5270   -1.4180 c3        1 0CJ     -0.235100
      4 C30         1.9500   -0.9530   -1.6260 c3        1 0CJ     -0.233400
      5 C27         0.5610   -1.4280   -2.0000 c3        1 0CJ     -0.090400
      6 C28         0.4990   -1.8390   -3.4840 c3        1 0CJ      0.219400
      7 O29         0.4010   -0.7480   -4.3100 os        1 0CJ     -0.568200
      8 P13         1.7990   -0.3400   -5.2140 p5        1 0CJ      1.585800
      9 O15         2.5390    0.4820   -4.1960 o         1 0CJ     -0.929500
     10 O14         2.4060   -1.6760   -5.4850 o         1 0CJ     -0.929500
     11 O16         1.2190    0.4300   -6.4200 os        1 0CJ     -0.795800
     12 P17         0.6070    1.3370   -7.8500 p5        1 0CJ      1.456900
     13 O20        -0.2910    0.3530   -8.5430 o         1 0CJ     -0.955167
     14 O18        -0.1020    2.5190   -7.2510 o         1 0CJ     -0.955167
     15 O19         1.8740    1.6680   -8.5890 o         1 0CJ     -0.955167
     16 H1          1.7700    2.4140   -0.7810 hc        1 0CJ      0.083700
     17 H2          0.4600    1.5030   -1.6640 hc        1 0CJ      0.083700
     18 H3          2.0940    1.5960   -2.4130 hc        1 0CJ      0.083700
     19 H4          2.5280   -1.7790   -1.1420 hc        1 0CJ      0.104200
     20 H5          2.4750   -0.6410   -2.6050 hc        1 0CJ      0.104200
     21 H6         -0.1910   -0.6160   -1.8310 hc        1 0CJ      0.000700
     22 H7          0.2720   -2.3010   -1.3580 hc        1 0CJ      0.000700
     23 H8          1.3990   -2.4680   -3.7430 h1        1 0CJ     -0.002300
     24 H9         -0.4300   -2.4740   -3.6050 h1        1 0CJ     -0.002300
@<TRIPOS>BOND
     1    1    2 2   
     2    2    3 1   
     3    2    4 1   
     4    3   16 1   
     5    3   17 1   
     6    3   18 1   
     7    4    5 1   
     8    4   19 1   
     9    4   20 1   
    10    5    6 1   
    11    5   21 1   
    12    5   22 1   
    13    6    7 1   
    14    6   23 1   
    15    6   24 1   
    16    7    8 1   
    17    8    9 1   
    18    8   10 1   
    19    8   11 1   
    20   11   12 1   
    21   12   13 1   
    22   12   14 1   
    23   12   15 1   
@<TRIPOS>SUBSTRUCTURE
     1 0CJ         1 TEMP              0 ****  ****    0 ROOT
