@<TRIPOS>MOLECULE
0CJ
   24    21     1     0     0
SMALL
bcc


@<TRIPOS>ATOM
      1 O25        -1.4100    0.1750    3.5750 o         1 0CJ     -0.440000
      2 C13        -0.1960    0.1360    3.5560 c1        1 0CJ      0.267000
      3 C22         0.5760   -0.0270    4.8460 c3        1 0CJ     -0.303000
      4 C30         0.5440    0.2540    2.2410 c2        1 0CJ     -0.262000
      5 C27        -0.4060   -0.0350    1.1000 c3        1 0CJ     -0.169000
      6 C28         0.3560   -0.0190   -0.2070 c3        1 0CJ      0.069000
      7 O29        -0.5500   -0.1300   -1.2800 os        1 0CJ     -0.730000
      8 P13         0.0130   -0.0320   -2.7540 p3        1 0CJ      2.692000
      9 O15         0.5820    1.3470   -2.9850 os        1 0CJ     -1.249000
     10 O14         1.0990   -1.0640   -2.9470 o         1 0CJ     -1.249000
     11 O16        -1.1570   -0.2990   -3.7830 os        1 0CJ     -1.263000
     12 P17        -0.9850   -0.1940   -5.3510 p5        1 0CJ      1.690500
     13 O20         0.0800   -1.1630   -5.8070 o         1 0CJ     -0.955167
     14 O18        -0.5770    1.2130   -5.7180 o         1 0CJ     -0.955167
     15 O19        -2.2940   -0.5300   -6.0240 o         1 0CJ     -0.955167
     16 H1          1.2000    0.7220    4.9510 hc        1 0CJ      0.123000
     17 H2         -0.0490   -0.0400    5.6010 hc        1 0CJ      0.123000
     18 H3          1.0780   -0.8690    4.8230 hc        1 0CJ      0.123000
     19 H4          1.2810   -0.3900    2.2230 ha        1 0CJ      0.143500
     20 H5          0.9010    1.1600    2.1480 ha        1 0CJ      0.143500
     21 H6         -0.8130   -0.9150    1.2290 hc        1 0CJ      0.040000
     22 H7         -1.1060    0.6480    1.0780 hc        1 0CJ      0.040000
     23 H8          0.9820   -0.7720   -0.2290 h1        1 0CJ      0.037000
     24 H9          0.8530    0.8210   -0.2850 h1        1 0CJ      0.037000
@<TRIPOS>BOND
     1    1    2 1   
     2    2    3 1   
     3    3   16 1   
     4    3   17 1   
     5    3   18 1   
     6    4    5 1   
     7    4   19 1   
     8    4   20 1   
     9    5    6 1   
    10    5   21 1   
    11    5   22 1   
    12    6    7 1   
    13    6   23 1   
    14    6   24 1   
    15    7    8 1   
    16    8   10 1   
    17    8   11 1   
    18   11   12 1   
    19   12   13 1   
    20   12   14 1   
    21   12   15 1   
@<TRIPOS>SUBSTRUCTURE
     1 0CJ         1 TEMP              0 ****  ****    0 ROOT
