@<TRIPOS>MOLECULE
0CJ
   24    23     1     0     0
SMALL
bcc


@<TRIPOS>ATOM
      1 O25         0.6470    1.0430    0.3210 o         1 0CJ     -0.675100
      2 C13         1.0760    0.6620   -0.7870 c         1 0CJ      0.606100
      3 C22         2.5340    0.6600   -1.0990 c3        1 0CJ     -0.235100
      4 C30         0.1700    0.2310   -1.8960 c3        1 0CJ     -0.226400
      5 C27         0.1690   -1.2660   -2.1220 c3        1 0CJ     -0.083400
      6 C28         1.1330   -1.6940   -3.2420 c3        1 0CJ      0.233400
      7 O29         0.7930   -1.1300   -4.4470 os        1 0CJ     -0.563200
      8 P13         2.0170   -0.1390   -5.1350 p5        1 0CJ      1.585800
      9 O15         2.0430    0.9740   -4.1260 o         1 0CJ     -0.932500
     10 O14         3.2000   -1.0450   -5.0740 o         1 0CJ     -0.932500
     11 O16         1.4520    0.2110   -6.5280 os        1 0CJ     -0.795800
     12 P17         0.8790    0.6650   -8.1760 p5        1 0CJ      1.455900
     13 O20         0.7280   -0.6530   -8.8810 o         1 0CJ     -0.954167
     14 O18        -0.4110    1.3910   -7.9210 o         1 0CJ     -0.954167
     15 O19         2.0030    1.5260   -8.6790 o         1 0CJ     -0.954167
     16 H1          2.8920   -0.3940   -1.1930 hc        1 0CJ      0.078700
     17 H2          3.1240    1.1850   -0.3120 hc        1 0CJ      0.078700
     18 H3          2.6860    1.1450   -2.1130 hc        1 0CJ      0.078700
     19 H4          0.5430    0.7170   -2.8730 hc        1 0CJ      0.111200
     20 H5         -0.8690    0.5880   -1.6800 hc        1 0CJ      0.111200
     21 H6         -0.8660   -1.5770   -2.4160 hc        1 0CJ     -0.002800
     22 H7          0.4340   -1.8120   -1.1790 hc        1 0CJ     -0.002800
     23 H8          2.1890   -1.4260   -2.9520 h1        1 0CJ     -0.014300
     24 H9          1.0590   -2.8220   -3.3130 h1        1 0CJ     -0.014300
@<TRIPOS>BOND
     1    1    2 2   
     2    2    3 1   
     3    2    4 1   
     4    3   16 1   
     5    3   17 1   
     6    3   18 1   
     7    4    5 1   
     8    4   19 1   
     9    4   20 1   
    10    5    6 1   
    11    5   21 1   
    12    5   22 1   
    13    6    7 1   
    14    6   23 1   
    15    6   24 1   
    16    7    8 1   
    17    8    9 1   
    18    8   10 1   
    19    8   11 1   
    20   11   12 1   
    21   12   13 1   
    22   12   14 1   
    23   12   15 1   
@<TRIPOS>SUBSTRUCTURE
     1 0CJ         1 TEMP              0 ****  ****    0 ROOT
