@<TRIPOS>MOLECULE
0CJ
   24    23     1     0     0
SMALL
bcc


@<TRIPOS>ATOM
      1 O25        -5.6820   -1.1540    0.6850 o         1 0CJ     -0.689100
      2 C13        -4.4570   -1.0180    0.4710 c         1 0CJ      0.593100
      3 C22        -3.5050   -2.1450    0.6490 c3        1 0CJ     -0.249100
      4 C30        -3.8850    0.2990    0.0450 c3        1 0CJ     -0.161400
      5 C27        -2.7580    0.1750   -0.9530 c3        1 0CJ     -0.149400
      6 C28        -2.1440    1.5410   -1.2680 c3        1 0CJ      0.221400
      7 O29        -1.7450    2.2190   -0.1350 os        1 0CJ     -0.584200
      8 P13        -0.0690    2.3820    0.0970 p5        1 0CJ      1.575800
      9 O15         0.4330    2.6320   -1.2870 o         1 0CJ     -0.922500
     10 O14         0.0220    3.5110    1.0640 o         1 0CJ     -0.922500
     11 O16         0.3040    0.9710    0.6690 os        1 0CJ     -0.819800
     12 P17         0.6210   -0.6420    1.2880 p5        1 0CJ      1.478900
     13 O20         0.6690   -0.5060    2.7820 o         1 0CJ     -0.962500
     14 O18        -0.5990   -1.3910    0.7850 o         1 0CJ     -0.962500
     15 O19         1.9140   -1.0600    0.6500 o         1 0CJ     -0.962500
     16 H1         -3.1990   -2.5280   -0.3560 hc        1 0CJ      0.090700
     17 H2         -2.5290   -1.7870    1.1270 hc        1 0CJ      0.090700
     18 H3         -3.9590   -2.9730    1.2410 hc        1 0CJ      0.090700
     19 H4         -4.7030    0.9550   -0.3530 hc        1 0CJ      0.063700
     20 H5         -3.4540    0.8030    0.9590 hc        1 0CJ      0.063700
     21 H6         -1.9410   -0.4870   -0.5170 hc        1 0CJ      0.071700
     22 H7         -3.1350   -0.2850   -1.9030 hc        1 0CJ      0.071700
     23 H8         -1.2740    1.3980   -1.9710 h1        1 0CJ     -0.013800
     24 H9         -2.9300    2.1640   -1.7990 h1        1 0CJ     -0.013800
@<TRIPOS>BOND
     1    1    2 2   
     2    2    3 1   
     3    2    4 1   
     4    3   16 1   
     5    3   17 1   
     6    3   18 1   
     7    4    5 1   
     8    4   19 1   
     9    4   20 1   
    10    5    6 1   
    11    5   21 1   
    12    5   22 1   
    13    6    7 1   
    14    6   23 1   
    15    6   24 1   
    16    7    8 1   
    17    8    9 1   
    18    8   10 1   
    19    8   11 1   
    20   11   12 1   
    21   12   13 1   
    22   12   14 1   
    23   12   15 1   
@<TRIPOS>SUBSTRUCTURE
     1 0CJ         1 TEMP              0 ****  ****    0 ROOT
