@<TRIPOS>MOLECULE
0CK
   45    48     1     0     0
SMALL
bcc


@<TRIPOS>ATOM
      1 C7         -0.3520    0.4410    0.0990 cc        1 0CK     -0.268100
      2 N2         -1.5980    1.0860    0.0560 na        1 0CK     -0.186900
      3 C8         -1.3300    2.4610    0.0280 cc        1 0CK      0.406400
      4 N3         -0.0070    2.7180    0.0630 nd        1 0CK     -0.663000
      5 C9          0.6280    1.4680    0.1060 cd        1 0CK      0.392800
      6 C10        -0.7280   -1.7530    1.1970 ca        1 0CK     -0.424600
      7 C11        -0.5000   -3.1400    1.1890 ca        1 0CK      0.464200
      8 N4          0.1800   -3.7750    0.2260 nb        1 0CK     -0.747000
      9 C12         0.6570   -2.9760   -0.8140 ca        1 0CK      0.868900
     10 N5          0.5030   -1.5940   -0.8870 nb        1 0CK     -0.728000
     11 C13        -0.1840   -1.0140    0.1210 ca        1 0CK      0.557800
     12 C14        -3.8000    0.8360    1.1700 c3        1 0CK     -0.088900
     13 C15        -2.9020    0.4650   -0.0240 c3        1 0CK      0.046000
     14 C16        -3.6350    0.8020   -1.3360 c3        1 0CK     -0.088900
     15 C17        -4.9500    0.0550   -1.4050 c3        1 0CK     -0.077400
     16 C18        -5.8330    0.3720   -0.2160 c3        1 0CK     -0.081400
     17 C19        -5.1150    0.0900    1.0860 c3        1 0CK     -0.077400
     18 C1          4.0200    0.1330    1.0060 ca        1 0CK     -0.171000
     19 C2          4.8520    1.0210    0.3000 ca        1 0CK      0.122900
     20 C3          4.2900    2.0590   -0.4660 ca        1 0CK     -0.171000
     21 C4          2.9080    2.2000   -0.5230 ca        1 0CK     -0.084000
     22 C5          2.0700    1.3130    0.1710 ca        1 0CK     -0.111500
     23 C6          2.6400    0.2870    0.9380 ca        1 0CK     -0.084000
     24 H1         -2.1260    3.2120   -0.0110 h5        1 0CK      0.063100
     25 H2         -1.2810   -1.2640    2.0050 ha        1 0CK      0.158000
     26 H3         -0.8780   -3.7830    2.0060 h4        1 0CK      0.028100
     27 H4          1.6020   -4.5370   -1.7400 hn        1 0CK      0.432800
     28 H5          1.8120   -3.0410   -2.5030 hn        1 0CK      0.432800
     29 H6         -3.2830    0.5750    2.1310 hc        1 0CK      0.053200
     30 H7         -3.9890    1.9410    1.1730 hc        1 0CK      0.053200
     31 H8         -2.7320   -0.6560    0.0030 h1        1 0CK      0.078700
     32 H9         -3.8210    1.9060   -1.3910 hc        1 0CK      0.053200
     33 H10        -2.9970    0.5180   -2.2130 hc        1 0CK      0.053200
     34 H11        -5.4800    0.3340   -2.3530 hc        1 0CK      0.046950
     35 H12        -4.7530   -1.0490   -1.4430 hc        1 0CK      0.046950
     36 H13        -6.1350    1.4520   -0.2520 hc        1 0CK      0.045200
     37 H14        -6.7690   -0.2410   -0.2700 hc        1 0CK      0.045200
     38 H15        -4.9280   -1.0130    1.1800 hc        1 0CK      0.046950
     39 H16        -5.7640    0.3950    1.9480 hc        1 0CK      0.046950
     40 H17         4.4670   -0.6710    1.6080 ha        1 0CK      0.146000
     41 H18         4.9480    2.7510   -1.0110 ha        1 0CK      0.146000
     42 H19         2.4690    3.0160   -1.1190 ha        1 0CK      0.145500
     43 H20         1.9870   -0.4030    1.4940 ha        1 0CK      0.145500
     44 N1          1.2760   -3.6110   -1.8900 nh        1 0CK     -0.927500
     45 F1          6.1980    0.8760    0.3590 f         1 0CK     -0.144900
@<TRIPOS>BOND
     1    1    2 1   
     2    1    5 2   
     3    1   11 1   
     4    2    3 1   
     5    2   13 1   
     6    3    4 2   
     7    3   24 1   
     8    4    5 1   
     9    5   22 1   
    10    6    7 ar  
    11    6   11 ar  
    12    6   25 1   
    13    7    8 ar  
    14    7   26 1   
    15    8    9 ar  
    16    9   10 ar  
    17    9   44 1   
    18   10   11 ar  
    19   12   13 1   
    20   12   17 1   
    21   12   29 1   
    22   12   30 1   
    23   13   14 1   
    24   13   31 1   
    25   14   15 1   
    26   14   32 1   
    27   14   33 1   
    28   15   16 1   
    29   15   34 1   
    30   15   35 1   
    31   16   17 1   
    32   16   36 1   
    33   16   37 1   
    34   17   38 1   
    35   17   39 1   
    36   18   19 ar  
    37   18   23 ar  
    38   18   40 1   
    39   19   20 ar  
    40   19   45 1   
    41   20   21 ar  
    42   20   41 1   
    43   21   22 ar  
    44   21   42 1   
    45   22   23 ar  
    46   23   43 1   
    47   27   44 1   
    48   28   44 1   
@<TRIPOS>SUBSTRUCTURE
     1 0CK         1 TEMP              0 ****  ****    0 ROOT
