@<TRIPOS>MOLECULE
0CK
   45    44     1     0     0
SMALL
bcc


@<TRIPOS>ATOM
      1 C7         -0.2140   -0.3450   -0.2000 c2        1 0CK     -0.231000
      2 N2          0.9520   -1.2510   -0.3420 n4        1 0CK     -0.023000
      3 C8          1.4400   -1.4030    1.1370 c1        1 0CK     -0.082000
      4 N3          0.6670   -0.7000    1.9230 n2        1 0CK     -0.275000
      5 C9         -0.3390   -0.0500    1.1480 c2        1 0CK      0.088000
      6 C10        -1.4340    1.3100   -1.5130 c2        1 0CK     -0.232000
      7 C11        -4.6590   -0.2190   -2.0620 c1        1 0CK      0.203000
      8 N4         -3.6420   -0.7300   -2.3930 n2        1 0CK     -0.368000
      9 C12        -2.4250   -1.3510   -2.7410 c2        1 0CK      0.287000
     10 N5         -1.2370   -1.0070   -2.2900 n2        1 0CK     -0.265000
     11 C13        -1.0310    0.0300   -1.3550 c2        1 0CK      0.047000
     12 C14         4.1240    2.4290   -1.4910 c1        1 0CK     -0.217000
     13 C15         2.0190   -0.6920   -1.2030 c3        1 0CK     -0.087000
     14 C16         3.1810   -1.6610   -1.3940 c3        1 0CK     -0.172000
     15 C17         4.2890   -1.0260   -2.2080 c3        1 0CK     -0.150000
     16 C18         5.1090   -0.0090   -1.4280 c3        1 0CK     -0.060000
     17 C19         4.5610    1.3150   -1.4660 c1        1 0CK     -0.170000
     18 C1         -4.4030   -1.4190    3.9540 c1        1 0CK      0.233000
     19 C2         -4.6880   -0.2210    3.3960 c2        1 0CK     -0.193000
     20 C3         -3.6430    0.5190    2.6810 c2        1 0CK     -0.139000
     21 C4         -2.4030    0.0430    2.4860 c2        1 0CK     -0.105000
     22 C5         -1.3600    0.7850    1.7890 c2        1 0CK     -0.024000
     23 C6         -1.2800    2.1230    1.7750 c2        1 0CK     -0.179000
     24 H1          0.6580   -2.1600   -0.6950 hn        1 0CK      0.233000
     25 H2         -1.1410    2.0880   -0.7960 ha        1 0CK      0.128000
     26 H3         -2.0590    1.6440   -2.3480 ha        1 0CK      0.128000
     27 H4         -1.6960   -2.8040   -3.9860 hn        1 0CK      0.218000
     28 H5         -3.3240   -2.4730   -4.2130 hn        1 0CK      0.218000
     29 H6          0.9790    2.0960   -2.0240 ha        1 0CK     -0.000500
     30 H7          1.6320    2.2800   -2.0360 ha        1 0CK     -0.000500
     31 H8          3.7400    3.4170   -1.5100 ha        1 0CK      0.223000
     32 H9          2.3940    0.2560   -0.7200 hx        1 0CK      0.120500
     33 H10         1.5710   -0.4220   -2.2010 hx        1 0CK      0.120500
     34 H11         2.8200   -2.5800   -1.9270 hc        1 0CK      0.104000
     35 H12         3.5720   -1.9830   -0.3910 hc        1 0CK      0.104000
     36 H13         4.9810   -1.8440   -2.5450 hc        1 0CK      0.089000
     37 H14         3.8630   -0.5480   -3.1290 hc        1 0CK      0.089000
     38 H15         5.2070   -0.3410   -0.3560 hc        1 0CK      0.107000
     39 H16         6.1500    0.0240   -1.8610 hc        1 0CK      0.107000
     40 H17        -0.4570    2.6590    1.2840 ha        1 0CK      0.125000
     41 H18        -2.1010   -0.9540    2.8550 ha        1 0CK      0.153000
     42 H19        -3.9610    1.5070    2.3070 ha        1 0CK      0.150000
     43 H20        -2.0250    2.7560    2.2760 ha        1 0CK      0.125000
     44 N1         -2.5490   -2.4760   -3.5890 n3        1 0CK     -0.338000
     45 F1         -5.9100    0.3760    3.4500 f         1 0CK     -0.089000
@<TRIPOS>BOND
     1    1    2 1   
     2    1    5 1   
     3    1   11 1   
     4    2    3 1   
     5    2   13 1   
     6    2   24 1   
     7    3    4 1   
     8    4    5 1   
     9    5   22 1   
    10    6   11 1   
    11    6   25 1   
    12    6   26 1   
    13    7    8 1   
    14    8    9 1   
    15    9   10 1   
    16    9   44 1   
    17   10   11 1   
    18   12   17 1   
    19   12   31 1   
    20   13   14 1   
    21   13   32 1   
    22   13   33 1   
    23   14   15 1   
    24   14   34 1   
    25   14   35 1   
    26   15   16 1   
    27   15   36 1   
    28   15   37 1   
    29   16   17 1   
    30   16   38 1   
    31   16   39 1   
    32   18   19 1   
    33   19   20 1   
    34   19   45 1   
    35   20   21 1   
    36   20   42 1   
    37   21   22 1   
    38   21   41 1   
    39   22   23 1   
    40   23   40 1   
    41   23   43 1   
    42   27   44 1   
    43   28   44 1   
    44   29   30 1   
@<TRIPOS>SUBSTRUCTURE
     1 0CK         1 TEMP              0 ****  ****    0 ROOT
