@<TRIPOS>MOLECULE
0CK
   45    37     1     0     0
SMALL
bcc


@<TRIPOS>ATOM
      1 C7         -0.5680   -0.0420   -0.2690 c1        1 0CK     -0.066000
      2 N2          0.7730    0.0360   -0.3260 n2        1 0CK     -0.131500
      3 C8          1.2430    0.1360    0.9470 c1        1 0CK     -0.084000
      4 N3          0.1760    0.1180    1.7930 n2        1 0CK     -0.131500
      5 C9         -0.9390    0.0090    1.0540 c1        1 0CK     -0.066000
      6 C10        -1.8160   -1.4230   -2.0350 c1        1 0CK     -0.179000
      7 C11        -2.7500   -1.4960   -3.0350 c1        1 0CK     -0.003000
      8 N4         -3.3700   -0.3810   -3.4590 n1        1 0CK     -0.216000
      9 C12        -3.0690    0.8270   -2.8920 c1        1 0CK      0.140000
     10 N5         -2.1370    0.9020   -1.8930 n1        1 0CK     -0.225000
     11 C13        -1.5150   -0.2130   -1.4680 c1        1 0CK      0.051500
     12 N1         -3.7530    2.0060   -3.3210 n2        1 0CK     -0.321000
     13 C14         2.4320    1.2650   -1.5730 c3        1 0CK     -0.167000
     14 C15         1.5730    0.0100   -1.5250 c2        1 0CK      0.033000
     15 C16         2.4070   -1.2680   -1.5350 c3        1 0CK     -0.167000
     16 C17         3.4910   -1.2640   -0.4660 c3        1 0CK     -0.160000
     17 C18         4.3500   -0.0080   -0.5130 c3        1 0CK     -0.160000
     18 C19         3.5170    1.2690   -0.5030 c3        1 0CK     -0.160000
     19 C1         -2.3030   -1.2870    4.3640 c1        1 0CK     -0.125000
     20 C2         -2.6580   -0.1040    5.0020 c1        1 0CK      0.089000
     21 C3         -2.4900    1.1130    4.3510 c1        1 0CK     -0.170000
     22 C4         -1.9680    1.1470    3.0630 c1        1 0CK     -0.179000
     23 C5         -1.6130   -0.0370    2.4250 c1        1 0CK      0.051500
     24 C6         -1.7810   -1.2540    3.0760 c1        1 0CK     -0.125000
     25 F1         -3.0970   -0.1310    6.2700 f         1 0CK     -0.108000
     26 H1          2.1840    0.2070    1.2090 DU        1 0CK      0.204000
     27 H2         -1.3640   -2.2360   -1.7250 ha        1 0CK      0.154500
     28 H3         -2.9660   -2.3630   -3.4420 ha        1 0CK      0.168000
     29 H4         -3.6160    2.7990   -2.8830 hn        1 0CK      0.222000
     30 H5         -4.3510    1.9630   -4.0170 hn        1 0CK      0.222000
     31 H6          1.8540    2.0510   -1.4430 hc        1 0CK      0.096750
     32 H7          2.8570    1.3260   -2.4580 hc        1 0CK      0.096750
     33 H8          0.9750    0.0040   -2.3050 ha        1 0CK      0.117000
     34 H9          1.8120   -2.0370   -1.3820 hc        1 0CK      0.096750
     35 H10         2.8310   -1.3640   -2.4180 hc        1 0CK      0.096750
     36 H11         3.0670   -1.3240    0.4170 hc        1 0CK      0.084250
     37 H12         4.0700   -2.0510   -0.5960 hc        1 0CK      0.084250
     38 H13         4.8950   -0.0260   -1.3340 hc        1 0CK      0.083500
     39 H14         4.9500   -0.0030    0.2670 hc        1 0CK      0.083500
     40 H15         4.1130    2.0400   -0.6570 hc        1 0CK      0.084250
     41 H16         3.0950    1.3650    0.3760 hc        1 0CK      0.084250
     42 H17        -2.4210   -2.1470    4.8240 ha        1 0CK      0.150500
     43 H18        -2.7400    1.9490    4.8020 ha        1 0CK      0.147000
     44 H19        -1.8500    2.0060    2.6040 ha        1 0CK      0.154500
     45 H20        -1.5310   -2.0890    2.6260 ha        1 0CK      0.150500
@<TRIPOS>BOND
     1    1    2 1   
     2    1    5 1   
     3    2    3 1   
     4    3    4 1   
     5    4    5 1   
     6    6   11 1   
     7    6   27 1   
     8    7    8 1   
     9    7   28 1   
    10    9   10 1   
    11   12   29 1   
    12   12   30 1   
    13   13   14 1   
    14   13   18 1   
    15   13   31 1   
    16   13   32 1   
    17   14   15 1   
    18   14   33 1   
    19   15   16 1   
    20   15   34 1   
    21   15   35 1   
    22   16   17 1   
    23   16   36 1   
    24   16   37 1   
    25   17   18 1   
    26   17   38 1   
    27   17   39 1   
    28   18   40 1   
    29   18   41 1   
    30   19   24 1   
    31   19   42 1   
    32   20   21 1   
    33   20   25 1   
    34   21   43 1   
    35   22   23 1   
    36   22   44 1   
    37   24   45 1   
@<TRIPOS>SUBSTRUCTURE
     1 0CK         1 TEMP              0 ****  ****    0 ROOT
