@<TRIPOS>MOLECULE
0CK
   45    44     1     0     0
SMALL
bcc


@<TRIPOS>ATOM
      1 C7         -0.1650   -0.6790   -0.4270 c2        1 0CK     -0.266000
      2 N2          1.1370   -1.3250   -0.7010 nx        1 0CK     -0.029000
      3 C8          1.6310   -1.6980    0.7470 c1        1 0CK     -0.071000
      4 N3          0.7390   -1.3140    1.6180 n2        1 0CK     -0.289000
      5 C9         -0.3640   -0.7030    0.9470 c2        1 0CK      0.099000
      6 C10        -0.7320    0.8620   -2.2380 c2        1 0CK     -0.244000
      7 C11        -1.4020   -1.5260   -4.9640 c1        1 0CK      0.189000
      8 N4         -1.9900   -1.5230   -3.9360 n2        1 0CK     -0.366000
      9 C12        -2.6710   -1.5400   -2.6990 c2        1 0CK      0.274000
     10 N5         -2.2600   -0.9410   -1.6030 n2        1 0CK     -0.237000
     11 C13        -1.0460   -0.2300   -1.5090 c2        1 0CK      0.045000
     12 C14         3.7230    2.8620   -0.6040 c1        1 0CK     -0.218000
     13 C15         2.1200   -0.4550   -1.3810 c3        1 0CK     -0.093000
     14 C16         3.4510   -1.1580   -1.6340 c3        1 0CK     -0.171000
     15 C17         4.4650   -0.1940   -2.2140 c3        1 0CK     -0.153000
     16 C18         5.1150    0.7040   -1.1710 c3        1 0CK     -0.060000
     17 C19         4.3460    1.8740   -0.8680 c1        1 0CK     -0.169000
     18 C1         -5.2540    1.7040    3.4110 c1        1 0CK      0.024000
     19 C2         -5.4570    1.0930    4.6970 c2        1 0CK     -0.035000
     20 C3         -4.3910    0.6860    3.9520 c2        1 0CK     -0.250000
     21 C4         -1.8850   -0.7610    2.9520 c1        1 0CK     -0.096000
     22 C5         -1.5210   -0.2100    1.6920 c2        1 0CK     -0.164000
     23 C6         -2.2840    0.8020    1.2040 c2        1 0CK      0.023000
     24 H1          1.0030   -2.1820   -1.2330 hn        1 0CK      0.223000
     25 H2          0.1700    1.4520   -2.0280 ha        1 0CK      0.129500
     26 H3         -1.3600    1.2370   -3.0560 ha        1 0CK      0.129500
     27 H4         -4.3830   -2.2550   -1.8390 hn        1 0CK      0.219000
     28 H5         -4.3640   -2.3750   -3.5100 hn        1 0CK      0.219000
     29 H6          2.0020    2.1580   -3.3030 ha        1 0CK      0.000500
     30 H7          2.3740    2.1830   -2.7370 ha        1 0CK      0.000500
     31 H8          3.1770    3.7380   -0.3650 ha        1 0CK      0.223000
     32 H9          2.2920    0.4510   -0.7310 hx        1 0CK      0.116000
     33 H10         1.6830   -0.1070   -2.3610 hx        1 0CK      0.116000
     34 H11         3.2960   -2.0040   -2.3550 hc        1 0CK      0.107000
     35 H12         3.8340   -1.5980   -0.6730 hc        1 0CK      0.107000
     36 H13         3.9870    0.4340   -3.0110 hc        1 0CK      0.090000
     37 H14         5.2760   -0.7980   -2.7040 hc        1 0CK      0.090000
     38 H15         6.1240    1.0300   -1.5550 hc        1 0CK      0.107500
     39 H16         5.2930    0.1200   -0.2240 hc        1 0CK      0.107500
     40 H17        -2.0690    1.2920    0.2410 ha        1 0CK      0.141500
     41 H18        -1.2900   -1.5870    3.3620 ha        1 0CK      0.087000
     42 H19        -3.5090    0.0460    3.8380 ha        1 0CK      0.263000
     43 H20        -3.1600    1.1760    1.7620 ha        1 0CK      0.141500
     44 N1         -3.8350   -2.3440   -2.6680 n8        1 0CK     -0.332000
     45 F1         -6.1190    0.9520    5.8160 f         1 0CK     -0.030000
@<TRIPOS>BOND
     1    1    2 1   
     2    1    5 1   
     3    1   11 1   
     4    2    3 1   
     5    2   13 1   
     6    2   24 1   
     7    3    4 1   
     8    4    5 1   
     9    5   22 1   
    10    6   11 1   
    11    6   25 1   
    12    6   26 1   
    13    7    8 1   
    14    8    9 1   
    15    9   10 1   
    16    9   44 1   
    17   10   11 1   
    18   12   17 1   
    19   12   31 1   
    20   13   14 1   
    21   13   32 1   
    22   13   33 1   
    23   14   15 1   
    24   14   34 1   
    25   14   35 1   
    26   15   16 1   
    27   15   36 1   
    28   15   37 1   
    29   16   17 1   
    30   16   38 1   
    31   16   39 1   
    32   18   19 1   
    33   18   20 1   
    34   19   20 1   
    35   19   45 1   
    36   20   42 1   
    37   21   22 1   
    38   21   41 1   
    39   22   23 1   
    40   23   40 1   
    41   23   43 1   
    42   27   44 1   
    43   28   44 1   
    44   29   30 1   
@<TRIPOS>SUBSTRUCTURE
     1 0CK         1 TEMP              0 ****  ****    0 ROOT
