@<TRIPOS>MOLECULE
0CL
   11    10     1     0     0
SMALL
bcc


@<TRIPOS>ATOM
      1 CL1        -2.5680    0.0000   -0.9730 cl        1 0CL     -0.184400
      2 C2         -0.8250    0.0000   -0.9730 c3        1 0CL      0.032000
      3 C3         -0.3200    0.0000    0.4530 c3        1 0CL     -0.103400
      4 C4          1.1930    0.0000    0.4530 c3        1 0CL      0.032000
      5 CL5         1.7740    0.0000    2.0970 cl        1 0CL     -0.184400
      6 H2         -0.4990   -0.7970   -1.4340 h1        1 0CL      0.065700
      7 H2A        -0.4990    0.7970   -1.4340 h1        1 0CL      0.065700
      8 H3         -0.6460    0.7970    0.9130 hc        1 0CL      0.072700
      9 H3A        -0.6460   -0.7970    0.9130 hc        1 0CL      0.072700
     10 H4          1.5180    0.7970   -0.0070 h1        1 0CL      0.065700
     11 H4A         1.5180   -0.7970   -0.0070 h1        1 0CL      0.065700
@<TRIPOS>BOND
     1    1    2 1   
     2    2    3 1   
     3    2    6 1   
     4    2    7 1   
     5    3    4 1   
     6    3    8 1   
     7    3    9 1   
     8    4    5 1   
     9    4   10 1   
    10    4   11 1   
@<TRIPOS>SUBSTRUCTURE
     1 0CL         1 TEMP              0 ****  ****    0 ROOT
