@<TRIPOS>MOLECULE
0CL
   11    10     1     0     0
SMALL
bcc


@<TRIPOS>ATOM
      1 CL1         0.0520    0.0000   -0.0370 cl        1 0CL     -0.184400
      2 C2          1.8050   -0.0000    0.0210 c3        1 0CL      0.032000
      3 C3          2.3100    0.0000    1.4450 c3        1 0CL     -0.103400
      4 C4          3.8220   -0.0000    1.4480 c3        1 0CL      0.032000
      5 CL5         4.4600    0.0000    3.0810 cl        1 0CL     -0.184400
      6 H2          2.1420    0.9130   -0.5270 h1        1 0CL      0.065700
      7 H2A         2.1420   -0.9130   -0.5270 h1        1 0CL      0.065700
      8 H3          1.9250   -0.9030    1.9890 hc        1 0CL      0.072700
      9 H3A         1.9250    0.9030    1.9890 hc        1 0CL      0.072700
     10 H4          4.2260    0.9130    0.9470 h1        1 0CL      0.065700
     11 H4A         4.2260   -0.9130    0.9470 h1        1 0CL      0.065700
@<TRIPOS>BOND
     1    1    2 1   
     2    2    3 1   
     3    2    6 1   
     4    2    7 1   
     5    3    4 1   
     6    3    8 1   
     7    3    9 1   
     8    4    5 1   
     9    4   10 1   
    10    4   11 1   
@<TRIPOS>SUBSTRUCTURE
     1 0CL         1 TEMP              0 ****  ****    0 ROOT
