@<TRIPOS>MOLECULE
0CL
   11    10     1     0     0
SMALL
bcc


@<TRIPOS>ATOM
      1 CL1        -2.6990    0.2280    0.0000 cl        1 0CL     -0.184400
      2 C2         -1.2350   -0.7370    0.0000 c3        1 0CL      0.032000
      3 C3          0.0000    0.1340   -0.0000 c3        1 0CL     -0.103400
      4 C4          1.2350   -0.7370    0.0000 c3        1 0CL      0.032000
      5 CL5         2.6990    0.2280   -0.0000 cl        1 0CL     -0.184400
      6 H2         -1.2760   -1.3790    0.9130 h1        1 0CL      0.065700
      7 H2A        -1.2760   -1.3790   -0.9130 h1        1 0CL      0.065700
      8 H3          0.0000    0.8010   -0.9030 hc        1 0CL      0.072700
      9 H3A         0.0000    0.8010    0.9030 hc        1 0CL      0.072700
     10 H4          1.2760   -1.3790    0.9130 h1        1 0CL      0.065700
     11 H4A         1.2760   -1.3790   -0.9130 h1        1 0CL      0.065700
@<TRIPOS>BOND
     1    1    2 1   
     2    2    3 1   
     3    2    6 1   
     4    2    7 1   
     5    3    4 1   
     6    3    8 1   
     7    3    9 1   
     8    4    5 1   
     9    4   10 1   
    10    4   11 1   
@<TRIPOS>SUBSTRUCTURE
     1 0CL         1 TEMP              0 ****  ****    0 ROOT
