@<TRIPOS>MOLECULE
0CM
   18    17     1     0     0
SMALL
bcc


@<TRIPOS>ATOM
      1 O12         0.4590   -0.0990   -1.1100 o         1 0CM     -0.957500
      2 P8          1.4470   -0.0850    0.0230 p5        1 0CM      1.458900
      3 O13         0.9220    0.5140    1.2980 o         1 0CM     -0.957500
      4 O9          2.2190   -1.3630    0.2000 o         1 0CM     -0.957500
      5 O7          2.7190    1.0650   -0.5150 os        1 0CM     -0.797800
      6 P6          3.8940    1.9620   -0.9700 p5        1 0CM      1.572800
      7 O10         4.9080    2.3230    0.0670 o         1 0CM     -0.930500
      8 O11         4.4460    1.7110   -2.3340 o         1 0CM     -0.930500
      9 O5          3.1550    3.5130   -1.2230 os        1 0CM     -0.545200
     10 C4          4.1320    4.3940   -1.6340 c3        1 0CM      0.225500
     11 C3          3.6280    5.7350   -1.8800 c1        1 0CM      0.030900
     12 C2          3.2780    6.8630   -2.1010 c1        1 0CM     -0.364100
     13 C1          2.8300    8.1880   -2.3540 c3        1 0CM      0.052000
     14 H4          4.6040    4.0090   -2.5910 h1        1 0CM      0.045700
     15 H5          4.9390    4.4550   -0.8400 h1        1 0CM      0.045700
     16 H6          1.7210    8.2690   -2.2090 hc        1 0CM      0.003033
     17 H7          3.3220    8.9220   -1.6620 hc        1 0CM      0.003033
     18 H8          3.0640    8.5020   -3.4060 hc        1 0CM      0.003033
@<TRIPOS>BOND
     1    1    2 1   
     2    2    3 1   
     3    2    4 1   
     4    2    5 1   
     5    5    6 1   
     6    6    7 1   
     7    6    8 1   
     8    6    9 1   
     9    9   10 1   
    10   10   11 1   
    11   10   14 1   
    12   10   15 1   
    13   11   12 3   
    14   12   13 1   
    15   13   16 1   
    16   13   17 1   
    17   13   18 1   
@<TRIPOS>SUBSTRUCTURE
     1 0CM         1 TEMP              0 ****  ****    0 ROOT
