@<TRIPOS>MOLECULE
0CM
   18    17     1     0     0
SMALL
bcc


@<TRIPOS>ATOM
      1 O12         0.4900   -0.1140   -1.0720 o         1 0CM     -0.957500
      2 P8          1.4710   -0.0770    0.0660 p5        1 0CM      1.458900
      3 O13         0.9360    0.5340    1.3300 o         1 0CM     -0.957500
      4 O9          2.2520   -1.3480    0.2640 o         1 0CM     -0.957500
      5 O7          2.7380    1.0740   -0.4800 os        1 0CM     -0.797800
      6 P6          3.9100    1.9740   -0.9400 p5        1 0CM      1.572800
      7 O10         4.9150    2.3560    0.0970 o         1 0CM     -0.930500
      8 O11         4.4710    1.7090   -2.2990 o         1 0CM     -0.930500
      9 O5          3.1600    3.5160   -1.2170 os        1 0CM     -0.545200
     10 C4          4.1330    4.3990   -1.6350 c3        1 0CM      0.225500
     11 C3          3.6210    5.7320   -1.9000 c1        1 0CM      0.030900
     12 C2          3.2640    6.8560   -2.1380 c1        1 0CM     -0.364100
     13 C1          2.8080    8.1740   -2.4090 c3        1 0CM      0.052000
     14 H4          4.6130    4.0050   -2.5850 h1        1 0CM      0.045700
     15 H5          4.9360    4.4760   -0.8370 h1        1 0CM      0.045700
     16 H6          1.6990    8.2510   -2.2610 hc        1 0CM      0.003033
     17 H7          3.2990    8.9210   -1.7310 hc        1 0CM      0.003033
     18 H8          3.0360    8.4730   -3.4670 hc        1 0CM      0.003033
@<TRIPOS>BOND
     1    1    2 1   
     2    2    3 1   
     3    2    4 1   
     4    2    5 1   
     5    5    6 1   
     6    6    7 1   
     7    6    8 1   
     8    6    9 1   
     9    9   10 1   
    10   10   11 1   
    11   10   14 1   
    12   10   15 1   
    13   11   12 3   
    14   12   13 1   
    15   13   16 1   
    16   13   17 1   
    17   13   18 1   
@<TRIPOS>SUBSTRUCTURE
     1 0CM         1 TEMP              0 ****  ****    0 ROOT
