@<TRIPOS>MOLECULE
0CM
   18    17     1     0     0
SMALL
bcc


@<TRIPOS>ATOM
      1 O12        -2.7010   -1.5980    1.0760 o         1 0CM     -0.957500
      2 P8         -2.7380   -0.7090   -0.1360 p5        1 0CM      1.458900
      3 O13        -2.6560   -1.4400   -1.4460 o         1 0CM     -0.957500
      4 O9         -3.7760    0.3790   -0.0860 o         1 0CM     -0.957500
      5 O7         -1.2010    0.2190   -0.0500 os        1 0CM     -0.797800
      6 P6          0.0540    1.1190    0.0290 p5        1 0CM      1.572800
      7 O10         0.3710    1.9420   -1.1760 o         1 0CM     -0.930500
      8 O11         0.3260    1.7840    1.3390 o         1 0CM     -0.930500
      9 O5          1.3740   -0.0090   -0.0180 os        1 0CM     -0.545200
     10 C4          2.5520    0.7040    0.0480 c3        1 0CM      0.225500
     11 C3          3.7350   -0.1390    0.0160 c1        1 0CM      0.030900
     12 C2          4.7530   -0.7780   -0.0060 c1        1 0CM     -0.364100
     13 C1          5.9370   -1.5630   -0.0340 c3        1 0CM      0.052000
     14 H4          2.6030    1.4250   -0.8270 h1        1 0CM      0.045700
     15 H5          2.5700    1.3100    1.0070 h1        1 0CM      0.045700
     16 H6          6.5810   -1.2950   -0.9130 hc        1 0CM      0.003367
     17 H7          6.5480   -1.4110    0.8950 hc        1 0CM      0.003367
     18 H8          5.6900   -2.6550   -0.1080 hc        1 0CM      0.003367
@<TRIPOS>BOND
     1    1    2 1   
     2    2    3 1   
     3    2    4 1   
     4    2    5 1   
     5    5    6 1   
     6    6    7 1   
     7    6    8 1   
     8    6    9 1   
     9    9   10 1   
    10   10   11 1   
    11   10   14 1   
    12   10   15 1   
    13   11   12 3   
    14   12   13 1   
    15   13   16 1   
    16   13   17 1   
    17   13   18 1   
@<TRIPOS>SUBSTRUCTURE
     1 0CM         1 TEMP              0 ****  ****    0 ROOT
