@<TRIPOS>MOLECULE
0CM
   18    17     1     0     0
SMALL
bcc


@<TRIPOS>ATOM
      1 O12         0.5070   -0.1260   -1.0920 o         1 0CM     -0.957500
      2 P8          1.4730   -0.0810    0.0580 p5        1 0CM      1.458900
      3 O13         0.9180    0.5330    1.3130 o         1 0CM     -0.957500
      4 O9          2.2580   -1.3460    0.2710 o         1 0CM     -0.957500
      5 O7          2.7410    1.0750   -0.4750 os        1 0CM     -0.797800
      6 P6          3.9140    1.9800   -0.9230 p5        1 0CM      1.572800
      7 O10         4.9040    2.3690    0.1260 o         1 0CM     -0.930500
      8 O11         4.4950    1.7120   -2.2730 o         1 0CM     -0.930500
      9 O5          3.1610    3.5170   -1.2150 os        1 0CM     -0.545200
     10 C4          4.1340    4.4020   -1.6240 c3        1 0CM      0.225500
     11 C3          3.6190    5.7330   -1.9000 c1        1 0CM      0.030900
     12 C2          3.2600    6.8530   -2.1460 c1        1 0CM     -0.364100
     13 C1          2.8010    8.1690   -2.4280 c3        1 0CM      0.052000
     14 H4          4.6280    4.0070   -2.5660 h1        1 0CM      0.045700
     15 H5          4.9270    4.4870   -0.8160 h1        1 0CM      0.045700
     16 H6          1.6950    8.2500   -2.2600 hc        1 0CM      0.003367
     17 H7          3.3060    8.9250   -1.7700 hc        1 0CM      0.003367
     18 H8          3.0090    8.4510   -3.4940 hc        1 0CM      0.003367
@<TRIPOS>BOND
     1    1    2 1   
     2    2    3 1   
     3    2    4 1   
     4    2    5 1   
     5    5    6 1   
     6    6    7 1   
     7    6    8 1   
     8    6    9 1   
     9    9   10 1   
    10   10   11 1   
    11   10   14 1   
    12   10   15 1   
    13   11   12 3   
    14   12   13 1   
    15   13   16 1   
    16   13   17 1   
    17   13   18 1   
@<TRIPOS>SUBSTRUCTURE
     1 0CM         1 TEMP              0 ****  ****    0 ROOT
