@<TRIPOS>MOLECULE
0CM
   18    14     1     0     0
SMALL
bcc


@<TRIPOS>ATOM
      1 O12        -2.8430    2.5500    2.9810 o         1 0CM     -1.252500
      2 P8         -1.4040    2.9540    2.7670 p3        1 0CM      2.637500
      3 O13        -0.7610    3.2530    4.1000 o         1 0CM     -1.252500
      4 O9         -1.3520    4.1870    1.8950 os        1 0CM     -1.231000
      5 O7         -0.6250    1.7750    2.0580 os        1 0CM     -1.193000
      6 P6         -0.5240    1.6100    0.4900 p3        1 0CM      2.637500
      7 O10        -1.8990    1.7440   -0.1200 o         1 0CM     -1.252500
      8 O11         0.3820    2.6800   -0.0720 o         1 0CM     -1.252500
      9 O5          0.0680    0.1860    0.1470 o         1 0CM     -0.692000
     10 C4          0.6340   -0.0170   -1.1270 c3        1 0CM      0.194000
     11 C3          0.8390   -1.4980   -1.3580 c1        1 0CM      0.017000
     12 C2          1.0000   -2.6650   -1.5390 c1        1 0CM     -0.469000
     13 C1          1.2060   -4.1460   -1.7700 c2        1 0CM     -0.018000
     14 H4          1.4960    0.4440   -1.1790 h1        1 0CM      0.025500
     15 H5          0.0310    0.3390   -1.8130 h1        1 0CM      0.025500
     16 H6          2.1650   -4.3440   -1.7830 ha        1 0CM      0.025667
     17 H7          0.7770   -4.6510   -1.0480 ha        1 0CM      0.025667
     18 H8          0.8070   -4.4010   -2.6280 ha        1 0CM      0.025667
@<TRIPOS>BOND
     1    1    2 1   
     2    2    3 1   
     3    2    5 1   
     4    5    6 1   
     5    6    7 1   
     6    6    8 1   
     7    9   10 1   
     8   10   11 1   
     9   10   14 1   
    10   10   15 1   
    11   11   12 1   
    12   13   16 1   
    13   13   17 1   
    14   13   18 1   
@<TRIPOS>SUBSTRUCTURE
     1 0CM         1 TEMP              0 ****  ****    0 ROOT
