@<TRIPOS>MOLECULE
0CN
   18    17     1     0     0
SMALL
bcc


@<TRIPOS>ATOM
      1 O15         0.1850   -0.5780   -0.5740 o         1 0CN     -0.873500
      2 P13         1.2540    0.0710    0.2120 p5        1 0CN      1.982000
      3 O14         1.5100   -0.4320    1.5800 o         1 0CN     -0.873500
      4 O16         1.7010    1.4760   -0.1550 os        1 0CN     -1.229000
      5 P17         2.0130    3.2810   -0.4590 p5        1 0CN      1.661500
      6 O19         0.8210    3.8580    0.2420 o         1 0CN     -0.932167
      7 O18         3.3370    3.5060    0.2000 o         1 0CN     -0.932167
      8 O20         2.0080    3.3750   -1.9520 o         1 0CN     -0.932167
      9 O29         2.6200   -1.0440   -0.4910 os        1 0CN     -0.453000
     10 C28         2.5310   -2.2530   -0.1490 c2        1 0CN      0.288000
     11 C27         3.6110   -3.2280   -0.5170 c3        1 0CN     -0.095000
     12 C30         3.1980   -4.6110   -0.3600 c1        1 0CN     -0.531000
     13 C13         3.8330   -5.6950   -0.7480 c2        1 0CN     -0.328000
     14 H4          4.4720   -2.9920    0.1750 hc        1 0CN      0.058000
     15 H5          1.6580   -2.5970    0.4480 h4        1 0CN      0.162000
     16 H6          3.9550   -2.9760   -1.5630 hc        1 0CN      0.058000
     17 H10         4.8040   -5.7440   -1.2860 ha        1 0CN     -0.015000
     18 H11         3.4270   -6.7010   -0.5640 ha        1 0CN     -0.015000
@<TRIPOS>BOND
     1    1    2 1   
     2    2    3 1   
     3    2    4 1   
     4    2    9 1   
     5    4    5 1   
     6    5    6 1   
     7    5    7 1   
     8    5    8 1   
     9    9   10 1   
    10   10   11 1   
    11   10   15 1   
    12   11   12 1   
    13   11   14 1   
    14   11   16 1   
    15   12   13 1   
    16   13   17 1   
    17   13   18 1   
@<TRIPOS>SUBSTRUCTURE
     1 0CN         1 TEMP              0 ****  ****    0 ROOT
