@<TRIPOS>MOLECULE
0CN
   18    16     1     0     0
SMALL
bcc


@<TRIPOS>ATOM
      1 O15        -0.5520    0.8730    0.4950 o         1 0CN     -0.689500
      2 P13        -1.3440   -0.4180    0.3370 p5        1 0CN      2.049000
      3 O14        -2.4920   -0.1980   -0.6260 o         1 0CN     -0.689500
      4 O16        -1.9350   -0.8930    1.7990 os        1 0CN     -1.247000
      5 P17        -3.0310   -0.0700    2.6700 p5        1 0CN      1.655500
      6 O19        -4.0820    0.4550    1.7740 o         1 0CN     -0.929500
      7 O18        -2.3600    1.0780    3.3920 o         1 0CN     -0.929500
      8 O20        -3.6820   -1.0480    3.7410 o         1 0CN     -0.929500
      9 O29        -0.3950   -1.5060   -0.2210 os        1 0CN     -0.771000
     10 C28         0.6840   -1.0880   -1.1250 c3        1 0CN      0.209000
     11 C27         1.4100    0.0610   -0.5530 c2        1 0CN     -0.526000
     12 C30         2.5710    0.6660   -1.3400 c1        1 0CN      0.016000
     13 C13         3.7970    1.3040   -2.1720 c1        1 0CN     -0.663000
     14 H4          0.1870   -0.7310   -2.2310 h1        1 0CN      0.042500
     15 H5          1.4430   -2.0250   -1.2650 h1        1 0CN      0.042500
     16 H6          1.0850    0.5480    0.5960 ha        1 0CN      0.267000
     17 H10         4.2070    0.6900   -3.6090 DU        1 0CN      0.046000
     18 H11         4.4890    2.3020   -1.6620 ha        1 0CN      0.046000
@<TRIPOS>BOND
     1    1    2 1   
     2    2    3 1   
     3    2    4 1   
     4    2    9 1   
     5    4    5 1   
     6    5    6 1   
     7    5    7 1   
     8    5    8 1   
     9    9   10 1   
    10   10   11 1   
    11   10   14 1   
    12   10   15 1   
    13   11   12 1   
    14   11   16 1   
    15   12   13 1   
    16   13   18 1   
@<TRIPOS>SUBSTRUCTURE
     1 0CN         1 TEMP              0 ****  ****    0 ROOT
