@<TRIPOS>MOLECULE
0CN
   18    17     1     0     0
SMALL
bcc


@<TRIPOS>ATOM
      1 O15        -0.8810    1.4960   -1.1010 o         1 0CN     -0.930000
      2 P13        -0.2190    0.9130    0.1050 p5        1 0CN      1.573800
      3 O14        -0.4770    1.6310    1.3880 o         1 0CN     -0.930000
      4 O16         1.1910    0.3090   -0.0850 os        1 0CN     -0.797800
      5 P17         2.8720   -0.2880   -0.3110 p5        1 0CN      1.457900
      6 O19         3.6470    0.9890   -0.4830 o         1 0CN     -0.956500
      7 O18         3.1670   -1.0390    0.9570 o         1 0CN     -0.956500
      8 O20         2.7940   -1.1480   -1.5410 o         1 0CN     -0.956500
      9 O29        -1.2360   -0.4790    0.3110 os        1 0CN     -0.550200
     10 C28        -2.5060   -0.1900    0.7240 c3        1 0CN      0.261600
     11 C27        -3.5070   -0.2620   -0.4100 c2        1 0CN     -0.137300
     12 C30        -4.7660   -0.5770   -0.2900 c1        1 0CN     -0.099800
     13 C13        -6.0240   -0.8910   -0.1800 c2        1 0CN     -0.335100
     14 H4         -2.8220   -0.9300    1.5190 h1        1 0CN      0.012700
     15 H5         -2.5660    0.8580    1.1520 h1        1 0CN      0.012700
     16 H6         -3.0690    0.0170   -1.3920 ha        1 0CN      0.192000
     17 H10        -6.3890   -1.9200   -0.2890 ha        1 0CN      0.069500
     18 H11        -6.8030   -0.1480    0.0360 ha        1 0CN      0.069500
@<TRIPOS>BOND
     1    1    2 1   
     2    2    3 1   
     3    2    4 1   
     4    2    9 1   
     5    4    5 1   
     6    5    6 1   
     7    5    7 1   
     8    5    8 1   
     9    9   10 1   
    10   10   11 1   
    11   10   14 1   
    12   10   15 1   
    13   11   12 2   
    14   11   16 1   
    15   12   13 2   
    16   13   17 1   
    17   13   18 1   
@<TRIPOS>SUBSTRUCTURE
     1 0CN         1 TEMP              0 ****  ****    0 ROOT
