@<TRIPOS>MOLECULE
0CN
   18    17     1     0     0
SMALL
bcc


@<TRIPOS>ATOM
      1 O15         0.3490   -0.5950   -0.4260 o         1 0CN     -0.873500
      2 P13         1.3730    0.1060    0.3800 p5        1 0CN      1.982000
      3 O14         1.5720   -0.3320    1.7760 o         1 0CN     -0.873500
      4 O16         1.8150    1.5010   -0.0340 os        1 0CN     -1.229000
      5 P17         2.1060    3.2930   -0.4190 p5        1 0CN      1.661500
      6 O19         0.8700    3.8800    0.1910 o         1 0CN     -0.932167
      7 O18         3.3910    3.5830    0.2900 o         1 0CN     -0.932167
      8 O20         2.1730    3.3060   -1.9130 o         1 0CN     -0.932167
      9 O29         2.7350   -1.0280   -0.3010 os        1 0CN     -0.453000
     10 C28         2.4790   -2.2580   -0.2130 c2        1 0CN      0.288000
     11 C27         3.3980   -3.2710   -0.8290 c3        1 0CN     -0.095000
     12 C30         3.1550   -4.6190   -0.3460 c1        1 0CN     -0.531000
     13 C13         3.8810   -5.6950   -0.5500 c2        1 0CN     -0.328000
     14 H4          4.4570   -2.9150   -0.6610 hc        1 0CN      0.058000
     15 H5          1.5540   -2.5950    0.3030 h4        1 0CN      0.162000
     16 H6          3.2060   -3.2090   -1.9410 hc        1 0CN      0.058000
     17 H10         4.8320   -5.7610   -1.1230 ha        1 0CN     -0.015000
     18 H11         3.5930   -6.6750   -0.1420 ha        1 0CN     -0.015000
@<TRIPOS>BOND
     1    1    2 1   
     2    2    3 1   
     3    2    4 1   
     4    2    9 1   
     5    4    5 1   
     6    5    6 1   
     7    5    7 1   
     8    5    8 1   
     9    9   10 1   
    10   10   11 1   
    11   10   15 1   
    12   11   12 1   
    13   11   14 1   
    14   11   16 1   
    15   12   13 1   
    16   13   17 1   
    17   13   18 1   
@<TRIPOS>SUBSTRUCTURE
     1 0CN         1 TEMP              0 ****  ****    0 ROOT
