@<TRIPOS>MOLECULE
0CN
   18    17     1     0     0
SMALL
bcc


@<TRIPOS>ATOM
      1 O15         0.6900   -0.7880    0.6070 o         1 0CN     -0.874500
      2 P13         1.9650   -0.0380    0.5810 p5        1 0CN      1.981000
      3 O14         3.0220   -0.4460    1.5300 o         1 0CN     -0.874500
      4 O16         1.9900    1.3640   -0.0060 os        1 0CN     -1.229000
      5 P17         1.9050    3.1580   -0.4730 p5        1 0CN      1.661500
      6 O19         1.3210    3.7150    0.7880 o         1 0CN     -0.932500
      7 O18         3.3360    3.5010   -0.7440 o         1 0CN     -0.932500
      8 O20         1.0040    3.1490   -1.6680 o         1 0CN     -0.932500
      9 O29         2.6380   -1.1340   -0.8100 os        1 0CN     -0.447000
     10 C28         2.5830   -2.3700   -0.5670 c2        1 0CN      0.229000
     11 C27         2.9910   -3.3840   -1.6040 c3        1 0CN     -0.069000
     12 C30         3.1880   -4.7610   -1.2370 c1        1 0CN     -0.575000
     13 C13         3.1060   -5.4250   -0.1110 c2        1 0CN     -0.300000
     14 H4          2.1790   -3.3340   -2.3890 hc        1 0CN      0.076500
     15 H5          2.2150   -2.7070    0.4280 h4        1 0CN      0.145000
     16 H6          3.9340   -2.9950   -2.0870 hc        1 0CN      0.076500
     17 H10         2.8450   -5.0210    0.8860 ha        1 0CN     -0.001000
     18 H11         3.3060   -6.5080   -0.0690 ha        1 0CN     -0.001000
@<TRIPOS>BOND
     1    1    2 1   
     2    2    3 1   
     3    2    4 1   
     4    2    9 1   
     5    4    5 1   
     6    5    6 1   
     7    5    7 1   
     8    5    8 1   
     9    9   10 1   
    10   10   11 1   
    11   10   15 1   
    12   11   12 1   
    13   11   14 1   
    14   11   16 1   
    15   12   13 1   
    16   13   17 1   
    17   13   18 1   
@<TRIPOS>SUBSTRUCTURE
     1 0CN         1 TEMP              0 ****  ****    0 ROOT
