@<TRIPOS>MOLECULE
0CO
   76    79     1     0     0
SMALL
bcc


@<TRIPOS>ATOM
      1 C5          0.3820    0.0740   -0.0590 ce        1 0CO     -0.076200
      2 C4          1.8640    0.0030   -0.2190 c3        1 0CO     -0.035200
      3 C3          2.5710    0.4220    1.0670 c3        1 0CO      0.146100
      4 C2          2.1260    1.8140    1.4970 c3        1 0CO     -0.146400
      5 C1          0.6170    1.8600    1.7180 c3        1 0CO      0.186300
      6 C10        -0.1370    1.3050    0.5350 ce        1 0CO     -0.068200
      7 C6         -0.3930   -0.9530   -0.4680 cf        1 0CO     -0.106000
      8 C7         -1.8300   -1.0120   -0.3330 cf        1 0CO     -0.151000
      9 C8         -2.6580   -1.7520   -1.0910 c2        1 0CO     -0.078400
     10 C14        -4.1310   -1.7820   -0.8990 c3        1 0CO     -0.036500
     11 C13        -4.6400   -3.2400   -0.7100 c3        1 0CO     -0.033000
     12 C12        -4.3440   -3.9800   -2.0060 c3        1 0CO     -0.068400
     13 C11        -2.8580   -3.9500   -2.3160 c3        1 0CO     -0.072400
     14 C9         -2.2390   -2.5630   -2.2740 c3        1 0CO     -0.043200
     15 C15        -4.7910   -1.0150    0.2390 c3        1 0CO     -0.071400
     16 C16        -6.1510   -1.6930    0.4150 c3        1 0CO     -0.076400
     17 C17        -6.1370   -2.9930   -0.4130 c3        1 0CO     -0.053700
     18 C19        -1.2120    1.9470    0.0630 c2        1 0CO     -0.193000
     19 O3          3.9650    0.4010    0.7830 oh        1 0CO     -0.599800
     20 O1          0.2320    1.0980    2.8600 oh        1 0CO     -0.588800
     21 C20        -6.9490   -4.1080    0.2570 c3        1 0CO      0.163800
     22 C22        -8.4190   -3.6620    0.4330 c3        1 0CO     -0.104400
     23 C23        -8.7010   -3.6930    1.9360 c3        1 0CO     -0.087700
     24 C28        -7.4640   -4.3520    2.5510 c3        1 0CO      0.130400
     25 O21        -6.4230   -4.3730    1.5720 os        1 0CO     -0.419600
     26 C24        -9.9870   -4.4290    2.2470 c3        1 0CO     -0.059400
     27 C25       -10.3930   -4.4310    3.7250 c3        1 0CO      0.148800
     28 C26       -11.8220   -4.9570    3.8490 c3        1 0CO     -0.124100
     29 O25        -9.4980   -5.3310    4.3820 oh        1 0CO     -0.599800
     30 C27       -10.2990   -3.0490    4.3580 c3        1 0CO     -0.124100
     31 C18        -3.9530   -3.9130    0.4640 c3        1 0CO     -0.079100
     32 C21        -6.8910   -5.4070   -0.5380 c3        1 0CO     -0.103100
     33 H4          2.1940   -1.0330   -0.4920 hc        1 0CO      0.061700
     34 H4A         2.1830    0.6860   -1.0520 hc        1 0CO      0.061700
     35 H3          2.3410   -0.3140    1.8880 h1        1 0CO      0.048700
     36 H2          2.4060    2.5560    0.7060 hc        1 0CO      0.052200
     37 H2A         2.6540    2.1050    2.4420 hc        1 0CO      0.052200
     38 H1          0.3120    2.9340    1.8930 h1        1 0CO      0.033700
     39 H6          0.0930   -1.8410   -0.9120 ha        1 0CO      0.124000
     40 H7         -2.2490   -0.3940    0.4840 ha        1 0CO      0.137000
     41 H14        -4.5800   -1.3900   -1.8620 hc        1 0CO      0.049700
     42 H12        -4.9150   -3.5060   -2.8480 hc        1 0CO      0.039700
     43 H12A       -4.6810   -5.0460   -1.9310 hc        1 0CO      0.039700
     44 H11        -2.3210   -4.6120   -1.5850 hc        1 0CO      0.040700
     45 H11A       -2.6910   -4.3840   -3.3370 hc        1 0CO      0.040700
     46 H9         -2.5450   -1.9980   -3.1980 hc        1 0CO      0.045700
     47 H9A        -1.1230   -2.6710   -2.3110 hc        1 0CO      0.045700
     48 H15        -4.1900   -1.0950    1.1790 hc        1 0CO      0.046200
     49 H15A       -4.9010    0.0680   -0.0090 hc        1 0CO      0.046200
     50 H16        -6.9730   -1.0220    0.0650 hc        1 0CO      0.044200
     51 H16A       -6.3340   -1.9310    1.4940 hc        1 0CO      0.044200
     52 H17        -6.6440   -2.8000   -1.4010 hc        1 0CO      0.043700
     53 H19        -1.7700    1.5870   -0.8120 ha        1 0CO      0.120000
     54 H19A       -1.5940    2.8690    0.5200 ha        1 0CO      0.120000
     55 HO3         4.4170    0.6440    1.5990 ho        1 0CO      0.398000
     56 HO1         0.7730    1.4110    3.5950 ho        1 0CO      0.395000
     57 H22        -8.5780   -2.6330    0.0270 hc        1 0CO      0.052200
     58 H22A       -9.1040   -4.3510   -0.1210 hc        1 0CO      0.052200
     59 H23        -8.7800   -2.6370    2.3140 hc        1 0CO      0.054700
     60 H28        -7.6690   -5.4080    2.8670 h1        1 0CO      0.056200
     61 H28A       -7.0640   -3.7700    3.4200 h1        1 0CO      0.056200
     62 H24        -9.8930   -5.4970    1.9130 hc        1 0CO      0.053200
     63 H24A      -10.8220   -3.9540    1.6660 hc        1 0CO      0.053200
     64 H26       -11.9000   -5.9640    3.3740 hc        1 0CO      0.043533
     65 H26A      -12.5320   -4.2600    3.3480 hc        1 0CO      0.043533
     66 H26B      -12.1060   -5.0490    4.9250 hc        1 0CO      0.043533
     67 HO25       -9.7490   -5.3440    5.3130 ho        1 0CO      0.399000
     68 H27       -10.8100   -2.2960    3.7130 hc        1 0CO      0.043533
     69 H27A      -10.7840   -3.0500    5.3630 hc        1 0CO      0.043533
     70 H27B       -9.2280   -2.7570    4.4840 hc        1 0CO      0.043533
     71 H18        -4.2640   -3.4270    1.4210 hc        1 0CO      0.042700
     72 H18A       -2.8430   -3.8350    0.3700 hc        1 0CO      0.042700
     73 H18B       -4.2390   -4.9910    0.5150 hc        1 0CO      0.042700
     74 H21        -7.6490   -6.1290   -0.1470 hc        1 0CO      0.042700
     75 H21A       -7.0960   -5.2070   -1.6150 hc        1 0CO      0.042700
     76 H21B       -5.8840   -5.8770   -0.4330 hc        1 0CO      0.042700
@<TRIPOS>BOND
     1    1    2 1   
     2    1    6 1   
     3    1    7 2   
     4    2    3 1   
     5    2   33 1   
     6    2   34 1   
     7    3    4 1   
     8    3   19 1   
     9    3   35 1   
    10    4    5 1   
    11    4   36 1   
    12    4   37 1   
    13    5    6 1   
    14    5   20 1   
    15    5   38 1   
    16    6   18 2   
    17    7    8 1   
    18    7   39 1   
    19    8    9 2   
    20    8   40 1   
    21    9   10 1   
    22    9   14 1   
    23   10   11 1   
    24   10   15 1   
    25   10   41 1   
    26   11   12 1   
    27   11   17 1   
    28   11   31 1   
    29   12   13 1   
    30   12   42 1   
    31   12   43 1   
    32   13   14 1   
    33   13   44 1   
    34   13   45 1   
    35   14   46 1   
    36   14   47 1   
    37   15   16 1   
    38   15   48 1   
    39   15   49 1   
    40   16   17 1   
    41   16   50 1   
    42   16   51 1   
    43   17   21 1   
    44   17   52 1   
    45   18   53 1   
    46   18   54 1   
    47   19   55 1   
    48   20   56 1   
    49   21   22 1   
    50   21   25 1   
    51   21   32 1   
    52   22   23 1   
    53   22   57 1   
    54   22   58 1   
    55   23   24 1   
    56   23   26 1   
    57   23   59 1   
    58   24   25 1   
    59   24   60 1   
    60   24   61 1   
    61   26   27 1   
    62   26   62 1   
    63   26   63 1   
    64   27   28 1   
    65   27   29 1   
    66   27   30 1   
    67   28   64 1   
    68   28   65 1   
    69   28   66 1   
    70   29   67 1   
    71   30   68 1   
    72   30   69 1   
    73   30   70 1   
    74   31   71 1   
    75   31   72 1   
    76   31   73 1   
    77   32   74 1   
    78   32   75 1   
    79   32   76 1   
@<TRIPOS>SUBSTRUCTURE
     1 0CO         1 TEMP              0 ****  ****    0 ROOT
