@<TRIPOS>MOLECULE
0CO
   76    79     1     0     0
SMALL
bcc


@<TRIPOS>ATOM
      1 C5          0.3830    0.0740   -0.0550 ce        1 0CO     -0.076200
      2 C4          1.8650    0.0030   -0.2170 c3        1 0CO     -0.035200
      3 C3          2.5740    0.4180    1.0700 c3        1 0CO      0.146100
      4 C2          2.1300    1.8090    1.5040 c3        1 0CO     -0.146400
      5 C1          0.6210    1.8550    1.7270 c3        1 0CO      0.186300
      6 C10        -0.1340    1.3040    0.5420 ce        1 0CO     -0.068200
      7 C6         -0.3930   -0.9510   -0.4660 cf        1 0CO     -0.106000
      8 C7         -1.8300   -1.0100   -0.3300 cf        1 0CO     -0.151000
      9 C8         -2.6590   -1.7460   -1.0890 c2        1 0CO     -0.078400
     10 C14        -4.1320   -1.7760   -0.8950 c3        1 0CO     -0.036500
     11 C13        -4.6420   -3.2340   -0.7110 c3        1 0CO     -0.033000
     12 C12        -4.3480   -3.9700   -2.0100 c3        1 0CO     -0.068400
     13 C11        -2.8620   -3.9410   -2.3200 c3        1 0CO     -0.072400
     14 C9         -2.2410   -2.5550   -2.2750 c3        1 0CO     -0.043200
     15 C15        -4.7900   -1.0120    0.2450 c3        1 0CO     -0.071400
     16 C16        -6.1510   -1.6900    0.4210 c3        1 0CO     -0.076400
     17 C17        -6.1380   -2.9870   -0.4120 c3        1 0CO     -0.053700
     18 C19        -1.2100    1.9480    0.0730 c2        1 0CO     -0.193000
     19 O3          3.9670    0.3960    0.7850 oh        1 0CO     -0.599800
     20 O1          0.2360    1.0910    2.8670 oh        1 0CO     -0.588800
     21 C20        -6.9510   -4.1040    0.2560 c3        1 0CO      0.163800
     22 C22        -8.4200   -3.6560    0.4350 c3        1 0CO     -0.104400
     23 C23        -8.7000   -3.6930    1.9380 c3        1 0CO     -0.087700
     24 C28        -7.4640   -4.3550    2.5490 c3        1 0CO      0.130400
     25 O21        -6.4230   -4.3730    1.5700 os        1 0CO     -0.419600
     26 C24        -9.9870   -4.4290    2.2470 c3        1 0CO     -0.059400
     27 C25       -10.3910   -4.4370    3.7250 c3        1 0CO      0.148800
     28 C26       -11.8210   -4.9610    3.8490 c3        1 0CO     -0.124100
     29 O25        -9.4970   -5.3410    4.3780 oh        1 0CO     -0.599800
     30 C27       -10.2950   -3.0570    4.3640 c3        1 0CO     -0.124100
     31 C18        -3.9540   -3.9110    0.4600 c3        1 0CO     -0.079100
     32 C21        -6.8950   -5.4000   -0.5430 c3        1 0CO     -0.103100
     33 H4          2.1840    0.6880   -1.0480 hc        1 0CO      0.061700
     34 H4A         2.1940   -1.0330   -0.4930 hc        1 0CO      0.061700
     35 H3          2.3430   -0.3200    1.8900 h1        1 0CO      0.048700
     36 H2          2.6590    2.0970    2.4490 hc        1 0CO      0.052200
     37 H2A         2.4100    2.5530    0.7140 hc        1 0CO      0.052200
     38 H1          0.3170    2.9300    1.9040 h1        1 0CO      0.033700
     39 H6          0.0930   -1.8380   -0.9130 ha        1 0CO      0.124000
     40 H7         -2.2470   -0.3930    0.4890 ha        1 0CO      0.137000
     41 H14        -4.5810   -1.3810   -1.8570 hc        1 0CO      0.049700
     42 H12        -4.9190   -3.4940   -2.8490 hc        1 0CO      0.039700
     43 H12A       -4.6850   -5.0370   -1.9370 hc        1 0CO      0.039700
     44 H11        -2.3250   -4.6050   -1.5910 hc        1 0CO      0.040700
     45 H11A       -2.6960   -4.3720   -3.3430 hc        1 0CO      0.040700
     46 H9         -1.1250   -2.6630   -2.3130 hc        1 0CO      0.045700
     47 H9A        -2.5480   -1.9860   -3.1970 hc        1 0CO      0.045700
     48 H15        -4.9000    0.0720    0.0000 hc        1 0CO      0.046200
     49 H15A       -4.1890   -1.0950    1.1840 hc        1 0CO      0.046200
     50 H16        -6.3330   -1.9310    1.4980 hc        1 0CO      0.044200
     51 H16A       -6.9730   -1.0170    0.0730 hc        1 0CO      0.044200
     52 H17        -6.6460   -2.7910   -1.3980 hc        1 0CO      0.043700
     53 H19        -1.7680    1.5910   -0.8020 ha        1 0CO      0.120000
     54 H19A       -1.5900    2.8690    0.5330 ha        1 0CO      0.120000
     55 HO3         4.4200    0.6370    1.6020 ho        1 0CO      0.398000
     56 HO1         0.7780    1.4020    3.6020 ho        1 0CO      0.395000
     57 H22        -9.1060   -4.3430   -0.1210 hc        1 0CO      0.052200
     58 H22A       -8.5780   -2.6260    0.0320 hc        1 0CO      0.052200
     59 H23        -8.7790   -2.6390    2.3190 hc        1 0CO      0.054700
     60 H28        -7.6690   -5.4120    2.8610 h1        1 0CO      0.056200
     61 H28A       -7.0630   -3.7770    3.4200 h1        1 0CO      0.056200
     62 H24       -10.8220   -3.9510    1.6690 hc        1 0CO      0.053200
     63 H24A       -9.8950   -5.4950    1.9090 hc        1 0CO      0.053200
     64 H26       -11.9010   -5.9660    3.3690 hc        1 0CO      0.043533
     65 H26A      -12.1040   -5.0580    4.9240 hc        1 0CO      0.043533
     66 H26B      -12.5310   -4.2610    3.3520 hc        1 0CO      0.043533
     67 HO25       -9.7470   -5.3580    5.3090 ho        1 0CO      0.399000
     68 H27       -10.7790   -3.0630    5.3700 hc        1 0CO      0.043533
     69 H27A       -9.2230   -2.7680    4.4900 hc        1 0CO      0.043533
     70 H27B      -10.8060   -2.3010    3.7240 hc        1 0CO      0.043533
     71 H18        -2.8440   -3.8340    0.3660 hc        1 0CO      0.042700
     72 H18A       -4.2640   -3.4280    1.4200 hc        1 0CO      0.042700
     73 H18B       -4.2410   -4.9890    0.5090 hc        1 0CO      0.042700
     74 H21        -7.6520   -6.1230   -0.1540 hc        1 0CO      0.042700
     75 H21A       -5.8880   -5.8710   -0.4410 hc        1 0CO      0.042700
     76 H21B       -7.1000   -5.1960   -1.6200 hc        1 0CO      0.042700
@<TRIPOS>BOND
     1    1    2 1   
     2    1    6 1   
     3    1    7 2   
     4    2    3 1   
     5    2   33 1   
     6    2   34 1   
     7    3    4 1   
     8    3   19 1   
     9    3   35 1   
    10    4    5 1   
    11    4   36 1   
    12    4   37 1   
    13    5    6 1   
    14    5   20 1   
    15    5   38 1   
    16    6   18 2   
    17    7    8 1   
    18    7   39 1   
    19    8    9 2   
    20    8   40 1   
    21    9   10 1   
    22    9   14 1   
    23   10   11 1   
    24   10   15 1   
    25   10   41 1   
    26   11   12 1   
    27   11   17 1   
    28   11   31 1   
    29   12   13 1   
    30   12   42 1   
    31   12   43 1   
    32   13   14 1   
    33   13   44 1   
    34   13   45 1   
    35   14   46 1   
    36   14   47 1   
    37   15   16 1   
    38   15   48 1   
    39   15   49 1   
    40   16   17 1   
    41   16   50 1   
    42   16   51 1   
    43   17   21 1   
    44   17   52 1   
    45   18   53 1   
    46   18   54 1   
    47   19   55 1   
    48   20   56 1   
    49   21   22 1   
    50   21   25 1   
    51   21   32 1   
    52   22   23 1   
    53   22   57 1   
    54   22   58 1   
    55   23   24 1   
    56   23   26 1   
    57   23   59 1   
    58   24   25 1   
    59   24   60 1   
    60   24   61 1   
    61   26   27 1   
    62   26   62 1   
    63   26   63 1   
    64   27   28 1   
    65   27   29 1   
    66   27   30 1   
    67   28   64 1   
    68   28   65 1   
    69   28   66 1   
    70   29   67 1   
    71   30   68 1   
    72   30   69 1   
    73   30   70 1   
    74   31   71 1   
    75   31   72 1   
    76   31   73 1   
    77   32   74 1   
    78   32   75 1   
    79   32   76 1   
@<TRIPOS>SUBSTRUCTURE
     1 0CO         1 TEMP              0 ****  ****    0 ROOT
