@<TRIPOS>MOLECULE
0CO
   76    79     1     0     0
SMALL
bcc


@<TRIPOS>ATOM
      1 C5         -5.0750    0.0730    0.2310 ce        1 0CO     -0.070200
      2 C4         -6.4370   -0.0910   -0.3560 c3        1 0CO     -0.074200
      3 C3         -7.0130    1.2480   -0.8140 c3        1 0CO      0.145100
      4 C2         -7.0120    2.2630    0.3210 c3        1 0CO     -0.069400
      5 C1         -5.6020    2.4590    0.8670 c3        1 0CO      0.183300
      6 C10        -4.9460    1.1460    1.2160 ce        1 0CO     -0.120200
      7 C6         -4.0690   -0.7470   -0.1380 cf        1 0CO     -0.114000
      8 C7         -2.7100   -0.6610    0.3450 cf        1 0CO     -0.153000
      9 C8         -1.8000   -1.6500    0.3120 c2        1 0CO     -0.073400
     10 C14        -0.4120   -1.4980    0.8230 c3        1 0CO     -0.038500
     11 C13         0.6290   -1.8690   -0.2720 c3        1 0CO     -0.033000
     12 C12         0.4290   -3.3450   -0.5860 c3        1 0CO     -0.068400
     13 C11        -0.9890   -3.6070   -1.0620 c3        1 0CO     -0.072400
     14 C9         -2.0670   -3.0470   -0.1480 c3        1 0CO     -0.044200
     15 C15         0.0860   -0.1650    1.3640 c3        1 0CO     -0.070400
     16 C16         1.6100   -0.2680    1.2840 c3        1 0CO     -0.077400
     17 C17         1.9510   -1.5180    0.4480 c3        1 0CO     -0.054700
     18 C19        -4.3130    0.9900    2.3850 c2        1 0CO     -0.194000
     19 O3         -8.3690    1.0920   -1.2160 oh        1 0CO     -0.600800
     20 O1         -4.8700    3.1750   -0.1250 oh        1 0CO     -0.597800
     21 C20         3.2180   -1.3160   -0.3930 c3        1 0CO      0.162800
     22 C22         4.4190   -0.9950    0.5270 c3        1 0CO     -0.103400
     23 C23         4.8690    0.4200    0.1640 c3        1 0CO     -0.087700
     24 C28         4.1250    0.7340   -1.1370 c3        1 0CO      0.128400
     25 O21         3.0440   -0.1870   -1.2750 os        1 0CO     -0.416600
     26 C24         6.3730    0.5300    0.0340 c3        1 0CO     -0.100400
     27 C25         6.8950    1.9720    0.1070 c3        1 0CO      0.148800
     28 C26         8.3160    2.0170   -0.4500 c3        1 0CO     -0.103600
     29 O25         6.0620    2.8630   -0.6330 oh        1 0CO     -0.596800
     30 C27         6.8830    2.4940    1.5390 c3        1 0CO     -0.103600
     31 C18         0.4410   -1.0220   -1.5170 c3        1 0CO     -0.079100
     32 C21         3.5260   -2.5340   -1.2540 c3        1 0CO     -0.103100
     33 H4         -6.4130   -0.7980   -1.2270 hc        1 0CO      0.053200
     34 H4A        -7.1200   -0.5360    0.4180 hc        1 0CO      0.053200
     35 H3         -6.4050    1.6500   -1.6740 h1        1 0CO      0.054700
     36 H2         -7.4040    3.2410   -0.0590 hc        1 0CO      0.066700
     37 H2A        -7.6810    1.9100    1.1470 hc        1 0CO      0.066700
     38 H1         -5.6540    3.1090    1.7900 h1        1 0CO      0.038700
     39 H6         -4.2720   -1.5310   -0.8900 ha        1 0CO      0.124000
     40 H7         -2.4220    0.3210    0.7640 ha        1 0CO      0.128000
     41 H14        -0.3050   -2.2520    1.6610 hc        1 0CO      0.051700
     42 H12         1.1480   -3.6730   -1.3810 hc        1 0CO      0.040200
     43 H12A        0.6400   -3.9550    0.3310 hc        1 0CO      0.040200
     44 H11        -1.1160   -3.1690   -2.0870 hc        1 0CO      0.041700
     45 H11A       -1.1410   -4.7150   -1.1540 hc        1 0CO      0.041700
     46 H9         -2.1440   -3.6960    0.7680 hc        1 0CO      0.046700
     47 H9A        -3.0520   -3.1140   -0.6810 hc        1 0CO      0.046700
     48 H15        -0.2810    0.6860    0.7370 hc        1 0CO      0.044700
     49 H15A       -0.2600    0.0040    2.4120 hc        1 0CO      0.044700
     50 H16         2.0390    0.6440    0.7970 hc        1 0CO      0.046200
     51 H16A        2.0530   -0.3550    2.3060 hc        1 0CO      0.046200
     52 H17         2.1840   -2.3700    1.1480 hc        1 0CO      0.044700
     53 H19        -3.8450    0.0400    2.6760 ha        1 0CO      0.120500
     54 H19A       -4.2350    1.7990    3.1230 ha        1 0CO      0.120500
     55 HO3        -8.3650    0.4870   -1.9670 ho        1 0CO      0.398000
     56 HO1        -3.9340    3.0700    0.0790 ho        1 0CO      0.405000
     57 H22         4.1290   -1.0510    1.6040 hc        1 0CO      0.053700
     58 H22A        5.2430   -1.7330    0.3600 hc        1 0CO      0.053700
     59 H23         4.5190    1.1370    0.9560 hc        1 0CO      0.068700
     60 H28         3.6710    1.7580   -1.1300 h1        1 0CO      0.046200
     61 H28A        4.7880    0.6220   -2.0350 h1        1 0CO      0.046200
     62 H24         6.8590   -0.0530    0.8590 hc        1 0CO      0.048700
     63 H24A        6.6980    0.0700   -0.9370 hc        1 0CO      0.048700
     64 H26         8.3270    1.6920   -1.5170 hc        1 0CO      0.044367
     65 H26A        8.7110    3.0590   -0.3930 hc        1 0CO      0.044367
     66 H26B        8.9790    1.3420    0.1400 hc        1 0CO      0.044367
     67 HO25        6.0350    2.5320   -1.5390 ho        1 0CO      0.399000
     68 H27         7.5510    1.8660    2.1730 hc        1 0CO      0.044367
     69 H27A        7.2430    3.5500    1.5570 hc        1 0CO      0.044367
     70 H27B        5.8480    2.4690    1.9540 hc        1 0CO      0.044367
     71 H18         0.6940    0.0450   -1.2980 hc        1 0CO      0.042700
     72 H18A        1.1160   -1.3760   -2.3330 hc        1 0CO      0.042700
     73 H18B       -0.6160   -1.0710   -1.8730 hc        1 0CO      0.042700
     74 H21         2.7970   -2.6040   -2.0950 hc        1 0CO      0.043367
     75 H21A        4.5490   -2.4450   -1.6930 hc        1 0CO      0.043367
     76 H21B        3.4710   -3.4610   -0.6370 hc        1 0CO      0.043367
@<TRIPOS>BOND
     1    1    2 1   
     2    1    6 1   
     3    1    7 2   
     4    2    3 1   
     5    2   33 1   
     6    2   34 1   
     7    3    4 1   
     8    3   19 1   
     9    3   35 1   
    10    4    5 1   
    11    4   36 1   
    12    4   37 1   
    13    5    6 1   
    14    5   20 1   
    15    5   38 1   
    16    6   18 2   
    17    7    8 1   
    18    7   39 1   
    19    8    9 2   
    20    8   40 1   
    21    9   10 1   
    22    9   14 1   
    23   10   11 1   
    24   10   15 1   
    25   10   41 1   
    26   11   12 1   
    27   11   17 1   
    28   11   31 1   
    29   12   13 1   
    30   12   42 1   
    31   12   43 1   
    32   13   14 1   
    33   13   44 1   
    34   13   45 1   
    35   14   46 1   
    36   14   47 1   
    37   15   16 1   
    38   15   48 1   
    39   15   49 1   
    40   16   17 1   
    41   16   50 1   
    42   16   51 1   
    43   17   21 1   
    44   17   52 1   
    45   18   53 1   
    46   18   54 1   
    47   19   55 1   
    48   20   56 1   
    49   21   22 1   
    50   21   25 1   
    51   21   32 1   
    52   22   23 1   
    53   22   57 1   
    54   22   58 1   
    55   23   24 1   
    56   23   26 1   
    57   23   59 1   
    58   24   25 1   
    59   24   60 1   
    60   24   61 1   
    61   26   27 1   
    62   26   62 1   
    63   26   63 1   
    64   27   28 1   
    65   27   29 1   
    66   27   30 1   
    67   28   64 1   
    68   28   65 1   
    69   28   66 1   
    70   29   67 1   
    71   30   68 1   
    72   30   69 1   
    73   30   70 1   
    74   31   71 1   
    75   31   72 1   
    76   31   73 1   
    77   32   74 1   
    78   32   75 1   
    79   32   76 1   
@<TRIPOS>SUBSTRUCTURE
     1 0CO         1 TEMP              0 ****  ****    0 ROOT
