@<TRIPOS>MOLECULE
0CO
   76    79     1     0     0
SMALL
bcc


@<TRIPOS>ATOM
      1 C5          0.3790    0.0750   -0.0530 ce        1 0CO     -0.076200
      2 C4          1.8610    0.0070   -0.2080 c3        1 0CO     -0.035200
      3 C3          2.5630    0.4330    1.0790 c3        1 0CO      0.146100
      4 C2          2.1140    1.8270    1.5010 c3        1 0CO     -0.146400
      5 C1          0.6040    1.8700    1.7160 c3        1 0CO      0.186300
      6 C10        -0.1440    1.3090    0.5320 ce        1 0CO     -0.068200
      7 C6         -0.3930   -0.9540   -0.4610 cf        1 0CO     -0.106000
      8 C7         -1.8300   -1.0160   -0.3310 cf        1 0CO     -0.151000
      9 C8         -2.6540   -1.7600   -1.0890 c2        1 0CO     -0.078400
     10 C14        -4.1280   -1.7910   -0.9020 c3        1 0CO     -0.036500
     11 C13        -4.6350   -3.2500   -0.7080 c3        1 0CO     -0.033000
     12 C12        -4.3330   -3.9950   -2.0000 c3        1 0CO     -0.068400
     13 C11        -2.8460   -3.9650   -2.3040 c3        1 0CO     -0.072400
     14 C9         -2.2290   -2.5760   -2.2660 c3        1 0CO     -0.043200
     15 C15        -4.7940   -1.0210    0.2290 c3        1 0CO     -0.071400
     16 C16        -6.1530   -1.7000    0.4040 c3        1 0CO     -0.076400
     17 C17        -6.1330   -3.0040   -0.4180 c3        1 0CO     -0.053700
     18 C19        -1.2190    1.9470    0.0530 c2        1 0CO     -0.193000
     19 O3          3.9580    0.4120    0.8010 oh        1 0CO     -0.599800
     20 O1          0.2160    1.1140    2.8600 oh        1 0CO     -0.588800
     21 C20        -6.9460   -4.1180    0.2550 c3        1 0CO      0.163800
     22 C22        -8.4170   -3.6730    0.4240 c3        1 0CO     -0.104400
     23 C23        -8.7020   -3.6920    1.9270 c3        1 0CO     -0.087700
     24 C28        -7.4670   -4.3470    2.5490 c3        1 0CO      0.130400
     25 O21        -6.4230   -4.3750    1.5730 os        1 0CO     -0.419600
     26 C24        -9.9890   -4.4230    2.2410 c3        1 0CO     -0.059400
     27 C25       -10.3980   -4.4130    3.7190 c3        1 0CO      0.148800
     28 C26       -11.8280   -4.9370    3.8440 c3        1 0CO     -0.124100
     29 O25        -9.5050   -5.3080    4.3850 oh        1 0CO     -0.599800
     30 C27       -10.3050   -3.0250    4.3400 c3        1 0CO     -0.124100
     31 C18        -3.9510   -3.9160    0.4720 c3        1 0CO     -0.079100
     32 C21        -6.8830   -5.4200   -0.5330 c3        1 0CO     -0.103100
     33 H4          2.1940   -1.0300   -0.4740 hc        1 0CO      0.061700
     34 H4A         2.1830    0.6860   -1.0430 hc        1 0CO      0.061700
     35 H3          2.3300   -0.2990    1.9030 h1        1 0CO      0.048700
     36 H2          2.3960    2.5650    0.7070 hc        1 0CO      0.052200
     37 H2A         2.6380    2.1230    2.4460 hc        1 0CO      0.052200
     38 H1          0.2970    2.9450    1.8830 h1        1 0CO      0.033700
     39 H6          0.0970   -1.8440   -0.8990 ha        1 0CO      0.124000
     40 H7         -2.2530   -0.3940    0.4810 ha        1 0CO      0.137000
     41 H14        -4.5740   -1.4050   -1.8690 hc        1 0CO      0.049700
     42 H12        -4.9020   -3.5270   -2.8450 hc        1 0CO      0.039700
     43 H12A       -4.6680   -5.0620   -1.9200 hc        1 0CO      0.039700
     44 H11        -2.6740   -4.4030   -3.3220 hc        1 0CO      0.040700
     45 H11A       -2.3100   -4.6220   -1.5670 hc        1 0CO      0.040700
     46 H9         -2.5330   -2.0160   -3.1940 hc        1 0CO      0.045700
     47 H9A        -1.1130   -2.6820   -2.2990 hc        1 0CO      0.045700
     48 H15        -4.9050    0.0610   -0.0250 hc        1 0CO      0.046200
     49 H15A       -4.1960   -1.0950    1.1720 hc        1 0CO      0.046200
     50 H16        -6.9750   -1.0320    0.0470 hc        1 0CO      0.044200
     51 H16A       -6.3390   -1.9330    1.4830 hc        1 0CO      0.044200
     52 H17        -6.6370   -2.8170   -1.4080 hc        1 0CO      0.043700
     53 H19        -1.7720    1.5820   -0.8230 ha        1 0CO      0.120000
     54 H19A       -1.6040    2.8700    0.5040 ha        1 0CO      0.120000
     55 HO3         4.4060    0.6600    1.6180 ho        1 0CO      0.398000
     56 HO1         0.7540    1.4310    3.5950 ho        1 0CO      0.395000
     57 H22        -8.5770   -2.6480    0.0090 hc        1 0CO      0.052200
     58 H22A       -9.1000   -4.3680   -0.1250 hc        1 0CO      0.052200
     59 H23        -8.7810   -2.6330    2.2960 hc        1 0CO      0.054700
     60 H28        -7.6730   -5.4000    2.8730 h1        1 0CO      0.056200
     61 H28A       -7.0690   -3.7590    3.4150 h1        1 0CO      0.056200
     62 H24        -9.8960   -5.4940    1.9160 hc        1 0CO      0.053200
     63 H24A      -10.8220   -3.9530    1.6550 hc        1 0CO      0.053200
     64 H26       -11.9050   -5.9480    3.3770 hc        1 0CO      0.043533
     65 H26A      -12.1140   -5.0200    4.9200 hc        1 0CO      0.043533
     66 H26B      -12.5370   -4.2440    3.3360 hc        1 0CO      0.043533
     67 HO25       -9.7580   -5.3130    5.3150 ho        1 0CO      0.399000
     68 H27       -10.8140   -2.2780    3.6880 hc        1 0CO      0.043533
     69 H27A      -10.7920   -3.0180    5.3440 hc        1 0CO      0.043533
     70 H27B       -9.2340   -2.7340    4.4650 hc        1 0CO      0.043533
     71 H18        -4.2350   -4.9940    0.5280 hc        1 0CO      0.042700
     72 H18A       -4.2660   -3.4260    1.4260 hc        1 0CO      0.042700
     73 H18B       -2.8410   -3.8360    0.3810 hc        1 0CO      0.042700
     74 H21        -5.8750   -5.8870   -0.4230 hc        1 0CO      0.042700
     75 H21A       -7.6400   -6.1420   -0.1420 hc        1 0CO      0.042700
     76 H21B       -7.0850   -5.2250   -1.6120 hc        1 0CO      0.042700
@<TRIPOS>BOND
     1    1    2 1   
     2    1    6 1   
     3    1    7 2   
     4    2    3 1   
     5    2   33 1   
     6    2   34 1   
     7    3    4 1   
     8    3   19 1   
     9    3   35 1   
    10    4    5 1   
    11    4   36 1   
    12    4   37 1   
    13    5    6 1   
    14    5   20 1   
    15    5   38 1   
    16    6   18 2   
    17    7    8 1   
    18    7   39 1   
    19    8    9 2   
    20    8   40 1   
    21    9   10 1   
    22    9   14 1   
    23   10   11 1   
    24   10   15 1   
    25   10   41 1   
    26   11   12 1   
    27   11   17 1   
    28   11   31 1   
    29   12   13 1   
    30   12   42 1   
    31   12   43 1   
    32   13   14 1   
    33   13   44 1   
    34   13   45 1   
    35   14   46 1   
    36   14   47 1   
    37   15   16 1   
    38   15   48 1   
    39   15   49 1   
    40   16   17 1   
    41   16   50 1   
    42   16   51 1   
    43   17   21 1   
    44   17   52 1   
    45   18   53 1   
    46   18   54 1   
    47   19   55 1   
    48   20   56 1   
    49   21   22 1   
    50   21   25 1   
    51   21   32 1   
    52   22   23 1   
    53   22   57 1   
    54   22   58 1   
    55   23   24 1   
    56   23   26 1   
    57   23   59 1   
    58   24   25 1   
    59   24   60 1   
    60   24   61 1   
    61   26   27 1   
    62   26   62 1   
    63   26   63 1   
    64   27   28 1   
    65   27   29 1   
    66   27   30 1   
    67   28   64 1   
    68   28   65 1   
    69   28   66 1   
    70   29   67 1   
    71   30   68 1   
    72   30   69 1   
    73   30   70 1   
    74   31   71 1   
    75   31   72 1   
    76   31   73 1   
    77   32   74 1   
    78   32   75 1   
    79   32   76 1   
@<TRIPOS>SUBSTRUCTURE
     1 0CO         1 TEMP              0 ****  ****    0 ROOT
