@<TRIPOS>MOLECULE
0CO
   76    75     1     0     0
SMALL
bcc


@<TRIPOS>ATOM
      1 C5          2.8260    0.2830    2.0670 c1        1 0CO     -0.064000
      2 C4          2.8630   -0.2660    3.3920 c2        1 0CO     -0.116000
      3 C3          4.2800    0.1410    4.2050 c3        1 0CO      0.038000
      4 C2          4.5710    1.3540    4.1950 c3        1 0CO     -0.222000
      5 C1          4.7320    2.0360    2.6810 c3        1 0CO      0.070000
      6 C10         3.5940    1.7440    1.8310 c2        1 0CO     -0.084000
      7 C6          2.1690   -0.3770    1.0180 c1        1 0CO     -0.119000
      8 C7          1.4650   -1.7290    1.2760 c1        1 0CO     -0.150000
      9 C8          1.6020   -2.7570    0.3770 c1        1 0CO     -0.078000
     10 C14         0.2660   -3.3620   -0.4060 c2        1 0CO     -0.066000
     11 C13        -0.3270   -2.4780   -1.2650 c3        1 0CO     -0.033000
     12 C12         0.5480   -1.4430   -1.6490 c3        1 0CO     -0.149000
     13 C11         1.8380   -1.5730   -1.9330 c3        1 0CO     -0.153000
     14 C9          2.5380   -2.5480   -1.0080 c3        1 0CO     -0.132000
     15 C15        -0.8940   -3.7810    0.6420 c3        1 0CO     -0.158000
     16 C16        -2.1130   -2.7480    0.3890 c3        1 0CO     -0.150000
     17 C17        -1.6050   -1.7770   -0.3950 c3        1 0CO     -0.102000
     18 C19         3.1750    2.6160    0.8910 c1        1 0CO     -0.185000
     19 O3          5.4210   -0.6180    3.5740 oh        1 0CO     -0.323000
     20 O1          4.9880    3.4550    2.7610 oh        1 0CO     -0.325000
     21 C20        -2.6670   -1.2780   -1.3440 c3        1 0CO      0.091000
     22 C22        -2.2690   -0.1730   -1.9430 c3        1 0CO     -0.180000
     23 C23        -2.8010    1.0410   -1.0410 c3        1 0CO     -0.130000
     24 C28        -4.0120    0.6670   -0.5800 c3        1 0CO     -0.022000
     25 O21        -3.9740   -0.8670   -0.5420 os        1 0CO     -0.287000
     26 C24        -2.9380    2.3350   -1.9080 c3        1 0CO     -0.136000
     27 C25        -2.9750    3.5610   -0.9940 c3        1 0CO      0.075000
     28 C26        -2.1810    4.6720   -1.6140 c3        1 0CO     -0.242500
     29 O25        -2.4260    3.2340    0.2470 oh        1 0CO     -0.327000
     30 C27        -4.4330    4.0190   -0.8050 c3        1 0CO     -0.242500
     31 C18        -0.8550   -3.2000   -2.4850 c3        1 0CO     -0.206000
     32 C21        -3.0080   -2.3760   -2.4040 c3        1 0CO     -0.210000
     33 H4          2.7410   -1.2360    3.3870 ha        1 0CO      0.103000
     34 H4A         2.0700    0.0190    3.9000 ha        1 0CO      0.103000
     35 H3          4.1940   -0.1480    5.1380 h1        1 0CO      0.071000
     36 H2          5.4220    1.4710    4.6790 hc        1 0CO      0.092000
     37 H2A         3.8720    1.8400    4.6770 hc        1 0CO      0.092000
     38 H1          5.5550    1.7260    2.2590 h1        1 0CO      0.093000
     39 H6          2.1580    0.0140    0.1300 ha        1 0CO      0.125000
     40 H7          0.9940   -1.8810    2.1280 ha        1 0CO      0.134000
     41 H14         0.5300   -4.1460   -0.9040 ha        1 0CO      0.098000
     42 H12         0.1450   -1.0340   -2.4370 hc        1 0CO      0.083000
     43 H12A        0.5000   -0.7630   -0.9190 hc        1 0CO      0.083000
     44 H11         2.2730   -0.6900   -1.8530 hc        1 0CO      0.079500
     45 H11A        1.9300   -1.8890   -2.8540 hc        1 0CO      0.079500
     46 H9          2.8340   -3.3290   -1.5300 hc        1 0CO      0.088500
     47 H9A         3.4010   -2.2060   -0.6960 hc        1 0CO      0.088500
     48 H15        -1.1890   -4.6990    0.4710 hc        1 0CO      0.084000
     49 H15A       -0.5660   -3.6970    1.5600 hc        1 0CO      0.084000
     50 H16        -2.8520   -3.2010   -0.0670 hc        1 0CO      0.089500
     51 H16A       -2.4210   -2.3680    1.2450 hc        1 0CO      0.089500
     52 H17        -1.2720   -1.0390    0.1560 hc        1 0CO      0.093000
     53 H19         3.6460    3.4770    0.7700 DU        1 0CO      0.134000
     54 H19A        2.4070    2.3970    0.3320 ha        1 0CO      0.112000
     55 HO3         6.0090   -0.8400    4.1980 ho        1 0CO      0.195000
     56 HO1         5.8650    3.5940    2.9260 ho        1 0CO      0.198000
     57 H22        -1.2950   -0.1510   -1.9930 hc        1 0CO      0.096000
     58 H22A       -2.6590   -0.1190   -2.8530 hc        1 0CO      0.096000
     59 H23        -2.1930    1.1970   -0.2970 hc        1 0CO      0.119000
     60 H28        -4.1590    1.0270    0.3230 h1        1 0CO      0.080500
     61 H28A       -4.7140    0.9740   -1.1870 h1        1 0CO      0.080500
     62 H24        -2.1800    2.4030   -2.5100 hc        1 0CO      0.091000
     63 H24A       -3.7770    2.2920   -2.4350 hc        1 0CO      0.091000
     64 H26        -1.2770    4.3450   -1.8380 hc        1 0CO      0.083000
     65 H26A       -2.1120    5.4160   -0.9820 hc        1 0CO      0.083000
     66 H26B       -2.6280    4.9770   -2.4290 hc        1 0CO      0.083000
     67 HO25       -2.2730    3.9720    0.7050 ho        1 0CO      0.198000
     68 H27        -4.4560    4.9980   -0.6720 hc        1 0CO      0.083000
     69 H27A       -4.8170    3.5740   -0.0190 hc        1 0CO      0.083000
     70 H27B       -4.9550    3.7850   -1.5990 hc        1 0CO      0.083000
     71 H18        -1.5670   -3.8090   -2.2200 hc        1 0CO      0.075333
     72 H18A       -0.1310   -3.7060   -2.9020 hc        1 0CO      0.075333
     73 H18B       -1.2080   -2.5410   -3.1310 hc        1 0CO      0.075333
     74 H21        -2.5680   -2.1550   -3.2600 hc        1 0CO      0.084000
     75 H21A       -3.9900   -2.4130   -2.5380 hc        1 0CO      0.084000
     76 H21B       -2.6900   -3.2440   -2.0890 hc        1 0CO      0.084000
@<TRIPOS>BOND
     1    1    6 1   
     2    1    7 1   
     3    2    3 1   
     4    2   33 1   
     5    2   34 1   
     6    3    4 1   
     7    3   19 1   
     8    3   35 1   
     9    4    5 1   
    10    4   36 1   
    11    4   37 1   
    12    5    6 1   
    13    5   20 1   
    14    5   38 1   
    15    6   18 1   
    16    7   39 1   
    17    8    9 1   
    18    8   40 1   
    19    9   14 1   
    20   10   11 1   
    21   10   15 1   
    22   10   41 1   
    23   11   12 1   
    24   11   17 1   
    25   11   31 1   
    26   12   13 1   
    27   12   42 1   
    28   12   43 1   
    29   13   14 1   
    30   13   44 1   
    31   13   45 1   
    32   14   46 1   
    33   14   47 1   
    34   15   16 1   
    35   15   48 1   
    36   15   49 1   
    37   16   17 1   
    38   16   50 1   
    39   16   51 1   
    40   17   21 1   
    41   17   52 1   
    42   18   54 1   
    43   19   55 1   
    44   20   56 1   
    45   21   22 1   
    46   21   25 1   
    47   21   32 1   
    48   22   23 1   
    49   22   57 1   
    50   22   58 1   
    51   23   24 1   
    52   23   26 1   
    53   23   59 1   
    54   24   25 1   
    55   24   60 1   
    56   24   61 1   
    57   26   27 1   
    58   26   62 1   
    59   26   63 1   
    60   27   28 1   
    61   27   29 1   
    62   27   30 1   
    63   28   64 1   
    64   28   65 1   
    65   28   66 1   
    66   29   67 1   
    67   30   68 1   
    68   30   69 1   
    69   30   70 1   
    70   31   71 1   
    71   31   72 1   
    72   31   73 1   
    73   32   74 1   
    74   32   75 1   
    75   32   76 1   
@<TRIPOS>SUBSTRUCTURE
     1 0CO         1 TEMP              0 ****  ****    0 ROOT
