@<TRIPOS>MOLECULE
0CP
   47    45     1     0     0
SMALL
bcc


@<TRIPOS>ATOM
      1 C1          0.2260   -0.0960   -0.2530 c3        1 0CP     -0.077000
      2 N1          4.4460    1.4720    7.2210 n2        1 0CP     -0.253000
      3 O1          1.4280    0.5150    0.2120 os        1 0CP     -0.194000
      4 C2          1.7940    0.1690    1.5050 c2        1 0CP      0.123000
      5 N2          3.7450   -1.4800    7.5830 n2        1 0CP     -0.332000
      6 O2          3.8920   -0.3060    0.5750 os        1 0CP     -0.151000
      7 C3          3.1120   -0.1200    1.7200 c2        1 0CP      0.026000
      8 C4          5.0760    0.4300    0.5580 c2        1 0CP     -0.038000
      9 C5          7.9390   -2.3740   -0.9060 c3        1 0CP     -0.185000
     10 C6          8.3960   -1.0950   -1.5900 c3        1 0CP     -0.190000
     11 C7          8.4270    0.0730   -0.6120 c3        1 0CP     -0.168000
     12 C8          7.1910    0.9530   -0.6150 c3        1 0CP     -0.119000
     13 C9          5.9280    0.2000   -0.4520 c2        1 0CP     -0.216000
     14 C10         7.7080   -0.9050   -2.8570 c1        1 0CP     -0.044000
     15 C11         3.7840   -0.3300    2.9870 c2        1 0CP     -0.131000
     16 C12         3.3450    0.0800    4.1840 c2        1 0CP     -0.152000
     17 C13        -0.0680    0.1520    3.3290 c1        1 0CP     -0.164000
     18 C14         0.7930    0.1580    2.4950 c1        1 0CP     -0.157000
     19 C15         4.0880   -0.1890    5.4500 c3        1 0CP     -0.088000
     20 C16         4.5980    1.1200    6.0030 c2        1 0CP     -0.054000
     21 C17         4.2030   -0.9290    8.5960 c1        1 0CP      0.353000
     22 C18         3.1490   -0.9520    6.4070 c3        1 0CP      0.024000
     23 H1          0.3420   -1.2060   -0.2860 h1        1 0CP      0.085667
     24 H1A         0.1050    0.3220   -1.2840 h1        1 0CP      0.085667
     25 H1B        -0.6380    0.1880    0.3960 h1        1 0CP      0.085667
     26 HN2         2.2740   -0.2820    6.6570 h1        1 0CP      0.102000
     27 H4          5.2180    1.1630    1.3640 h4        1 0CP      0.139000
     28 H5          6.9410   -2.2230   -0.4290 hc        1 0CP      0.082333
     29 H5A         8.6700   -2.6650   -0.1150 hc        1 0CP      0.082333
     30 H6          7.8590   -3.2000   -1.6520 hc        1 0CP      0.082333
     31 H7          9.4650   -1.2770   -1.9530 hc        1 0CP      0.142000
     32 H7A         8.5890   -0.3250    0.4240 hc        1 0CP      0.081500
     33 H8          9.3090    0.7270   -0.8540 hc        1 0CP      0.081500
     34 H8A         7.3040    1.7160    0.2040 hc        1 0CP      0.084500
     35 H9          7.1390    1.5250   -1.5830 hc        1 0CP      0.084500
     36 H10         5.7030   -0.5530   -1.2260 ha        1 0CP      0.147000
     37 H10A        7.5460    0.1390   -3.1720 ha        1 0CP      0.035000
     38 H11         4.7420   -0.8790    2.8940 ha        1 0CP      0.143000
     39 H13         2.4010    0.6380    4.3040 ha        1 0CP      0.143000
     40 H14        -0.8310    0.1450    4.0670 ha        1 0CP      0.232000
     41 H15         0.5450    1.0920    5.6840 ha        1 0CP      0.001000
     42 H16         4.9970   -0.8260    5.2430 hc        1 0CP      0.122000
     43 H16A        5.1260    1.7230    5.2290 h4        1 0CP      0.097000
     44 H18         0.6240    1.3570    6.3030 ha        1 0CP      0.001000
     45 H18A        2.7560   -1.8570    5.8570 h1        1 0CP      0.102000
     46 HN1         4.8410    2.3530    7.4770 hn        1 0CP      0.156000
     47 O3          4.6980   -0.6840    9.6620 o         1 0CP     -0.212000
@<TRIPOS>BOND
     1    1    3 1   
     2    1   23 1   
     3    1   24 1   
     4    1   25 1   
     5    2   20 1   
     6    2   46 1   
     7    3    4 1   
     8    4    7 1   
     9    4   18 1   
    10    5   21 1   
    11    5   22 1   
    12    6    7 1   
    13    6    8 1   
    14    7   15 1   
    15    8   13 1   
    16    8   27 1   
    17    9   10 1   
    18    9   28 1   
    19    9   29 1   
    20    9   30 1   
    21   10   11 1   
    22   10   14 1   
    23   10   31 1   
    24   11   12 1   
    25   11   32 1   
    26   11   33 1   
    27   12   13 1   
    28   12   34 1   
    29   12   35 1   
    30   13   36 1   
    31   14   37 1   
    32   15   16 1   
    33   15   38 1   
    34   16   19 1   
    35   16   39 1   
    36   17   18 1   
    37   17   40 1   
    38   19   20 1   
    39   19   22 1   
    40   19   42 1   
    41   20   43 1   
    42   21   47 1   
    43   22   26 1   
    44   22   45 1   
    45   41   44 1   
@<TRIPOS>SUBSTRUCTURE
     1 0CP         1 TEMP              0 ****  ****    0 ROOT
