@<TRIPOS>MOLECULE
0CP
   47    46     1     0     0
SMALL
bcc


@<TRIPOS>ATOM
      1 C1          0.0590    0.2170   -0.8400 c3        1 0CP     -0.077000
      2 N1          4.2450    1.1180    7.7980 n         1 0CP     -0.203000
      3 O1          1.3550    0.6410   -0.4200 os        1 0CP     -0.195000
      4 C2          1.7100    0.2410    0.8610 c2        1 0CP      0.123000
      5 N2          3.6830   -1.1870    7.0740 n         1 0CP     -0.360000
      6 O2          3.6680   -0.5710   -0.1420 os        1 0CP     -0.141000
      7 C3          2.9720   -0.2550    1.0300 c2        1 0CP      0.027000
      8 C4          4.9080    0.0510   -0.2620 c2        1 0CP     -0.043000
      9 C5          8.2600   -0.4070    1.0530 c3        1 0CP     -0.229000
     10 C6          7.8910   -1.2090   -0.1780 c3        1 0CP     -0.182000
     11 C7          8.0720   -0.3880   -1.4520 c3        1 0CP     -0.124000
     12 C8          6.8880    0.5400   -1.6670 c3        1 0CP     -0.130000
     13 C9          5.6070   -0.1670   -1.4030 c2        1 0CP     -0.148000
     14 C10         6.5490   -1.8090   -0.1840 c1        1 0CP     -0.111000
     15 C11         3.6460   -0.5700    2.2730 c2        1 0CP     -0.139000
     16 C12         3.3350   -0.0740    3.4780 c2        1 0CP     -0.150000
     17 C13        -0.0600    0.5320    2.7520 c1        1 0CP     -0.169000
     18 C14         0.7590    0.3960    1.8890 c1        1 0CP     -0.153000
     19 C15         4.0750   -0.4320    4.7100 c3        1 0CP     -0.170000
     20 C16         4.7570    2.0010    8.6100 c1        1 0CP     -0.108000
     21 C17         4.3560   -0.3220    7.9340 c2        1 0CP      0.303000
     22 C18         3.0910   -0.7960    5.8290 c3        1 0CP     -0.031000
     23 H1         -0.7280    0.6240   -0.1600 h1        1 0CP      0.085667
     24 H1A         0.0070   -0.8970   -0.8760 h1        1 0CP      0.085667
     25 H1B        -0.0350    0.6540   -1.8660 h1        1 0CP      0.085667
     26 HN2         3.9410   -2.1460    7.1690 hn        1 0CP      0.241000
     27 H4          5.2130    0.7220    0.5530 h4        1 0CP      0.142000
     28 H5          7.6070    0.4950    1.1410 hc        1 0CP      0.071333
     29 H5A         9.3220   -0.0670    1.0020 hc        1 0CP      0.071333
     30 H6          8.1320   -1.0270    1.9730 hc        1 0CP      0.071333
     31 H7          8.5840   -2.1060   -0.2360 hc        1 0CP      0.135000
     32 H7A         8.1540   -1.0890   -2.3220 hc        1 0CP      0.087500
     33 H8          9.0180    0.2090   -1.3950 hc        1 0CP      0.087500
     34 H8A         6.9890    1.4360   -0.9980 hc        1 0CP      0.087500
     35 H9          6.8920    0.9130   -2.7260 hc        1 0CP      0.087500
     36 H10         5.2210   -0.8300   -2.1930 ha        1 0CP      0.167000
     37 H10A        6.0360   -1.8570    0.7900 ha        1 0CP      0.028000
     38 H11         4.4840   -1.2850    2.1550 ha        1 0CP      0.145000
     39 H13         2.5110    0.6490    3.6090 ha        1 0CP      0.136000
     40 H14        -0.7880    0.6530    3.5140 ha        1 0CP      0.230000
     41 H15         4.7040    0.4460    5.0210 hc        1 0CP      0.098000
     42 H16         4.7740   -1.2910    4.5240 hc        1 0CP      0.098000
     43 H16A        5.3290    1.6350    9.4860 ha        1 0CP      0.083000
     44 H18         2.3940    0.0740    6.0020 h1        1 0CP      0.099500
     45 H18A        2.4580   -1.6620    5.4770 h1        1 0CP      0.099500
     46 HN1         3.7240    1.4470    7.0100 hn        1 0CP      0.243000
     47 O3          5.0280   -0.7950    8.8770 o         1 0CP     -0.356000
@<TRIPOS>BOND
     1    1    3 1   
     2    1   23 1   
     3    1   24 1   
     4    1   25 1   
     5    2   20 1   
     6    2   21 1   
     7    2   46 1   
     8    3    4 1   
     9    4    7 1   
    10    4   18 1   
    11    5   21 1   
    12    5   22 1   
    13    5   26 1   
    14    6    7 1   
    15    6    8 1   
    16    7   15 1   
    17    8   13 1   
    18    8   27 1   
    19    9   10 1   
    20    9   28 1   
    21    9   29 1   
    22    9   30 1   
    23   10   11 1   
    24   10   14 1   
    25   10   31 1   
    26   11   12 1   
    27   11   32 1   
    28   11   33 1   
    29   12   13 1   
    30   12   34 1   
    31   12   35 1   
    32   13   36 1   
    33   14   37 1   
    34   15   16 1   
    35   15   38 1   
    36   16   19 1   
    37   16   39 1   
    38   17   18 1   
    39   17   40 1   
    40   19   22 1   
    41   19   41 1   
    42   19   42 1   
    43   20   43 1   
    44   21   47 1   
    45   22   44 1   
    46   22   45 1   
@<TRIPOS>SUBSTRUCTURE
     1 0CP         1 TEMP              0 ****  ****    0 ROOT
