@<TRIPOS>MOLECULE
0CP
   47    48     1     0     0
SMALL
bcc


@<TRIPOS>ATOM
      1 C1         -3.6940    0.2300   -1.8980 c3        1 0CP     -0.080000
      2 N1          0.4380    0.9470    5.4020 n         1 0CP     -0.378000
      3 O1         -2.7380   -0.7010   -1.5290 os        1 0CP     -0.191000
      4 C2         -1.8930   -0.2670   -0.4950 c2        1 0CP      0.075000
      5 N2          0.1030   -1.5140    5.5750 n         1 0CP     -0.378000
      6 O2         -0.0510   -0.7620   -1.7260 os        1 0CP     -0.207000
      7 C3         -0.4960   -0.3340   -0.4310 c2        1 0CP      0.031000
      8 O3          0.2120   -0.1580    7.4850 o         1 0CP     -0.406000
      9 C4          1.0400    0.1740   -2.2230 c3        1 0CP      0.025000
     10 C5          2.2070   -0.6070   -2.6220 c3        1 0CP     -0.160000
     11 C6          2.4470   -0.3750   -3.9680 c3        1 0CP     -0.119000
     12 C7          2.6640    0.9730   -4.3340 c3        1 0CP     -0.162000
     13 C8          1.5230    1.7400   -3.9310 c3        1 0CP     -0.160000
     14 C9          0.5900    0.8640   -3.3190 c3        1 0CP     -0.135000
     15 C10         0.8890   -0.3550   -4.3570 c3        1 0CP     -0.158000
     16 C11         0.1460   -0.3950    0.8140 c1        1 0CP     -0.115000
     17 C12        -0.6110   -0.3900    1.9920 c1        1 0CP     -0.102000
     18 C13        -2.0150   -0.3230    1.9250 c1        1 0CP     -0.099000
     19 C14        -2.6520   -0.2620    0.6880 c1        1 0CP     -0.195000
     20 C15         0.1340   -0.3840    3.4390 c3        1 0CP     -0.080000
     21 C16        -0.0740    0.8900    4.0680 c3        1 0CP     -0.017000
     22 C17         0.0310   -0.2120    6.2800 c2        1 0CP      0.383000
     23 C18        -0.3890   -1.4890    4.2490 c3        1 0CP     -0.017000
     24 H1         -3.3510    1.1160   -1.7510 h1        1 0CP      0.085667
     25 H1A        -4.4940    0.1000   -1.3630 h1        1 0CP      0.085667
     26 H1B        -3.9090    0.1180   -2.8290 h1        1 0CP      0.085667
     27 HN1         0.6410    1.7350    5.7690 hn        1 0CP      0.243500
     28 HN2         0.0970   -2.2850    6.0460 hn        1 0CP      0.243500
     29 H4          1.2870    0.8040   -1.5110 h1        1 0CP      0.088000
     30 H5          2.0300   -1.5650   -2.4760 hc        1 0CP      0.097500
     31 H5A         3.0010   -0.3250   -2.0830 hc        1 0CP      0.097500
     32 H6          2.9610   -1.0390   -4.4380 hc        1 0CP      0.109000
     33 H7          2.7770    1.0370   -5.3060 hc        1 0CP      0.082500
     34 H7A         3.4510    1.3040   -3.8950 hc        1 0CP      0.082500
     35 H8          1.1240    2.1500   -4.6950 hc        1 0CP      0.082500
     36 H8A         1.8010    2.4390   -3.2830 hc        1 0CP      0.082500
     37 H9         -0.3210    1.1470   -3.3050 hc        1 0CP      0.123000
     38 H10         0.7420   -0.1030   -5.2650 hc        1 0CP      0.096000
     39 H10A        0.4270   -1.1860   -4.1040 hc        1 0CP      0.096000
     40 H11         1.1570   -0.4430    0.8610 ha        1 0CP      0.147000
     41 H13        -2.5700   -0.3190    2.7870 ha        1 0CP      0.135000
     42 H14        -3.6480   -0.2140    0.6420 ha        1 0CP      0.141000
     43 H15         1.0790   -0.5140    3.3060 hc        1 0CP      0.116000
     44 H16        -1.0210    0.9780    4.1570 h1        1 0CP      0.080750
     45 H16A        0.4580    1.5240    3.5580 h1        1 0CP      0.080750
     46 H18        -0.1530   -2.3340    3.8130 h1        1 0CP      0.080750
     47 H18A       -1.3750   -1.4150    4.2810 h1        1 0CP      0.080750
@<TRIPOS>BOND
     1    1    3 1   
     2    1   24 1   
     3    1   25 1   
     4    1   26 1   
     5    2   21 1   
     6    2   22 1   
     7    2   27 1   
     8    3    4 1   
     9    4    7 1   
    10    4   19 1   
    11    5   22 1   
    12    5   23 1   
    13    5   28 1   
    14    6    7 1   
    15    6    9 1   
    16    7   16 1   
    17    8   22 1   
    18    9   10 1   
    19    9   14 1   
    20    9   29 1   
    21   10   11 1   
    22   10   30 1   
    23   10   31 1   
    24   11   12 1   
    25   11   15 1   
    26   11   32 1   
    27   12   13 1   
    28   12   33 1   
    29   12   34 1   
    30   13   14 1   
    31   13   35 1   
    32   13   36 1   
    33   14   15 1   
    34   14   37 1   
    35   15   38 1   
    36   15   39 1   
    37   16   40 1   
    38   17   18 1   
    39   17   20 1   
    40   18   41 1   
    41   19   42 1   
    42   20   21 1   
    43   20   23 1   
    44   20   43 1   
    45   21   44 1   
    46   21   45 1   
    47   23   46 1   
    48   23   47 1   
@<TRIPOS>SUBSTRUCTURE
     1 0CP         1 TEMP              0 ****  ****    0 ROOT
