@<TRIPOS>MOLECULE
0CP
   47    46     1     0     0
SMALL
bcc


@<TRIPOS>ATOM
      1 C1          1.2460    1.9410    0.9790 c3        1 0CP      0.116700
      2 N1          2.8690    2.5800    5.1020 n2        1 0CP     -0.819100
      3 O1          1.9690    1.7990    2.2020 os        1 0CP     -0.343900
      4 C2          2.2710    0.4740    2.5190 ce        1 0CP      0.107400
      5 N2          3.4060    1.5540    7.9470 n2        1 0CP     -0.818800
      6 O2          4.0190    0.6020    0.9900 os        1 0CP     -0.297900
      7 C3          3.3910   -0.1140    2.0010 cf        1 0CP      0.141100
      8 C4          5.3450    0.2040    0.7010 cx        1 0CP      0.086100
      9 C5          6.9090   -2.5380    0.3320 c3        1 0CP     -0.089100
     10 C6          6.8370   -1.4070   -0.6640 c3        1 0CP     -0.043700
     11 C7          7.9830   -0.3970   -0.4860 c3        1 0CP     -0.084400
     12 C8          7.3990    1.0140   -0.5860 c3        1 0CP     -0.059400
     13 C9          5.9000    0.8680   -0.5380 cx        1 0CP     -0.107700
     14 C10         5.5550   -0.6120   -0.5570 cx        1 0CP     -0.146700
     15 C11         3.9360   -1.4010    2.3900 cf        1 0CP     -0.194000
     16 C12         3.8950   -1.8760    3.6470 ce        1 0CP     -0.067000
     17 C13         0.5950   -0.6670    4.1540 c1        1 0CP     -0.126500
     18 C14         1.3790   -0.1510    3.4090 cg        1 0CP     -0.167300
     19 C15         4.4510   -3.1590    4.0270 ce        1 0CP     -0.161000
     20 C16         3.1820    3.5980    4.4070 c2        1 0CP      0.453100
     21 C17         3.4810    0.5640    7.2210 c1        1 0CP      0.789900
     22 C18         4.5330   -3.5530    5.3010 c2        1 0CP     -0.178000
     23 H1          0.2710    1.4000    1.0360 h1        1 0CP      0.040367
     24 H1A         1.8590    1.5570    0.1270 h1        1 0CP      0.040367
     25 H1B         1.0850    3.0440    0.8900 h1        1 0CP      0.040367
     26 HN2         3.2120    2.4810    7.6680 hn        1 0CP      0.519400
     27 H4          5.9660    0.0460    1.6010 h1        1 0CP      0.098700
     28 H5          6.8320   -2.1530    1.3780 hc        1 0CP      0.037033
     29 H5A         7.8770   -3.0840    0.2260 hc        1 0CP      0.037033
     30 H6          6.0720   -3.2580    0.1600 hc        1 0CP      0.037033
     31 H7          6.8910   -1.8390   -1.7020 hc        1 0CP      0.055700
     32 H7A         8.4690   -0.5400    0.5120 hc        1 0CP      0.045700
     33 H8          8.7640   -0.5560   -1.2680 hc        1 0CP      0.045700
     34 H8A         7.7670    1.6590    0.2500 hc        1 0CP      0.051200
     35 H9          7.7000    1.4980   -1.5500 hc        1 0CP      0.051200
     36 H10         5.3010    1.6230   -1.0680 hc        1 0CP      0.102700
     37 H10A        4.6840   -1.0060   -1.1010 hc        1 0CP      0.098700
     38 H11         4.4160   -1.9730    1.5740 ha        1 0CP      0.144000
     39 H13         3.4370   -1.2840    4.4650 ha        1 0CP      0.153000
     40 H14        -0.0880   -1.1290    4.8200 ha        1 0CP      0.169500
     41 H15         2.9940    3.7360    3.3240 h4        1 0CP     -0.019700
     42 H16         4.8100   -3.8020    3.2050 ha        1 0CP      0.121000
     43 H16A        3.6980    4.4400    4.9070 h4        1 0CP     -0.019700
     44 H18         4.9560   -4.5260    5.5840 ha        1 0CP      0.124000
     45 H18A        4.1880   -2.9240    6.1360 ha        1 0CP      0.124000
     46 HN1         2.4050    1.8380    4.6150 hn        1 0CP      0.403400
     47 O3          3.6070   -0.5410    6.7540 o         1 0CP     -0.490500
@<TRIPOS>BOND
     1    1    3 1   
     2    1   23 1   
     3    1   24 1   
     4    1   25 1   
     5    2   20 2   
     6    2   46 1   
     7    3    4 1   
     8    4    7 2   
     9    4   18 1   
    10    5   21 2   
    11    5   26 1   
    12    6    7 1   
    13    6    8 1   
    14    7   15 1   
    15    8   13 1   
    16    8   14 1   
    17    8   27 1   
    18    9   10 1   
    19    9   28 1   
    20    9   29 1   
    21    9   30 1   
    22   10   11 1   
    23   10   14 1   
    24   10   31 1   
    25   11   12 1   
    26   11   32 1   
    27   11   33 1   
    28   12   13 1   
    29   12   34 1   
    30   12   35 1   
    31   13   14 1   
    32   13   36 1   
    33   14   37 1   
    34   15   16 2   
    35   15   38 1   
    36   16   19 1   
    37   16   39 1   
    38   17   18 3   
    39   17   40 1   
    40   19   22 2   
    41   19   42 1   
    42   20   41 1   
    43   20   43 1   
    44   21   47 2   
    45   22   44 1   
    46   22   45 1   
@<TRIPOS>SUBSTRUCTURE
     1 0CP         1 TEMP              0 ****  ****    0 ROOT
