@<TRIPOS>MOLECULE
0CP
   47    50     1     0     0
SMALL
bcc


@<TRIPOS>ATOM
      1 C1          1.6800    4.5670    0.1300 c3        1 0CP      0.109700
      2 N1         -4.6020   -1.0710    1.1070 n         1 0CP     -0.568400
      3 O1          1.8870    3.1590    0.1210 os        1 0CP     -0.301900
      4 C2          0.7480    2.3830    0.0650 ca        1 0CP      0.109100
      5 N2         -4.7490   -0.6930   -1.2810 n         1 0CP     -0.568400
      6 O2          2.2830    0.5850   -0.1540 os        1 0CP     -0.305900
      7 C3          0.9660    0.9830   -0.0490 ca        1 0CP      0.103100
      8 C4          2.5690   -0.7500    0.2830 c3        1 0CP      0.130100
      9 C5          2.4540   -1.7650   -0.8830 c3        1 0CP     -0.106400
     10 C6          3.8890   -2.3040   -1.0340 c3        1 0CP     -0.076700
     11 C7          4.1930   -3.1620    0.2100 c3        1 0CP     -0.083400
     12 C8          4.3220   -2.1300    1.3470 c3        1 0CP     -0.083400
     13 C9          4.0810   -0.7790    0.6460 c3        1 0CP     -0.070700
     14 C10         4.7230   -1.0310   -0.7410 c3        1 0CP     -0.083400
     15 C11        -0.1230    0.1140   -0.1030 ca        1 0CP     -0.163000
     16 C12        -1.4320    0.6140   -0.0430 ca        1 0CP     -0.090300
     17 C13        -1.6370    1.9900    0.0640 ca        1 0CP     -0.119000
     18 C14        -0.5570    2.8730    0.1140 ca        1 0CP     -0.182000
     19 C15        -2.5780   -0.3400   -0.0990 c3        1 0CP     -0.039400
     20 C16        -3.4270   -0.2480    1.1820 c3        1 0CP      0.098000
     21 C17        -5.3030   -1.1960   -0.1020 c         1 0CP      0.792500
     22 C18        -3.4580   -0.0680   -1.3310 c3        1 0CP      0.098000
     23 H1          1.1240    4.8940   -0.7820 h1        1 0CP      0.045033
     24 H1A         1.1350    4.8790    1.0540 h1        1 0CP      0.045033
     25 H1B         2.7210    4.9790    0.1280 h1        1 0CP      0.045033
     26 HN2        -5.1590   -1.0040   -2.1290 hn        1 0CP      0.329000
     27 H4          1.9230   -1.0240    1.1540 h1        1 0CP      0.056700
     28 H5          1.7310   -2.5780   -0.6410 hc        1 0CP      0.054200
     29 H5A         2.1240   -1.2500   -1.8170 hc        1 0CP      0.054200
     30 H6          4.0870   -2.8070   -1.9990 hc        1 0CP      0.070700
     31 H7          3.3770   -3.8960    0.4110 hc        1 0CP      0.044200
     32 H7A         5.1460   -3.7260    0.0730 hc        1 0CP      0.044200
     33 H8          3.5790   -2.3140    2.1580 hc        1 0CP      0.046700
     34 H8A         5.3430   -2.1540    1.7960 hc        1 0CP      0.046700
     35 H9          4.4290    0.1150    1.1940 hc        1 0CP      0.086700
     36 H10         5.8150   -1.2310   -0.6820 hc        1 0CP      0.058700
     37 H10A        4.5240   -0.2050   -1.4580 hc        1 0CP      0.058700
     38 H11         0.0500   -0.9690   -0.2010 ha        1 0CP      0.144000
     39 H13        -2.6600    2.3950    0.1090 ha        1 0CP      0.136000
     40 H14        -0.7460    3.9520    0.1980 ha        1 0CP      0.142000
     41 H15        -2.1790   -1.3930   -0.1790 hc        1 0CP      0.070700
     42 H16        -3.7000    0.8340    1.3610 h1        1 0CP      0.044700
     43 H16A       -2.8120   -0.5960    2.0600 h1        1 0CP      0.044700
     44 H18        -2.9080   -0.4180   -2.2510 h1        1 0CP      0.044700
     45 H18A       -3.6110    1.0470   -1.4320 h1        1 0CP      0.044700
     46 HN1        -5.1470   -1.1710    1.9320 hn        1 0CP      0.329000
     47 O3         -6.4160   -1.7760   -0.1300 o         1 0CP     -0.679500
@<TRIPOS>BOND
     1    1    3 1   
     2    1   23 1   
     3    1   24 1   
     4    1   25 1   
     5    2   20 1   
     6    2   21 1   
     7    2   46 1   
     8    3    4 1   
     9    4    7 ar  
    10    4   18 ar  
    11    5   21 1   
    12    5   22 1   
    13    5   26 1   
    14    6    7 1   
    15    6    8 1   
    16    7   15 ar  
    17    8    9 1   
    18    8   13 1   
    19    8   27 1   
    20    9   10 1   
    21    9   28 1   
    22    9   29 1   
    23   10   11 1   
    24   10   14 1   
    25   10   30 1   
    26   11   12 1   
    27   11   31 1   
    28   11   32 1   
    29   12   13 1   
    30   12   33 1   
    31   12   34 1   
    32   13   14 1   
    33   13   35 1   
    34   14   36 1   
    35   14   37 1   
    36   15   16 ar  
    37   15   38 1   
    38   16   17 ar  
    39   16   19 1   
    40   17   18 ar  
    41   17   39 1   
    42   18   40 1   
    43   19   20 1   
    44   19   22 1   
    45   19   41 1   
    46   20   42 1   
    47   20   43 1   
    48   21   47 2   
    49   22   44 1   
    50   22   45 1   
@<TRIPOS>SUBSTRUCTURE
     1 0CP         1 TEMP              0 ****  ****    0 ROOT
