@<TRIPOS>MOLECULE
0CS
   16    16     1     0     0
SMALL
bcc


@<TRIPOS>ATOM
      1 N           1.0300   -2.1930    1.4180 n3        1 0CS     -0.886800
      2 CA          1.3830   -0.7850    1.4400 c3        1 0CS      0.071500
      3 CB          1.1310   -0.0410    0.1340 c3        1 0CS     -0.065600
      4 C           0.6920    0.0250    2.5620 c         1 0CS      0.713600
      5 O           0.3510   -0.4730    3.6510 o         1 0CS     -0.731500
      6 SG          0.8170    1.6860    0.4680 s6        1 0CS      0.435400
      7 OD1         2.1220    2.2920    0.7470 o         1 0CS     -0.564800
      8 OD2         0.8890    2.1430   -1.2930 os        1 0CS     -0.374700
      9 OD3         1.6550    3.1100   -1.6230 oh        1 0CS     -0.407000
     10 OXT         0.4760    1.2800    2.2800 os        1 0CS     -0.463800
     11 H           0.1210   -2.3080    1.0110 hn        1 0CS      0.339300
     12 H2          0.9840   -2.5210    2.3680 hn        1 0CS      0.339300
     13 HA          2.4910   -0.7410    1.6680 h1        1 0CS      0.074700
     14 HB2         2.0010   -0.1620   -0.5520 h1        1 0CS      0.073700
     15 HB3         0.2350   -0.4330   -0.4030 h1        1 0CS      0.073700
     16 HD3         2.5410    2.9690   -1.2090 ho        1 0CS      0.373000
@<TRIPOS>BOND
     1    1    2 1   
     2    1   11 1   
     3    1   12 1   
     4    2    3 1   
     5    2    4 1   
     6    2   13 1   
     7    3    6 1   
     8    3   14 1   
     9    3   15 1   
    10    4    5 2   
    11    4   10 1   
    12    6    7 2   
    13    6    8 1   
    14    6   10 1   
    15    8    9 1   
    16    9   16 1   
@<TRIPOS>SUBSTRUCTURE
     1 0CS         1 TEMP              0 ****  ****    0 ROOT
