@<TRIPOS>MOLECULE
0CT
   14    15     1     0     0
SMALL
bcc


@<TRIPOS>ATOM
      1 NAF        -0.0080   -0.0000   -0.0240 na        1 0CT     -0.065100
      2 CAH         1.3940   -0.0000    0.0350 ca        1 0CT     -0.068200
      3 CAC         2.3460   -0.0000    1.0590 ca        1 0CT     -0.133000
      4 CAA         3.6790   -0.0000    0.6740 ca        1 0CT     -0.095000
      5 CAB         4.0680    0.0000   -0.6800 ca        1 0CT     -0.157000
      6 CAD         3.1390    0.0000   -1.7110 ca        1 0CT     -0.044000
      7 CAI         1.7860    0.0000   -1.3620 ca        1 0CT      0.009400
      8 NAG         0.5730    0.0000   -2.1140 nc        1 0CT     -0.215400
      9 NAE        -0.4060    0.0000   -1.3150 nd        1 0CT     -0.135400
     10 H1         -0.6520   -0.0000    0.7280 hn        1 0CT      0.330700
     11 H2          2.0530   -0.0000    2.1170 ha        1 0CT      0.143000
     12 H3          4.4610   -0.0000    1.4490 ha        1 0CT      0.137000
     13 H4          5.1420   -0.0000   -0.9210 ha        1 0CT      0.139000
     14 H5          3.4480    0.0000   -2.7660 ha        1 0CT      0.154000
@<TRIPOS>BOND
     1    1    2 1   
     2    1    9 1   
     3    1   10 1   
     4    2    3 ar  
     5    2    7 ar  
     6    3    4 ar  
     7    3   11 1   
     8    4    5 ar  
     9    4   12 1   
    10    5    6 ar  
    11    5   13 1   
    12    6    7 ar  
    13    6   14 1   
    14    7    8 1   
    15    8    9 2   
@<TRIPOS>SUBSTRUCTURE
     1 0CT         1 TEMP              0 ****  ****    0 ROOT
