@<TRIPOS>MOLECULE
0CT
   14    15     1     0     0
SMALL
bcc


@<TRIPOS>ATOM
      1 NAF        -1.5780    1.0510    0.0010 na        1 0CT     -0.065100
      2 CAH        -0.2140    0.7240    0.0000 ca        1 0CT     -0.068200
      3 CAC         0.9820    1.4490    0.0000 ca        1 0CT     -0.133000
      4 CAA         2.1590    0.7130   -0.0000 ca        1 0CT     -0.095000
      5 CAB         2.1620   -0.6950   -0.0010 ca        1 0CT     -0.157000
      6 CAD         0.9870   -1.4330   -0.0010 ca        1 0CT     -0.044000
      7 CAI        -0.2190   -0.7270   -0.0000 ca        1 0CT      0.009400
      8 NAG        -1.5930   -1.1180    0.0000 nc        1 0CT     -0.215400
      9 NAE        -2.3150   -0.0820    0.0010 nd        1 0CT     -0.135400
     10 H1         -1.9920    1.9510    0.0010 hn        1 0CT      0.330700
     11 H2          0.9900    2.5460    0.0000 ha        1 0CT      0.143000
     12 H3          3.1230    1.2440   -0.0000 ha        1 0CT      0.137000
     13 H4          3.1290   -1.2210   -0.0010 ha        1 0CT      0.139000
     14 H5          0.9950   -2.5330   -0.0010 ha        1 0CT      0.154000
@<TRIPOS>BOND
     1    1    2 1   
     2    1    9 1   
     3    1   10 1   
     4    2    3 ar  
     5    2    7 ar  
     6    3    4 ar  
     7    3   11 1   
     8    4    5 ar  
     9    4   12 1   
    10    5    6 ar  
    11    5   13 1   
    12    6    7 ar  
    13    6   14 1   
    14    7    8 1   
    15    8    9 2   
@<TRIPOS>SUBSTRUCTURE
     1 0CT         1 TEMP              0 ****  ****    0 ROOT
