@<TRIPOS>MOLECULE
0CT
   14    10     1     0     0
SMALL
bcc


@<TRIPOS>ATOM
      1 NAF        -2.2040    0.0000    0.2960 n2        1 0CT     -0.240000
      2 CAH        -0.8470    0.0000    0.2960 c1        1 0CT     -0.023000
      3 CAC         0.0960    0.0000    1.3410 c1        1 0CT     -0.107250
      4 CAA         1.4520   -0.0000    1.0510 c1        1 0CT     -0.107250
      5 CAB         1.8790   -0.0000   -0.2680 c1        1 0CT     -0.107250
      6 CAD         0.9510   -0.0000   -1.2970 c1        1 0CT     -0.107250
      7 CAI        -0.4260   -0.0000   -1.0040 c1        1 0CT     -0.130000
      8 NAG        -1.5250   -0.0000   -1.8000 n1        1 0CT     -0.076000
      9 NAE        -2.6250    0.0000   -0.9980 n2        1 0CT      0.044000
     10 H1         -2.7400    0.0000    1.0340 DU        1 0CT      0.281000
     11 H2         -0.2050    0.0000    2.2700 ha        1 0CT      0.143250
     12 H3          2.1060    0.0000    1.7760 ha        1 0CT      0.143250
     13 H4          2.8340   -0.0000   -0.4710 ha        1 0CT      0.143250
     14 H5          1.2520   -0.0000   -2.2260 ha        1 0CT      0.143250
@<TRIPOS>BOND
     1    1    2 1   
     2    1    9 1   
     3    2    7 1   
     4    3    4 1   
     5    3   11 1   
     6    4   12 1   
     7    5    6 1   
     8    5   13 1   
     9    6   14 1   
    10    8    9 1   
@<TRIPOS>SUBSTRUCTURE
     1 0CT         1 TEMP              0 ****  ****    0 ROOT
